version 3
run General-0-20251118-11:40:32-109396
attr configname General
attr datetime 20251118-11:40:32
attr datetimef 20251118-114032
attr experiment General
attr inifile omnetpp.ini
attr iterationvars ""
attr iterationvarsd ""
attr iterationvarsf ""
attr measurement ""
attr network BgpNetwork
attr processid 109396
attr repetition 0
attr replication #0
attr resultdir results
attr runnumber 0
attr seedset 0
config **.param-recording false
config image-path /home/zoli/Projects/OMNET/inet/images
config output-scalar-file results/omnetpp.ini-General-#0.sca
config output-scalar-precision 17
config output-vector-file results/omnetpp.ini-General-#0.vec
config output-vector-precision 17
config record-eventlog false
config sim-time-limit 60s
config description "2 BGP routers in one AS"
config network BgpNetwork
config sim-time-limit 60s
config output-scalar-file results.sca
config output-scalar-precision 5
config output-vector-precision 4
config **.app[0].**.scalar-recording true
config **.scalar-recording false
config **.vector-recording false
config **.eth[*].queue.packetCapacity 100
config **.tcp.typename Tcp
config **.tcp.mss 1024
config **.tcp.advertisedWindow 14336
config **.tcp.tcpAlgorithmClass "\"TcpReno\""
config **.ospfConfig "xmldoc(\"OSPFConfig.xml\")"
config *.A1.ipv4.routingTable.routerId "\"10.10.1.254\""
config *.A2.ipv4.routingTable.routerId "\"10.10.3.254\""
config **.bgpConfig "xmldoc(\"BGPConfig.xml\")"
config *.B.bgp.redistributeOspf "\"O IA E2\""
config *.C.bgp.redistributeOspf "\"O IA E2\""
config *.A1.bgp.redistributeOspf "\"O IA E2\""
config *.A2.bgp.redistributeOspf "\"O IA E2\""
config *.A1.bgp.nextHopSelf true
config *.A2.bgp.nextHopSelf true
config *.A1.bgp.redistributeInternal true
config *.A2.bgp.redistributeInternal true
config *.visualizer.interfaceTableVisualizer.displayInterfaceTables true
config *.H*.numApps 1
config **.app[0].messageLength "32 bytes"
config **.app[0].sendInterval 2s
config **.app[0].localPort 1234
config **.app[0].destPort 1234
config **.HA31.app[0].typename UdpBasicApp
config **.HA31.app[0].destAddresses "\"192.171.1.2\""
config **.HB11.app[0].typename UdpBasicApp
config **.HB11.app[0].destAddresses "\"192.172.1.2\""
config **.HC11.app[0].typename UdpBasicApp
config **.HC11.app[0].destAddresses "\"192.170.1.2\""
config **.HC21.app[0].typename UdpBasicApp
config **.HC21.app[0].destAddresses "\"192.168.1.2\""
config **.HA32.app[0].typename UdpSink
config **.HB12.app[0].typename UdpSink
config **.HC12.app[0].typename UdpSink
config **.HC22.app[0].typename UdpSink

scalar BgpNetwork.HA31.app[0] "packets sent" 30
scalar BgpNetwork.HA31.app[0] "packets received" 0
scalar BgpNetwork.HA31.app[0] packetReceived:count 0
scalar BgpNetwork.HA31.app[0] packetReceived:sum(packetBytes) 0
scalar BgpNetwork.HA31.app[0] packetSent:count 30
scalar BgpNetwork.HA31.app[0] packetSent:sum(packetBytes) 960
scalar BgpNetwork.HA32.app[0] packetReceived:count 21
scalar BgpNetwork.HA32.app[0] packetReceived:sum(packetBytes) 672
scalar BgpNetwork.HB11.app[0] "packets sent" 30
scalar BgpNetwork.HB11.app[0] "packets received" 0
scalar BgpNetwork.HB11.app[0] packetReceived:count 0
scalar BgpNetwork.HB11.app[0] packetReceived:sum(packetBytes) 0
scalar BgpNetwork.HB11.app[0] packetSent:count 30
scalar BgpNetwork.HB11.app[0] packetSent:sum(packetBytes) 960
scalar BgpNetwork.HB12.app[0] packetReceived:count 19
scalar BgpNetwork.HB12.app[0] packetReceived:sum(packetBytes) 608
scalar BgpNetwork.HC11.app[0] "packets sent" 30
scalar BgpNetwork.HC11.app[0] "packets received" 0
scalar BgpNetwork.HC11.app[0] packetReceived:count 0
scalar BgpNetwork.HC11.app[0] packetReceived:sum(packetBytes) 0
scalar BgpNetwork.HC11.app[0] packetSent:count 30
scalar BgpNetwork.HC11.app[0] packetSent:sum(packetBytes) 960
scalar BgpNetwork.HC12.app[0] packetReceived:count 21
scalar BgpNetwork.HC12.app[0] packetReceived:sum(packetBytes) 672
scalar BgpNetwork.HC21.app[0] "packets sent" 30
scalar BgpNetwork.HC21.app[0] "packets received" 0
scalar BgpNetwork.HC21.app[0] packetReceived:count 0
scalar BgpNetwork.HC21.app[0] packetReceived:sum(packetBytes) 0
scalar BgpNetwork.HC21.app[0] packetSent:count 30
scalar BgpNetwork.HC21.app[0] packetSent:sum(packetBytes) 960
scalar BgpNetwork.HC22.app[0] packetReceived:count 19
scalar BgpNetwork.HC22.app[0] packetReceived:sum(packetBytes) 608
scalar BgpNetwork.HA31.app[0] rcvdPkLifetime:stats:count 0
scalar BgpNetwork.HA31.app[0] rcvdPkLifetime:stats:sumweights 0
scalar BgpNetwork.HA31.app[0] rcvdPkLifetime:stats:mean -nan
scalar BgpNetwork.HA31.app[0] rcvdPkLifetime:stats:stddev nan
scalar BgpNetwork.HA31.app[0] rcvdPkLifetime:stats:min nan
scalar BgpNetwork.HA31.app[0] rcvdPkLifetime:stats:max nan
scalar BgpNetwork.HA31.app[0] rcvdPkLifetime:stats:numbins 0
scalar BgpNetwork.HB11.app[0] rcvdPkLifetime:stats:count 0
scalar BgpNetwork.HB11.app[0] rcvdPkLifetime:stats:sumweights 0
scalar BgpNetwork.HB11.app[0] rcvdPkLifetime:stats:mean -nan
scalar BgpNetwork.HB11.app[0] rcvdPkLifetime:stats:stddev nan
scalar BgpNetwork.HB11.app[0] rcvdPkLifetime:stats:min nan
scalar BgpNetwork.HB11.app[0] rcvdPkLifetime:stats:max nan
scalar BgpNetwork.HB11.app[0] rcvdPkLifetime:stats:numbins 0
scalar BgpNetwork.HC11.app[0] rcvdPkLifetime:stats:count 0
scalar BgpNetwork.HC11.app[0] rcvdPkLifetime:stats:sumweights 0
scalar BgpNetwork.HC11.app[0] rcvdPkLifetime:stats:mean -nan
scalar BgpNetwork.HC11.app[0] rcvdPkLifetime:stats:stddev nan
scalar BgpNetwork.HC11.app[0] rcvdPkLifetime:stats:min nan
scalar BgpNetwork.HC11.app[0] rcvdPkLifetime:stats:max nan
scalar BgpNetwork.HC11.app[0] rcvdPkLifetime:stats:numbins 0
scalar BgpNetwork.HC21.app[0] rcvdPkLifetime:stats:count 0
scalar BgpNetwork.HC21.app[0] rcvdPkLifetime:stats:sumweights 0
scalar BgpNetwork.HC21.app[0] rcvdPkLifetime:stats:mean -nan
scalar BgpNetwork.HC21.app[0] rcvdPkLifetime:stats:stddev nan
scalar BgpNetwork.HC21.app[0] rcvdPkLifetime:stats:min nan
scalar BgpNetwork.HC21.app[0] rcvdPkLifetime:stats:max nan
scalar BgpNetwork.HC21.app[0] rcvdPkLifetime:stats:numbins 0
scalar BgpNetwork.HA32.app[0] endToEndDelay:histogram:count 21
scalar BgpNetwork.HA32.app[0] endToEndDelay:histogram:sumweights 21
scalar BgpNetwork.HA32.app[0] endToEndDelay:histogram:mean 0.0004644304761904761
scalar BgpNetwork.HA32.app[0] endToEndDelay:histogram:stddev 4.7574497209765909e-05
scalar BgpNetwork.HA32.app[0] endToEndDelay:histogram:min 0.00044895999999999998
scalar BgpNetwork.HA32.app[0] endToEndDelay:histogram:max 0.00067199999999999996
scalar BgpNetwork.HA32.app[0] endToEndDelay:histogram:numbins 68
scalar BgpNetwork.HA32.app[0] endToEndDelay:histogram:rangemin 0.0003900000000000001
scalar BgpNetwork.HA32.app[0] endToEndDelay:histogram:rangemax 0.00073000000000000018
scalar BgpNetwork.HA32.app[0] endToEndDelay:histogram:underflows 0
scalar BgpNetwork.HA32.app[0] endToEndDelay:histogram:overflows 0
scalar BgpNetwork.HB12.app[0] endToEndDelay:histogram:count 19
scalar BgpNetwork.HB12.app[0] endToEndDelay:histogram:sumweights 19
scalar BgpNetwork.HB12.app[0] endToEndDelay:histogram:mean 0.00062677894736842127
scalar BgpNetwork.HB12.app[0] endToEndDelay:histogram:stddev 5.1168885282488886e-05
scalar BgpNetwork.HB12.app[0] endToEndDelay:histogram:min 0.00061503999999999997
scalar BgpNetwork.HB12.app[0] endToEndDelay:histogram:max 0.00083807999999999994
scalar BgpNetwork.HB12.app[0] endToEndDelay:histogram:numbins 68
scalar BgpNetwork.HB12.app[0] endToEndDelay:histogram:rangemin 0.00055500000000000015
scalar BgpNetwork.HB12.app[0] endToEndDelay:histogram:rangemax 0.00089500000000000018
scalar BgpNetwork.HB12.app[0] endToEndDelay:histogram:underflows 0
scalar BgpNetwork.HB12.app[0] endToEndDelay:histogram:overflows 0
scalar BgpNetwork.HC12.app[0] endToEndDelay:histogram:count 21
scalar BgpNetwork.HC12.app[0] endToEndDelay:histogram:sumweights 21
scalar BgpNetwork.HC12.app[0] endToEndDelay:histogram:mean 0.00052556190476190452
scalar BgpNetwork.HC12.app[0] endToEndDelay:histogram:stddev 9.7342636476471534e-05
scalar BgpNetwork.HC12.app[0] endToEndDelay:histogram:min 0.00050431999999999994
scalar BgpNetwork.HC12.app[0] endToEndDelay:histogram:max 0.00095040000000000001
scalar BgpNetwork.HC12.app[0] endToEndDelay:histogram:numbins 68
scalar BgpNetwork.HC12.app[0] endToEndDelay:histogram:rangemin 0.00039000000000000005
scalar BgpNetwork.HC12.app[0] endToEndDelay:histogram:rangemax 0.0010700000000000002
scalar BgpNetwork.HC12.app[0] endToEndDelay:histogram:underflows 0
scalar BgpNetwork.HC12.app[0] endToEndDelay:histogram:overflows 0
scalar BgpNetwork.HC22.app[0] endToEndDelay:histogram:count 19
scalar BgpNetwork.HC22.app[0] endToEndDelay:histogram:sumweights 19
scalar BgpNetwork.HC22.app[0] endToEndDelay:histogram:mean 0.00062677894736842127
scalar BgpNetwork.HC22.app[0] endToEndDelay:histogram:stddev 5.1168885282488886e-05
scalar BgpNetwork.HC22.app[0] endToEndDelay:histogram:min 0.00061503999999999997
scalar BgpNetwork.HC22.app[0] endToEndDelay:histogram:max 0.00083807999999999994
scalar BgpNetwork.HC22.app[0] endToEndDelay:histogram:numbins 68
scalar BgpNetwork.HC22.app[0] endToEndDelay:histogram:rangemin 0.00055500000000000015
scalar BgpNetwork.HC22.app[0] endToEndDelay:histogram:rangemax 0.00089500000000000018
scalar BgpNetwork.HC22.app[0] endToEndDelay:histogram:underflows 0
scalar BgpNetwork.HC22.app[0] endToEndDelay:histogram:overflows 0
statistic BgpNetwork.HA31.app[0] rcvdPkLifetime:stats
field count 0
field mean -nan
field stddev nan
field min nan
field max nan
field sum 0
field sqrsum 0
statistic BgpNetwork.HB11.app[0] rcvdPkLifetime:stats
field count 0
field mean -nan
field stddev nan
field min nan
field max nan
field sum 0
field sqrsum 0
statistic BgpNetwork.HC11.app[0] rcvdPkLifetime:stats
field count 0
field mean -nan
field stddev nan
field min nan
field max nan
field sum 0
field sqrsum 0
statistic BgpNetwork.HC21.app[0] rcvdPkLifetime:stats
field count 0
field mean -nan
field stddev nan
field min nan
field max nan
field sum 0
field sqrsum 0
statistic BgpNetwork.HA32.app[0] endToEndDelay:histogram
field count 21
field mean 0.0004644304761904761
field stddev 4.7574497209765909e-05
field min 0.00044895999999999998
field max 0.00067199999999999996
field sum 0.0097530399999999975
field sqrsum 4.5748756672000005e-06
bin	-inf	0
bin	0.0003900000000000001	0
bin	0.00039500000000000011	0
bin	0.00040000000000000013	0
bin	0.00040500000000000009	0
bin	0.0004100000000000001	0
bin	0.00041500000000000011	0
bin	0.00042000000000000013	0
bin	0.00042500000000000014	0
bin	0.0004300000000000001	0
bin	0.00043500000000000011	0
bin	0.00044000000000000012	0
bin	0.00044500000000000014	1
bin	0.0004500000000000001	19
bin	0.00045500000000000011	0
bin	0.00046000000000000012	0
bin	0.00046500000000000014	0
bin	0.00047000000000000015	0
bin	0.00047500000000000011	0
bin	0.00048000000000000012	0
bin	0.00048500000000000013	0
bin	0.00049000000000000009	0
bin	0.00049500000000000011	0
bin	0.00050000000000000012	0
bin	0.00050500000000000013	0
bin	0.00051000000000000015	0
bin	0.00051500000000000016	0
bin	0.00052000000000000017	0
bin	0.00052500000000000008	0
bin	0.00053000000000000009	0
bin	0.0005350000000000001	0
bin	0.00054000000000000012	0
bin	0.00054500000000000013	0
bin	0.00055000000000000014	0
bin	0.00055500000000000015	0
bin	0.00056000000000000017	0
bin	0.00056500000000000018	0
bin	0.00057000000000000019	0
bin	0.00057500000000000021	0
bin	0.00058000000000000011	0
bin	0.00058500000000000012	0
bin	0.00059000000000000014	0
bin	0.00059500000000000015	0
bin	0.00060000000000000016	0
bin	0.00060500000000000018	0
bin	0.00061000000000000019	0
bin	0.0006150000000000001	0
bin	0.00062000000000000011	0
bin	0.00062500000000000012	0
bin	0.00063000000000000013	0
bin	0.00063500000000000015	0
bin	0.00064000000000000016	0
bin	0.00064500000000000017	0
bin	0.00065000000000000019	0
bin	0.0006550000000000002	0
bin	0.00066000000000000021	0
bin	0.00066500000000000023	0
bin	0.00067000000000000024	1
bin	0.00067500000000000025	0
bin	0.00068000000000000016	0
bin	0.00068500000000000017	0
bin	0.00069000000000000018	0
bin	0.0006950000000000002	0
bin	0.0007000000000000001	0
bin	0.00070500000000000011	0
bin	0.00071000000000000013	0
bin	0.00071500000000000014	0
bin	0.00072000000000000015	0
bin	0.00072500000000000017	0
bin	0.00073000000000000018	0
statistic BgpNetwork.HB12.app[0] endToEndDelay:histogram
field count 19
field mean 0.00062677894736842127
field stddev 5.1168885282488886e-05
field min 0.00061503999999999997
field max 0.00083807999999999994
field sum 0.011908800000000004
field sqrsum 7.5113137152000026e-06
bin	-inf	0
bin	0.00055500000000000015	0
bin	0.00056000000000000017	0
bin	0.00056500000000000018	0
bin	0.00057000000000000019	0
bin	0.00057500000000000021	0
bin	0.00058000000000000011	0
bin	0.00058500000000000012	0
bin	0.00059000000000000014	0
bin	0.00059500000000000015	0
bin	0.00060000000000000016	0
bin	0.00060500000000000018	0
bin	0.00061000000000000019	0
bin	0.0006150000000000002	18
bin	0.00062000000000000022	0
bin	0.00062500000000000012	0
bin	0.00063000000000000013	0
bin	0.00063500000000000015	0
bin	0.00064000000000000016	0
bin	0.00064500000000000017	0
bin	0.00065000000000000019	0
bin	0.0006550000000000002	0
bin	0.00066000000000000021	0
bin	0.00066500000000000023	0
bin	0.00067000000000000024	0
bin	0.00067500000000000014	0
bin	0.00068000000000000016	0
bin	0.00068500000000000017	0
bin	0.00069000000000000018	0
bin	0.0006950000000000002	0
bin	0.00070000000000000021	0
bin	0.00070500000000000022	0
bin	0.00071000000000000013	0
bin	0.00071500000000000014	0
bin	0.00072000000000000015	0
bin	0.00072500000000000017	0
bin	0.00073000000000000018	0
bin	0.00073500000000000019	0
bin	0.00074000000000000021	0
bin	0.00074500000000000022	0
bin	0.00075000000000000023	0
bin	0.00075500000000000025	0
bin	0.00076000000000000026	0
bin	0.00076500000000000027	0
bin	0.00077000000000000018	0
bin	0.00077500000000000019	0
bin	0.0007800000000000002	0
bin	0.00078500000000000022	0
bin	0.00079000000000000023	0
bin	0.00079500000000000024	0
bin	0.00080000000000000015	0
bin	0.00080500000000000016	0
bin	0.00081000000000000017	0
bin	0.00081500000000000019	0
bin	0.0008200000000000002	0
bin	0.00082500000000000021	0
bin	0.00083000000000000023	0
bin	0.00083500000000000024	1
bin	0.00084000000000000025	0
bin	0.00084500000000000026	0
bin	0.00085000000000000028	0
bin	0.00085500000000000029	0
bin	0.0008600000000000003	0
bin	0.00086500000000000021	0
bin	0.00087000000000000022	0
bin	0.00087500000000000024	0
bin	0.00088000000000000025	0
bin	0.00088500000000000026	0
bin	0.00089000000000000017	0
bin	0.00089500000000000018	0
statistic BgpNetwork.HC12.app[0] endToEndDelay:histogram
field count 21
field mean 0.00052556190476190452
field stddev 9.7342636476471534e-05
field min 0.00050431999999999994
field max 0.00095040000000000001
field sum 0.011036799999999996
field sqrsum 5.9900334079999961e-06
bin	-inf	0
bin	0.00039000000000000005	0
bin	0.00040000000000000007	0
bin	0.00041000000000000005	0
bin	0.00042000000000000007	0
bin	0.00043000000000000004	0
bin	0.00044000000000000007	0
bin	0.00045000000000000004	0
bin	0.00046000000000000007	0
bin	0.00047000000000000004	0
bin	0.00048000000000000007	0
bin	0.00049000000000000009	0
bin	0.00050000000000000001	20
bin	0.00051000000000000004	0
bin	0.00052000000000000006	0
bin	0.00053000000000000009	0
bin	0.00054000000000000012	0
bin	0.00055000000000000003	0
bin	0.00056000000000000006	0
bin	0.00057000000000000009	0
bin	0.00058	0
bin	0.00059000000000000003	0
bin	0.00060000000000000006	0
bin	0.00061000000000000008	0
bin	0.00062000000000000011	0
bin	0.00063000000000000013	0
bin	0.00064000000000000005	0
bin	0.00065000000000000008	0
bin	0.00066	0
bin	0.00067000000000000002	0
bin	0.00068000000000000005	0
bin	0.00069000000000000008	0
bin	0.0007000000000000001	0
bin	0.00071000000000000013	0
bin	0.00072000000000000015	0
bin	0.00073000000000000007	0
bin	0.0007400000000000001	0
bin	0.00075000000000000002	0
bin	0.00076000000000000004	0
bin	0.00077000000000000007	0
bin	0.00078000000000000009	0
bin	0.00079000000000000012	0
bin	0.00080000000000000015	0
bin	0.00081000000000000006	0
bin	0.00082000000000000009	0
bin	0.00083000000000000001	0
bin	0.00084000000000000003	0
bin	0.00085000000000000006	0
bin	0.00086000000000000009	0
bin	0.00087000000000000011	0
bin	0.00088000000000000014	0
bin	0.00089000000000000006	0
bin	0.00090000000000000008	0
bin	0.00091000000000000011	0
bin	0.00092000000000000014	0
bin	0.00093000000000000005	0
bin	0.00094000000000000008	0
bin	0.00095000000000000011	1
bin	0.00096000000000000013	0
bin	0.00097000000000000005	0
bin	0.00097999999999999997	0
bin	0.00098999999999999999	0
bin	0.001	0
bin	0.00101	0
bin	0.0010200000000000001	0
bin	0.0010300000000000001	0
bin	0.0010400000000000001	0
bin	0.0010500000000000002	0
bin	0.0010600000000000002	0
bin	0.0010700000000000002	0
statistic BgpNetwork.HC22.app[0] endToEndDelay:histogram
field count 19
field mean 0.00062677894736842127
field stddev 5.1168885282488886e-05
field min 0.00061503999999999997
field max 0.00083807999999999994
field sum 0.011908800000000004
field sqrsum 7.5113137152000026e-06
bin	-inf	0
bin	0.00055500000000000015	0
bin	0.00056000000000000017	0
bin	0.00056500000000000018	0
bin	0.00057000000000000019	0
bin	0.00057500000000000021	0
bin	0.00058000000000000011	0
bin	0.00058500000000000012	0
bin	0.00059000000000000014	0
bin	0.00059500000000000015	0
bin	0.00060000000000000016	0
bin	0.00060500000000000018	0
bin	0.00061000000000000019	0
bin	0.0006150000000000002	18
bin	0.00062000000000000022	0
bin	0.00062500000000000012	0
bin	0.00063000000000000013	0
bin	0.00063500000000000015	0
bin	0.00064000000000000016	0
bin	0.00064500000000000017	0
bin	0.00065000000000000019	0
bin	0.0006550000000000002	0
bin	0.00066000000000000021	0
bin	0.00066500000000000023	0
bin	0.00067000000000000024	0
bin	0.00067500000000000014	0
bin	0.00068000000000000016	0
bin	0.00068500000000000017	0
bin	0.00069000000000000018	0
bin	0.0006950000000000002	0
bin	0.00070000000000000021	0
bin	0.00070500000000000022	0
bin	0.00071000000000000013	0
bin	0.00071500000000000014	0
bin	0.00072000000000000015	0
bin	0.00072500000000000017	0
bin	0.00073000000000000018	0
bin	0.00073500000000000019	0
bin	0.00074000000000000021	0
bin	0.00074500000000000022	0
bin	0.00075000000000000023	0
bin	0.00075500000000000025	0
bin	0.00076000000000000026	0
bin	0.00076500000000000027	0
bin	0.00077000000000000018	0
bin	0.00077500000000000019	0
bin	0.0007800000000000002	0
bin	0.00078500000000000022	0
bin	0.00079000000000000023	0
bin	0.00079500000000000024	0
bin	0.00080000000000000015	0
bin	0.00080500000000000016	0
bin	0.00081000000000000017	0
bin	0.00081500000000000019	0
bin	0.0008200000000000002	0
bin	0.00082500000000000021	0
bin	0.00083000000000000023	0
bin	0.00083500000000000024	1
bin	0.00084000000000000025	0
bin	0.00084500000000000026	0
bin	0.00085000000000000028	0
bin	0.00085500000000000029	0
bin	0.0008600000000000003	0
bin	0.00086500000000000021	0
bin	0.00087000000000000022	0
bin	0.00087500000000000024	0
bin	0.00088000000000000025	0
bin	0.00088500000000000026	0
bin	0.00089000000000000017	0
bin	0.00089500000000000018	0
scalar BgpNetwork.A1.lo[0].lo rcvdPkFromHl:vector(packetBytes):count 0
scalar BgpNetwork.A1.lo[0].lo rcvdPkFromHl:vector(packetBytes):sum 0
scalar BgpNetwork.A1.lo[0].lo rcvdPkFromHl:vector(packetBytes):sumweights 0
scalar BgpNetwork.A1.lo[0].lo rcvdPkFromHl:vector(packetBytes):mean -nan
scalar BgpNetwork.A1.lo[0].lo rcvdPkFromHl:vector(packetBytes):stddev nan
scalar BgpNetwork.A1.lo[0].lo rcvdPkFromHl:vector(packetBytes):min inf
scalar BgpNetwork.A1.lo[0].lo rcvdPkFromHl:vector(packetBytes):max -inf
scalar BgpNetwork.A1.lo[0].lo rcvdPkFromHl:vector(packetBytes):starttime nan
scalar BgpNetwork.A1.lo[0].lo rcvdPkFromHl:vector(packetBytes):endtime nan
scalar BgpNetwork.A1.lo[0].lo passedUpPk:vector(packetBytes):count 0
scalar BgpNetwork.A1.lo[0].lo passedUpPk:vector(packetBytes):sum 0
scalar BgpNetwork.A1.lo[0].lo passedUpPk:vector(packetBytes):sumweights 0
scalar BgpNetwork.A1.lo[0].lo passedUpPk:vector(packetBytes):mean -nan
scalar BgpNetwork.A1.lo[0].lo passedUpPk:vector(packetBytes):stddev nan
scalar BgpNetwork.A1.lo[0].lo passedUpPk:vector(packetBytes):min inf
scalar BgpNetwork.A1.lo[0].lo passedUpPk:vector(packetBytes):max -inf
scalar BgpNetwork.A1.lo[0].lo passedUpPk:vector(packetBytes):starttime nan
scalar BgpNetwork.A1.lo[0].lo passedUpPk:vector(packetBytes):endtime nan
scalar BgpNetwork.A1.lo[0] packetDropInterfaceDown:vector(packetBytes):count 0
scalar BgpNetwork.A1.lo[0] packetDropInterfaceDown:vector(packetBytes):sum 0
scalar BgpNetwork.A1.lo[0] packetDropInterfaceDown:vector(packetBytes):sumweights 0
scalar BgpNetwork.A1.lo[0] packetDropInterfaceDown:vector(packetBytes):mean -nan
scalar BgpNetwork.A1.lo[0] packetDropInterfaceDown:vector(packetBytes):stddev nan
scalar BgpNetwork.A1.lo[0] packetDropInterfaceDown:vector(packetBytes):min inf
scalar BgpNetwork.A1.lo[0] packetDropInterfaceDown:vector(packetBytes):max -inf
scalar BgpNetwork.A1.lo[0] packetDropInterfaceDown:vector(packetBytes):starttime nan
scalar BgpNetwork.A1.lo[0] packetDropInterfaceDown:vector(packetBytes):endtime nan
scalar BgpNetwork.A1.lo[0] packetDropNoCarrier:vector(packetBytes):count 0
scalar BgpNetwork.A1.lo[0] packetDropNoCarrier:vector(packetBytes):sum 0
scalar BgpNetwork.A1.lo[0] packetDropNoCarrier:vector(packetBytes):sumweights 0
scalar BgpNetwork.A1.lo[0] packetDropNoCarrier:vector(packetBytes):mean -nan
scalar BgpNetwork.A1.lo[0] packetDropNoCarrier:vector(packetBytes):stddev nan
scalar BgpNetwork.A1.lo[0] packetDropNoCarrier:vector(packetBytes):min inf
scalar BgpNetwork.A1.lo[0] packetDropNoCarrier:vector(packetBytes):max -inf
scalar BgpNetwork.A1.lo[0] packetDropNoCarrier:vector(packetBytes):starttime nan
scalar BgpNetwork.A1.lo[0] packetDropNoCarrier:vector(packetBytes):endtime nan
scalar BgpNetwork.A1.ppp[0].queue queueLength:vector:count 0
scalar BgpNetwork.A1.ppp[0].queue queueLength:vector:sum 0
scalar BgpNetwork.A1.ppp[0].queue queueLength:vector:sumweights 0
scalar BgpNetwork.A1.ppp[0].queue queueLength:vector:mean -nan
scalar BgpNetwork.A1.ppp[0].queue queueLength:vector:stddev nan
scalar BgpNetwork.A1.ppp[0].queue queueLength:vector:min inf
scalar BgpNetwork.A1.ppp[0].queue queueLength:vector:max -inf
scalar BgpNetwork.A1.ppp[0].queue queueLength:vector:starttime nan
scalar BgpNetwork.A1.ppp[0].queue queueLength:vector:endtime nan
scalar BgpNetwork.A1.ppp[0].queue queueBitLength:vector:count 0
scalar BgpNetwork.A1.ppp[0].queue queueBitLength:vector:sum 0
scalar BgpNetwork.A1.ppp[0].queue queueBitLength:vector:sumweights 0
scalar BgpNetwork.A1.ppp[0].queue queueBitLength:vector:mean -nan
scalar BgpNetwork.A1.ppp[0].queue queueBitLength:vector:stddev nan
scalar BgpNetwork.A1.ppp[0].queue queueBitLength:vector:min inf
scalar BgpNetwork.A1.ppp[0].queue queueBitLength:vector:max -inf
scalar BgpNetwork.A1.ppp[0].queue queueBitLength:vector:starttime nan
scalar BgpNetwork.A1.ppp[0].queue queueBitLength:vector:endtime nan
scalar BgpNetwork.A1.ppp[0].queue queueingTime:vector:count 0
scalar BgpNetwork.A1.ppp[0].queue queueingTime:vector:sum 0
scalar BgpNetwork.A1.ppp[0].queue queueingTime:vector:sumweights 0
scalar BgpNetwork.A1.ppp[0].queue queueingTime:vector:mean -nan
scalar BgpNetwork.A1.ppp[0].queue queueingTime:vector:stddev nan
scalar BgpNetwork.A1.ppp[0].queue queueingTime:vector:min inf
scalar BgpNetwork.A1.ppp[0].queue queueingTime:vector:max -inf
scalar BgpNetwork.A1.ppp[0].queue queueingTime:vector:starttime nan
scalar BgpNetwork.A1.ppp[0].queue queueingTime:vector:endtime nan
scalar BgpNetwork.A1.ppp[0].queue incomingPacketLengths:vector:count 0
scalar BgpNetwork.A1.ppp[0].queue incomingPacketLengths:vector:sum 0
scalar BgpNetwork.A1.ppp[0].queue incomingPacketLengths:vector:sumweights 0
scalar BgpNetwork.A1.ppp[0].queue incomingPacketLengths:vector:mean -nan
scalar BgpNetwork.A1.ppp[0].queue incomingPacketLengths:vector:stddev nan
scalar BgpNetwork.A1.ppp[0].queue incomingPacketLengths:vector:min inf
scalar BgpNetwork.A1.ppp[0].queue incomingPacketLengths:vector:max -inf
scalar BgpNetwork.A1.ppp[0].queue incomingPacketLengths:vector:starttime nan
scalar BgpNetwork.A1.ppp[0].queue incomingPacketLengths:vector:endtime nan
scalar BgpNetwork.A1.ppp[0].queue incomingDataRate:vector:count 0
scalar BgpNetwork.A1.ppp[0].queue incomingDataRate:vector:sum 0
scalar BgpNetwork.A1.ppp[0].queue incomingDataRate:vector:sumweights 0
scalar BgpNetwork.A1.ppp[0].queue incomingDataRate:vector:mean -nan
scalar BgpNetwork.A1.ppp[0].queue incomingDataRate:vector:stddev nan
scalar BgpNetwork.A1.ppp[0].queue incomingDataRate:vector:min inf
scalar BgpNetwork.A1.ppp[0].queue incomingDataRate:vector:max -inf
scalar BgpNetwork.A1.ppp[0].queue incomingDataRate:vector:starttime nan
scalar BgpNetwork.A1.ppp[0].queue incomingDataRate:vector:endtime nan
scalar BgpNetwork.A1.ppp[0].queue outgoingPacketLengths:vector:count 0
scalar BgpNetwork.A1.ppp[0].queue outgoingPacketLengths:vector:sum 0
scalar BgpNetwork.A1.ppp[0].queue outgoingPacketLengths:vector:sumweights 0
scalar BgpNetwork.A1.ppp[0].queue outgoingPacketLengths:vector:mean -nan
scalar BgpNetwork.A1.ppp[0].queue outgoingPacketLengths:vector:stddev nan
scalar BgpNetwork.A1.ppp[0].queue outgoingPacketLengths:vector:min inf
scalar BgpNetwork.A1.ppp[0].queue outgoingPacketLengths:vector:max -inf
scalar BgpNetwork.A1.ppp[0].queue outgoingPacketLengths:vector:starttime nan
scalar BgpNetwork.A1.ppp[0].queue outgoingPacketLengths:vector:endtime nan
scalar BgpNetwork.A1.ppp[0].queue outgoingDataRate:vector:count 0
scalar BgpNetwork.A1.ppp[0].queue outgoingDataRate:vector:sum 0
scalar BgpNetwork.A1.ppp[0].queue outgoingDataRate:vector:sumweights 0
scalar BgpNetwork.A1.ppp[0].queue outgoingDataRate:vector:mean -nan
scalar BgpNetwork.A1.ppp[0].queue outgoingDataRate:vector:stddev nan
scalar BgpNetwork.A1.ppp[0].queue outgoingDataRate:vector:min inf
scalar BgpNetwork.A1.ppp[0].queue outgoingDataRate:vector:max -inf
scalar BgpNetwork.A1.ppp[0].queue outgoingDataRate:vector:starttime nan
scalar BgpNetwork.A1.ppp[0].queue outgoingDataRate:vector:endtime nan
scalar BgpNetwork.A1.ppp[0].queue droppedPacketLengthsQueueOverflow:vector:count 0
scalar BgpNetwork.A1.ppp[0].queue droppedPacketLengthsQueueOverflow:vector:sum 0
scalar BgpNetwork.A1.ppp[0].queue droppedPacketLengthsQueueOverflow:vector:sumweights 0
scalar BgpNetwork.A1.ppp[0].queue droppedPacketLengthsQueueOverflow:vector:mean -nan
scalar BgpNetwork.A1.ppp[0].queue droppedPacketLengthsQueueOverflow:vector:stddev nan
scalar BgpNetwork.A1.ppp[0].queue droppedPacketLengthsQueueOverflow:vector:min inf
scalar BgpNetwork.A1.ppp[0].queue droppedPacketLengthsQueueOverflow:vector:max -inf
scalar BgpNetwork.A1.ppp[0].queue droppedPacketLengthsQueueOverflow:vector:starttime nan
scalar BgpNetwork.A1.ppp[0].queue droppedPacketLengthsQueueOverflow:vector:endtime nan
scalar BgpNetwork.A1.ppp[0].queue flowQueueingTime:vector:count 0
scalar BgpNetwork.A1.ppp[0].queue flowQueueingTime:vector:sum 0
scalar BgpNetwork.A1.ppp[0].queue flowQueueingTime:vector:sumweights 0
scalar BgpNetwork.A1.ppp[0].queue flowQueueingTime:vector:mean -nan
scalar BgpNetwork.A1.ppp[0].queue flowQueueingTime:vector:stddev nan
scalar BgpNetwork.A1.ppp[0].queue flowQueueingTime:vector:min inf
scalar BgpNetwork.A1.ppp[0].queue flowQueueingTime:vector:max -inf
scalar BgpNetwork.A1.ppp[0].queue flowQueueingTime:vector:starttime nan
scalar BgpNetwork.A1.ppp[0].queue flowQueueingTime:vector:endtime nan
scalar BgpNetwork.A1.ppp[0].queue flowIncomingDataRate:vector:count 0
scalar BgpNetwork.A1.ppp[0].queue flowIncomingDataRate:vector:sum 0
scalar BgpNetwork.A1.ppp[0].queue flowIncomingDataRate:vector:sumweights 0
scalar BgpNetwork.A1.ppp[0].queue flowIncomingDataRate:vector:mean -nan
scalar BgpNetwork.A1.ppp[0].queue flowIncomingDataRate:vector:stddev nan
scalar BgpNetwork.A1.ppp[0].queue flowIncomingDataRate:vector:min inf
scalar BgpNetwork.A1.ppp[0].queue flowIncomingDataRate:vector:max -inf
scalar BgpNetwork.A1.ppp[0].queue flowIncomingDataRate:vector:starttime nan
scalar BgpNetwork.A1.ppp[0].queue flowIncomingDataRate:vector:endtime nan
scalar BgpNetwork.A1.ppp[0].queue flowOutgoingDataRate:vector:count 0
scalar BgpNetwork.A1.ppp[0].queue flowOutgoingDataRate:vector:sum 0
scalar BgpNetwork.A1.ppp[0].queue flowOutgoingDataRate:vector:sumweights 0
scalar BgpNetwork.A1.ppp[0].queue flowOutgoingDataRate:vector:mean -nan
scalar BgpNetwork.A1.ppp[0].queue flowOutgoingDataRate:vector:stddev nan
scalar BgpNetwork.A1.ppp[0].queue flowOutgoingDataRate:vector:min inf
scalar BgpNetwork.A1.ppp[0].queue flowOutgoingDataRate:vector:max -inf
scalar BgpNetwork.A1.ppp[0].queue flowOutgoingDataRate:vector:starttime nan
scalar BgpNetwork.A1.ppp[0].queue flowOutgoingDataRate:vector:endtime nan
scalar BgpNetwork.A1.ppp[0].ppp transmissionState:vector:count 0
scalar BgpNetwork.A1.ppp[0].ppp transmissionState:vector:sum 0
scalar BgpNetwork.A1.ppp[0].ppp transmissionState:vector:sumweights 0
scalar BgpNetwork.A1.ppp[0].ppp transmissionState:vector:mean -nan
scalar BgpNetwork.A1.ppp[0].ppp transmissionState:vector:stddev nan
scalar BgpNetwork.A1.ppp[0].ppp transmissionState:vector:min inf
scalar BgpNetwork.A1.ppp[0].ppp transmissionState:vector:max -inf
scalar BgpNetwork.A1.ppp[0].ppp transmissionState:vector:starttime nan
scalar BgpNetwork.A1.ppp[0].ppp transmissionState:vector:endtime nan
scalar BgpNetwork.A1.ppp[0].ppp txPk:vector(packetBytes):count 0
scalar BgpNetwork.A1.ppp[0].ppp txPk:vector(packetBytes):sum 0
scalar BgpNetwork.A1.ppp[0].ppp txPk:vector(packetBytes):sumweights 0
scalar BgpNetwork.A1.ppp[0].ppp txPk:vector(packetBytes):mean -nan
scalar BgpNetwork.A1.ppp[0].ppp txPk:vector(packetBytes):stddev nan
scalar BgpNetwork.A1.ppp[0].ppp txPk:vector(packetBytes):min inf
scalar BgpNetwork.A1.ppp[0].ppp txPk:vector(packetBytes):max -inf
scalar BgpNetwork.A1.ppp[0].ppp txPk:vector(packetBytes):starttime nan
scalar BgpNetwork.A1.ppp[0].ppp txPk:vector(packetBytes):endtime nan
scalar BgpNetwork.A1.ppp[0].ppp rxPkOk:vector(packetBytes):count 0
scalar BgpNetwork.A1.ppp[0].ppp rxPkOk:vector(packetBytes):sum 0
scalar BgpNetwork.A1.ppp[0].ppp rxPkOk:vector(packetBytes):sumweights 0
scalar BgpNetwork.A1.ppp[0].ppp rxPkOk:vector(packetBytes):mean -nan
scalar BgpNetwork.A1.ppp[0].ppp rxPkOk:vector(packetBytes):stddev nan
scalar BgpNetwork.A1.ppp[0].ppp rxPkOk:vector(packetBytes):min inf
scalar BgpNetwork.A1.ppp[0].ppp rxPkOk:vector(packetBytes):max -inf
scalar BgpNetwork.A1.ppp[0].ppp rxPkOk:vector(packetBytes):starttime nan
scalar BgpNetwork.A1.ppp[0].ppp rxPkOk:vector(packetBytes):endtime nan
scalar BgpNetwork.A1.ppp[0].ppp packetDropIncorrectlyReceived:vector(packetBytes):count 0
scalar BgpNetwork.A1.ppp[0].ppp packetDropIncorrectlyReceived:vector(packetBytes):sum 0
scalar BgpNetwork.A1.ppp[0].ppp packetDropIncorrectlyReceived:vector(packetBytes):sumweights 0
scalar BgpNetwork.A1.ppp[0].ppp packetDropIncorrectlyReceived:vector(packetBytes):mean -nan
scalar BgpNetwork.A1.ppp[0].ppp packetDropIncorrectlyReceived:vector(packetBytes):stddev nan
scalar BgpNetwork.A1.ppp[0].ppp packetDropIncorrectlyReceived:vector(packetBytes):min inf
scalar BgpNetwork.A1.ppp[0].ppp packetDropIncorrectlyReceived:vector(packetBytes):max -inf
scalar BgpNetwork.A1.ppp[0].ppp packetDropIncorrectlyReceived:vector(packetBytes):starttime nan
scalar BgpNetwork.A1.ppp[0].ppp packetDropIncorrectlyReceived:vector(packetBytes):endtime nan
scalar BgpNetwork.A1.ppp[0].ppp packetDropInterfaceDown:vector(packetBytes):count 0
scalar BgpNetwork.A1.ppp[0].ppp packetDropInterfaceDown:vector(packetBytes):sum 0
scalar BgpNetwork.A1.ppp[0].ppp packetDropInterfaceDown:vector(packetBytes):sumweights 0
scalar BgpNetwork.A1.ppp[0].ppp packetDropInterfaceDown:vector(packetBytes):mean -nan
scalar BgpNetwork.A1.ppp[0].ppp packetDropInterfaceDown:vector(packetBytes):stddev nan
scalar BgpNetwork.A1.ppp[0].ppp packetDropInterfaceDown:vector(packetBytes):min inf
scalar BgpNetwork.A1.ppp[0].ppp packetDropInterfaceDown:vector(packetBytes):max -inf
scalar BgpNetwork.A1.ppp[0].ppp packetDropInterfaceDown:vector(packetBytes):starttime nan
scalar BgpNetwork.A1.ppp[0].ppp packetDropInterfaceDown:vector(packetBytes):endtime nan
scalar BgpNetwork.A1.ppp[0].ppp rcvdPkFromHl:vector(packetBytes):count 0
scalar BgpNetwork.A1.ppp[0].ppp rcvdPkFromHl:vector(packetBytes):sum 0
scalar BgpNetwork.A1.ppp[0].ppp rcvdPkFromHl:vector(packetBytes):sumweights 0
scalar BgpNetwork.A1.ppp[0].ppp rcvdPkFromHl:vector(packetBytes):mean -nan
scalar BgpNetwork.A1.ppp[0].ppp rcvdPkFromHl:vector(packetBytes):stddev nan
scalar BgpNetwork.A1.ppp[0].ppp rcvdPkFromHl:vector(packetBytes):min inf
scalar BgpNetwork.A1.ppp[0].ppp rcvdPkFromHl:vector(packetBytes):max -inf
scalar BgpNetwork.A1.ppp[0].ppp rcvdPkFromHl:vector(packetBytes):starttime nan
scalar BgpNetwork.A1.ppp[0].ppp rcvdPkFromHl:vector(packetBytes):endtime nan
scalar BgpNetwork.A1.ppp[0].ppp passedUpPk:vector(packetBytes):count 0
scalar BgpNetwork.A1.ppp[0].ppp passedUpPk:vector(packetBytes):sum 0
scalar BgpNetwork.A1.ppp[0].ppp passedUpPk:vector(packetBytes):sumweights 0
scalar BgpNetwork.A1.ppp[0].ppp passedUpPk:vector(packetBytes):mean -nan
scalar BgpNetwork.A1.ppp[0].ppp passedUpPk:vector(packetBytes):stddev nan
scalar BgpNetwork.A1.ppp[0].ppp passedUpPk:vector(packetBytes):min inf
scalar BgpNetwork.A1.ppp[0].ppp passedUpPk:vector(packetBytes):max -inf
scalar BgpNetwork.A1.ppp[0].ppp passedUpPk:vector(packetBytes):starttime nan
scalar BgpNetwork.A1.ppp[0].ppp passedUpPk:vector(packetBytes):endtime nan
scalar BgpNetwork.A1.ppp[0] packetDropInterfaceDown:vector(packetBytes):count 0
scalar BgpNetwork.A1.ppp[0] packetDropInterfaceDown:vector(packetBytes):sum 0
scalar BgpNetwork.A1.ppp[0] packetDropInterfaceDown:vector(packetBytes):sumweights 0
scalar BgpNetwork.A1.ppp[0] packetDropInterfaceDown:vector(packetBytes):mean -nan
scalar BgpNetwork.A1.ppp[0] packetDropInterfaceDown:vector(packetBytes):stddev nan
scalar BgpNetwork.A1.ppp[0] packetDropInterfaceDown:vector(packetBytes):min inf
scalar BgpNetwork.A1.ppp[0] packetDropInterfaceDown:vector(packetBytes):max -inf
scalar BgpNetwork.A1.ppp[0] packetDropInterfaceDown:vector(packetBytes):starttime nan
scalar BgpNetwork.A1.ppp[0] packetDropInterfaceDown:vector(packetBytes):endtime nan
scalar BgpNetwork.A1.ppp[0] packetDropNoCarrier:vector(packetBytes):count 0
scalar BgpNetwork.A1.ppp[0] packetDropNoCarrier:vector(packetBytes):sum 0
scalar BgpNetwork.A1.ppp[0] packetDropNoCarrier:vector(packetBytes):sumweights 0
scalar BgpNetwork.A1.ppp[0] packetDropNoCarrier:vector(packetBytes):mean -nan
scalar BgpNetwork.A1.ppp[0] packetDropNoCarrier:vector(packetBytes):stddev nan
scalar BgpNetwork.A1.ppp[0] packetDropNoCarrier:vector(packetBytes):min inf
scalar BgpNetwork.A1.ppp[0] packetDropNoCarrier:vector(packetBytes):max -inf
scalar BgpNetwork.A1.ppp[0] packetDropNoCarrier:vector(packetBytes):starttime nan
scalar BgpNetwork.A1.ppp[0] packetDropNoCarrier:vector(packetBytes):endtime nan
scalar BgpNetwork.A1.ppp[1].queue queueLength:vector:count 0
scalar BgpNetwork.A1.ppp[1].queue queueLength:vector:sum 0
scalar BgpNetwork.A1.ppp[1].queue queueLength:vector:sumweights 0
scalar BgpNetwork.A1.ppp[1].queue queueLength:vector:mean -nan
scalar BgpNetwork.A1.ppp[1].queue queueLength:vector:stddev nan
scalar BgpNetwork.A1.ppp[1].queue queueLength:vector:min inf
scalar BgpNetwork.A1.ppp[1].queue queueLength:vector:max -inf
scalar BgpNetwork.A1.ppp[1].queue queueLength:vector:starttime nan
scalar BgpNetwork.A1.ppp[1].queue queueLength:vector:endtime nan
scalar BgpNetwork.A1.ppp[1].queue queueBitLength:vector:count 0
scalar BgpNetwork.A1.ppp[1].queue queueBitLength:vector:sum 0
scalar BgpNetwork.A1.ppp[1].queue queueBitLength:vector:sumweights 0
scalar BgpNetwork.A1.ppp[1].queue queueBitLength:vector:mean -nan
scalar BgpNetwork.A1.ppp[1].queue queueBitLength:vector:stddev nan
scalar BgpNetwork.A1.ppp[1].queue queueBitLength:vector:min inf
scalar BgpNetwork.A1.ppp[1].queue queueBitLength:vector:max -inf
scalar BgpNetwork.A1.ppp[1].queue queueBitLength:vector:starttime nan
scalar BgpNetwork.A1.ppp[1].queue queueBitLength:vector:endtime nan
scalar BgpNetwork.A1.ppp[1].queue queueingTime:vector:count 0
scalar BgpNetwork.A1.ppp[1].queue queueingTime:vector:sum 0
scalar BgpNetwork.A1.ppp[1].queue queueingTime:vector:sumweights 0
scalar BgpNetwork.A1.ppp[1].queue queueingTime:vector:mean -nan
scalar BgpNetwork.A1.ppp[1].queue queueingTime:vector:stddev nan
scalar BgpNetwork.A1.ppp[1].queue queueingTime:vector:min inf
scalar BgpNetwork.A1.ppp[1].queue queueingTime:vector:max -inf
scalar BgpNetwork.A1.ppp[1].queue queueingTime:vector:starttime nan
scalar BgpNetwork.A1.ppp[1].queue queueingTime:vector:endtime nan
scalar BgpNetwork.A1.ppp[1].queue incomingPacketLengths:vector:count 0
scalar BgpNetwork.A1.ppp[1].queue incomingPacketLengths:vector:sum 0
scalar BgpNetwork.A1.ppp[1].queue incomingPacketLengths:vector:sumweights 0
scalar BgpNetwork.A1.ppp[1].queue incomingPacketLengths:vector:mean -nan
scalar BgpNetwork.A1.ppp[1].queue incomingPacketLengths:vector:stddev nan
scalar BgpNetwork.A1.ppp[1].queue incomingPacketLengths:vector:min inf
scalar BgpNetwork.A1.ppp[1].queue incomingPacketLengths:vector:max -inf
scalar BgpNetwork.A1.ppp[1].queue incomingPacketLengths:vector:starttime nan
scalar BgpNetwork.A1.ppp[1].queue incomingPacketLengths:vector:endtime nan
scalar BgpNetwork.A1.ppp[1].queue incomingDataRate:vector:count 0
scalar BgpNetwork.A1.ppp[1].queue incomingDataRate:vector:sum 0
scalar BgpNetwork.A1.ppp[1].queue incomingDataRate:vector:sumweights 0
scalar BgpNetwork.A1.ppp[1].queue incomingDataRate:vector:mean -nan
scalar BgpNetwork.A1.ppp[1].queue incomingDataRate:vector:stddev nan
scalar BgpNetwork.A1.ppp[1].queue incomingDataRate:vector:min inf
scalar BgpNetwork.A1.ppp[1].queue incomingDataRate:vector:max -inf
scalar BgpNetwork.A1.ppp[1].queue incomingDataRate:vector:starttime nan
scalar BgpNetwork.A1.ppp[1].queue incomingDataRate:vector:endtime nan
scalar BgpNetwork.A1.ppp[1].queue outgoingPacketLengths:vector:count 0
scalar BgpNetwork.A1.ppp[1].queue outgoingPacketLengths:vector:sum 0
scalar BgpNetwork.A1.ppp[1].queue outgoingPacketLengths:vector:sumweights 0
scalar BgpNetwork.A1.ppp[1].queue outgoingPacketLengths:vector:mean -nan
scalar BgpNetwork.A1.ppp[1].queue outgoingPacketLengths:vector:stddev nan
scalar BgpNetwork.A1.ppp[1].queue outgoingPacketLengths:vector:min inf
scalar BgpNetwork.A1.ppp[1].queue outgoingPacketLengths:vector:max -inf
scalar BgpNetwork.A1.ppp[1].queue outgoingPacketLengths:vector:starttime nan
scalar BgpNetwork.A1.ppp[1].queue outgoingPacketLengths:vector:endtime nan
scalar BgpNetwork.A1.ppp[1].queue outgoingDataRate:vector:count 0
scalar BgpNetwork.A1.ppp[1].queue outgoingDataRate:vector:sum 0
scalar BgpNetwork.A1.ppp[1].queue outgoingDataRate:vector:sumweights 0
scalar BgpNetwork.A1.ppp[1].queue outgoingDataRate:vector:mean -nan
scalar BgpNetwork.A1.ppp[1].queue outgoingDataRate:vector:stddev nan
scalar BgpNetwork.A1.ppp[1].queue outgoingDataRate:vector:min inf
scalar BgpNetwork.A1.ppp[1].queue outgoingDataRate:vector:max -inf
scalar BgpNetwork.A1.ppp[1].queue outgoingDataRate:vector:starttime nan
scalar BgpNetwork.A1.ppp[1].queue outgoingDataRate:vector:endtime nan
scalar BgpNetwork.A1.ppp[1].queue droppedPacketLengthsQueueOverflow:vector:count 0
scalar BgpNetwork.A1.ppp[1].queue droppedPacketLengthsQueueOverflow:vector:sum 0
scalar BgpNetwork.A1.ppp[1].queue droppedPacketLengthsQueueOverflow:vector:sumweights 0
scalar BgpNetwork.A1.ppp[1].queue droppedPacketLengthsQueueOverflow:vector:mean -nan
scalar BgpNetwork.A1.ppp[1].queue droppedPacketLengthsQueueOverflow:vector:stddev nan
scalar BgpNetwork.A1.ppp[1].queue droppedPacketLengthsQueueOverflow:vector:min inf
scalar BgpNetwork.A1.ppp[1].queue droppedPacketLengthsQueueOverflow:vector:max -inf
scalar BgpNetwork.A1.ppp[1].queue droppedPacketLengthsQueueOverflow:vector:starttime nan
scalar BgpNetwork.A1.ppp[1].queue droppedPacketLengthsQueueOverflow:vector:endtime nan
scalar BgpNetwork.A1.ppp[1].queue flowQueueingTime:vector:count 0
scalar BgpNetwork.A1.ppp[1].queue flowQueueingTime:vector:sum 0
scalar BgpNetwork.A1.ppp[1].queue flowQueueingTime:vector:sumweights 0
scalar BgpNetwork.A1.ppp[1].queue flowQueueingTime:vector:mean -nan
scalar BgpNetwork.A1.ppp[1].queue flowQueueingTime:vector:stddev nan
scalar BgpNetwork.A1.ppp[1].queue flowQueueingTime:vector:min inf
scalar BgpNetwork.A1.ppp[1].queue flowQueueingTime:vector:max -inf
scalar BgpNetwork.A1.ppp[1].queue flowQueueingTime:vector:starttime nan
scalar BgpNetwork.A1.ppp[1].queue flowQueueingTime:vector:endtime nan
scalar BgpNetwork.A1.ppp[1].queue flowIncomingDataRate:vector:count 0
scalar BgpNetwork.A1.ppp[1].queue flowIncomingDataRate:vector:sum 0
scalar BgpNetwork.A1.ppp[1].queue flowIncomingDataRate:vector:sumweights 0
scalar BgpNetwork.A1.ppp[1].queue flowIncomingDataRate:vector:mean -nan
scalar BgpNetwork.A1.ppp[1].queue flowIncomingDataRate:vector:stddev nan
scalar BgpNetwork.A1.ppp[1].queue flowIncomingDataRate:vector:min inf
scalar BgpNetwork.A1.ppp[1].queue flowIncomingDataRate:vector:max -inf
scalar BgpNetwork.A1.ppp[1].queue flowIncomingDataRate:vector:starttime nan
scalar BgpNetwork.A1.ppp[1].queue flowIncomingDataRate:vector:endtime nan
scalar BgpNetwork.A1.ppp[1].queue flowOutgoingDataRate:vector:count 0
scalar BgpNetwork.A1.ppp[1].queue flowOutgoingDataRate:vector:sum 0
scalar BgpNetwork.A1.ppp[1].queue flowOutgoingDataRate:vector:sumweights 0
scalar BgpNetwork.A1.ppp[1].queue flowOutgoingDataRate:vector:mean -nan
scalar BgpNetwork.A1.ppp[1].queue flowOutgoingDataRate:vector:stddev nan
scalar BgpNetwork.A1.ppp[1].queue flowOutgoingDataRate:vector:min inf
scalar BgpNetwork.A1.ppp[1].queue flowOutgoingDataRate:vector:max -inf
scalar BgpNetwork.A1.ppp[1].queue flowOutgoingDataRate:vector:starttime nan
scalar BgpNetwork.A1.ppp[1].queue flowOutgoingDataRate:vector:endtime nan
scalar BgpNetwork.A1.ppp[1].ppp transmissionState:vector:count 0
scalar BgpNetwork.A1.ppp[1].ppp transmissionState:vector:sum 0
scalar BgpNetwork.A1.ppp[1].ppp transmissionState:vector:sumweights 0
scalar BgpNetwork.A1.ppp[1].ppp transmissionState:vector:mean -nan
scalar BgpNetwork.A1.ppp[1].ppp transmissionState:vector:stddev nan
scalar BgpNetwork.A1.ppp[1].ppp transmissionState:vector:min inf
scalar BgpNetwork.A1.ppp[1].ppp transmissionState:vector:max -inf
scalar BgpNetwork.A1.ppp[1].ppp transmissionState:vector:starttime nan
scalar BgpNetwork.A1.ppp[1].ppp transmissionState:vector:endtime nan
scalar BgpNetwork.A1.ppp[1].ppp txPk:vector(packetBytes):count 0
scalar BgpNetwork.A1.ppp[1].ppp txPk:vector(packetBytes):sum 0
scalar BgpNetwork.A1.ppp[1].ppp txPk:vector(packetBytes):sumweights 0
scalar BgpNetwork.A1.ppp[1].ppp txPk:vector(packetBytes):mean -nan
scalar BgpNetwork.A1.ppp[1].ppp txPk:vector(packetBytes):stddev nan
scalar BgpNetwork.A1.ppp[1].ppp txPk:vector(packetBytes):min inf
scalar BgpNetwork.A1.ppp[1].ppp txPk:vector(packetBytes):max -inf
scalar BgpNetwork.A1.ppp[1].ppp txPk:vector(packetBytes):starttime nan
scalar BgpNetwork.A1.ppp[1].ppp txPk:vector(packetBytes):endtime nan
scalar BgpNetwork.A1.ppp[1].ppp rxPkOk:vector(packetBytes):count 0
scalar BgpNetwork.A1.ppp[1].ppp rxPkOk:vector(packetBytes):sum 0
scalar BgpNetwork.A1.ppp[1].ppp rxPkOk:vector(packetBytes):sumweights 0
scalar BgpNetwork.A1.ppp[1].ppp rxPkOk:vector(packetBytes):mean -nan
scalar BgpNetwork.A1.ppp[1].ppp rxPkOk:vector(packetBytes):stddev nan
scalar BgpNetwork.A1.ppp[1].ppp rxPkOk:vector(packetBytes):min inf
scalar BgpNetwork.A1.ppp[1].ppp rxPkOk:vector(packetBytes):max -inf
scalar BgpNetwork.A1.ppp[1].ppp rxPkOk:vector(packetBytes):starttime nan
scalar BgpNetwork.A1.ppp[1].ppp rxPkOk:vector(packetBytes):endtime nan
scalar BgpNetwork.A1.ppp[1].ppp packetDropIncorrectlyReceived:vector(packetBytes):count 0
scalar BgpNetwork.A1.ppp[1].ppp packetDropIncorrectlyReceived:vector(packetBytes):sum 0
scalar BgpNetwork.A1.ppp[1].ppp packetDropIncorrectlyReceived:vector(packetBytes):sumweights 0
scalar BgpNetwork.A1.ppp[1].ppp packetDropIncorrectlyReceived:vector(packetBytes):mean -nan
scalar BgpNetwork.A1.ppp[1].ppp packetDropIncorrectlyReceived:vector(packetBytes):stddev nan
scalar BgpNetwork.A1.ppp[1].ppp packetDropIncorrectlyReceived:vector(packetBytes):min inf
scalar BgpNetwork.A1.ppp[1].ppp packetDropIncorrectlyReceived:vector(packetBytes):max -inf
scalar BgpNetwork.A1.ppp[1].ppp packetDropIncorrectlyReceived:vector(packetBytes):starttime nan
scalar BgpNetwork.A1.ppp[1].ppp packetDropIncorrectlyReceived:vector(packetBytes):endtime nan
scalar BgpNetwork.A1.ppp[1].ppp packetDropInterfaceDown:vector(packetBytes):count 0
scalar BgpNetwork.A1.ppp[1].ppp packetDropInterfaceDown:vector(packetBytes):sum 0
scalar BgpNetwork.A1.ppp[1].ppp packetDropInterfaceDown:vector(packetBytes):sumweights 0
scalar BgpNetwork.A1.ppp[1].ppp packetDropInterfaceDown:vector(packetBytes):mean -nan
scalar BgpNetwork.A1.ppp[1].ppp packetDropInterfaceDown:vector(packetBytes):stddev nan
scalar BgpNetwork.A1.ppp[1].ppp packetDropInterfaceDown:vector(packetBytes):min inf
scalar BgpNetwork.A1.ppp[1].ppp packetDropInterfaceDown:vector(packetBytes):max -inf
scalar BgpNetwork.A1.ppp[1].ppp packetDropInterfaceDown:vector(packetBytes):starttime nan
scalar BgpNetwork.A1.ppp[1].ppp packetDropInterfaceDown:vector(packetBytes):endtime nan
scalar BgpNetwork.A1.ppp[1].ppp rcvdPkFromHl:vector(packetBytes):count 0
scalar BgpNetwork.A1.ppp[1].ppp rcvdPkFromHl:vector(packetBytes):sum 0
scalar BgpNetwork.A1.ppp[1].ppp rcvdPkFromHl:vector(packetBytes):sumweights 0
scalar BgpNetwork.A1.ppp[1].ppp rcvdPkFromHl:vector(packetBytes):mean -nan
scalar BgpNetwork.A1.ppp[1].ppp rcvdPkFromHl:vector(packetBytes):stddev nan
scalar BgpNetwork.A1.ppp[1].ppp rcvdPkFromHl:vector(packetBytes):min inf
scalar BgpNetwork.A1.ppp[1].ppp rcvdPkFromHl:vector(packetBytes):max -inf
scalar BgpNetwork.A1.ppp[1].ppp rcvdPkFromHl:vector(packetBytes):starttime nan
scalar BgpNetwork.A1.ppp[1].ppp rcvdPkFromHl:vector(packetBytes):endtime nan
scalar BgpNetwork.A1.ppp[1].ppp passedUpPk:vector(packetBytes):count 0
scalar BgpNetwork.A1.ppp[1].ppp passedUpPk:vector(packetBytes):sum 0
scalar BgpNetwork.A1.ppp[1].ppp passedUpPk:vector(packetBytes):sumweights 0
scalar BgpNetwork.A1.ppp[1].ppp passedUpPk:vector(packetBytes):mean -nan
scalar BgpNetwork.A1.ppp[1].ppp passedUpPk:vector(packetBytes):stddev nan
scalar BgpNetwork.A1.ppp[1].ppp passedUpPk:vector(packetBytes):min inf
scalar BgpNetwork.A1.ppp[1].ppp passedUpPk:vector(packetBytes):max -inf
scalar BgpNetwork.A1.ppp[1].ppp passedUpPk:vector(packetBytes):starttime nan
scalar BgpNetwork.A1.ppp[1].ppp passedUpPk:vector(packetBytes):endtime nan
scalar BgpNetwork.A1.ppp[1] packetDropInterfaceDown:vector(packetBytes):count 0
scalar BgpNetwork.A1.ppp[1] packetDropInterfaceDown:vector(packetBytes):sum 0
scalar BgpNetwork.A1.ppp[1] packetDropInterfaceDown:vector(packetBytes):sumweights 0
scalar BgpNetwork.A1.ppp[1] packetDropInterfaceDown:vector(packetBytes):mean -nan
scalar BgpNetwork.A1.ppp[1] packetDropInterfaceDown:vector(packetBytes):stddev nan
scalar BgpNetwork.A1.ppp[1] packetDropInterfaceDown:vector(packetBytes):min inf
scalar BgpNetwork.A1.ppp[1] packetDropInterfaceDown:vector(packetBytes):max -inf
scalar BgpNetwork.A1.ppp[1] packetDropInterfaceDown:vector(packetBytes):starttime nan
scalar BgpNetwork.A1.ppp[1] packetDropInterfaceDown:vector(packetBytes):endtime nan
scalar BgpNetwork.A1.ppp[1] packetDropNoCarrier:vector(packetBytes):count 0
scalar BgpNetwork.A1.ppp[1] packetDropNoCarrier:vector(packetBytes):sum 0
scalar BgpNetwork.A1.ppp[1] packetDropNoCarrier:vector(packetBytes):sumweights 0
scalar BgpNetwork.A1.ppp[1] packetDropNoCarrier:vector(packetBytes):mean -nan
scalar BgpNetwork.A1.ppp[1] packetDropNoCarrier:vector(packetBytes):stddev nan
scalar BgpNetwork.A1.ppp[1] packetDropNoCarrier:vector(packetBytes):min inf
scalar BgpNetwork.A1.ppp[1] packetDropNoCarrier:vector(packetBytes):max -inf
scalar BgpNetwork.A1.ppp[1] packetDropNoCarrier:vector(packetBytes):starttime nan
scalar BgpNetwork.A1.ppp[1] packetDropNoCarrier:vector(packetBytes):endtime nan
scalar BgpNetwork.A1.ipv4.ip packetDropAddressResolutionFailed:vector(packetBytes):count 0
scalar BgpNetwork.A1.ipv4.ip packetDropAddressResolutionFailed:vector(packetBytes):sum 0
scalar BgpNetwork.A1.ipv4.ip packetDropAddressResolutionFailed:vector(packetBytes):sumweights 0
scalar BgpNetwork.A1.ipv4.ip packetDropAddressResolutionFailed:vector(packetBytes):mean -nan
scalar BgpNetwork.A1.ipv4.ip packetDropAddressResolutionFailed:vector(packetBytes):stddev nan
scalar BgpNetwork.A1.ipv4.ip packetDropAddressResolutionFailed:vector(packetBytes):min inf
scalar BgpNetwork.A1.ipv4.ip packetDropAddressResolutionFailed:vector(packetBytes):max -inf
scalar BgpNetwork.A1.ipv4.ip packetDropAddressResolutionFailed:vector(packetBytes):starttime nan
scalar BgpNetwork.A1.ipv4.ip packetDropAddressResolutionFailed:vector(packetBytes):endtime nan
scalar BgpNetwork.A1.ipv4.ip packetDropHopLimitReached:vector(packetBytes):count 0
scalar BgpNetwork.A1.ipv4.ip packetDropHopLimitReached:vector(packetBytes):sum 0
scalar BgpNetwork.A1.ipv4.ip packetDropHopLimitReached:vector(packetBytes):sumweights 0
scalar BgpNetwork.A1.ipv4.ip packetDropHopLimitReached:vector(packetBytes):mean -nan
scalar BgpNetwork.A1.ipv4.ip packetDropHopLimitReached:vector(packetBytes):stddev nan
scalar BgpNetwork.A1.ipv4.ip packetDropHopLimitReached:vector(packetBytes):min inf
scalar BgpNetwork.A1.ipv4.ip packetDropHopLimitReached:vector(packetBytes):max -inf
scalar BgpNetwork.A1.ipv4.ip packetDropHopLimitReached:vector(packetBytes):starttime nan
scalar BgpNetwork.A1.ipv4.ip packetDropHopLimitReached:vector(packetBytes):endtime nan
scalar BgpNetwork.A1.ipv4.ip packetDropForwardingDisabled:vector(packetBytes):count 0
scalar BgpNetwork.A1.ipv4.ip packetDropForwardingDisabled:vector(packetBytes):sum 0
scalar BgpNetwork.A1.ipv4.ip packetDropForwardingDisabled:vector(packetBytes):sumweights 0
scalar BgpNetwork.A1.ipv4.ip packetDropForwardingDisabled:vector(packetBytes):mean -nan
scalar BgpNetwork.A1.ipv4.ip packetDropForwardingDisabled:vector(packetBytes):stddev nan
scalar BgpNetwork.A1.ipv4.ip packetDropForwardingDisabled:vector(packetBytes):min inf
scalar BgpNetwork.A1.ipv4.ip packetDropForwardingDisabled:vector(packetBytes):max -inf
scalar BgpNetwork.A1.ipv4.ip packetDropForwardingDisabled:vector(packetBytes):starttime nan
scalar BgpNetwork.A1.ipv4.ip packetDropForwardingDisabled:vector(packetBytes):endtime nan
scalar BgpNetwork.A1.ipv4.ip packetDropLifetimeExpired:vector(packetBytes):count 0
scalar BgpNetwork.A1.ipv4.ip packetDropLifetimeExpired:vector(packetBytes):sum 0
scalar BgpNetwork.A1.ipv4.ip packetDropLifetimeExpired:vector(packetBytes):sumweights 0
scalar BgpNetwork.A1.ipv4.ip packetDropLifetimeExpired:vector(packetBytes):mean -nan
scalar BgpNetwork.A1.ipv4.ip packetDropLifetimeExpired:vector(packetBytes):stddev nan
scalar BgpNetwork.A1.ipv4.ip packetDropLifetimeExpired:vector(packetBytes):min inf
scalar BgpNetwork.A1.ipv4.ip packetDropLifetimeExpired:vector(packetBytes):max -inf
scalar BgpNetwork.A1.ipv4.ip packetDropLifetimeExpired:vector(packetBytes):starttime nan
scalar BgpNetwork.A1.ipv4.ip packetDropLifetimeExpired:vector(packetBytes):endtime nan
scalar BgpNetwork.A1.ipv4.ip packetDropNoInterfaceFound:vector(packetBytes):count 0
scalar BgpNetwork.A1.ipv4.ip packetDropNoInterfaceFound:vector(packetBytes):sum 0
scalar BgpNetwork.A1.ipv4.ip packetDropNoInterfaceFound:vector(packetBytes):sumweights 0
scalar BgpNetwork.A1.ipv4.ip packetDropNoInterfaceFound:vector(packetBytes):mean -nan
scalar BgpNetwork.A1.ipv4.ip packetDropNoInterfaceFound:vector(packetBytes):stddev nan
scalar BgpNetwork.A1.ipv4.ip packetDropNoInterfaceFound:vector(packetBytes):min inf
scalar BgpNetwork.A1.ipv4.ip packetDropNoInterfaceFound:vector(packetBytes):max -inf
scalar BgpNetwork.A1.ipv4.ip packetDropNoInterfaceFound:vector(packetBytes):starttime nan
scalar BgpNetwork.A1.ipv4.ip packetDropNoInterfaceFound:vector(packetBytes):endtime nan
scalar BgpNetwork.A1.ipv4.ip packetDropNoRouteFound:vector(packetBytes):count 0
scalar BgpNetwork.A1.ipv4.ip packetDropNoRouteFound:vector(packetBytes):sum 0
scalar BgpNetwork.A1.ipv4.ip packetDropNoRouteFound:vector(packetBytes):sumweights 0
scalar BgpNetwork.A1.ipv4.ip packetDropNoRouteFound:vector(packetBytes):mean -nan
scalar BgpNetwork.A1.ipv4.ip packetDropNoRouteFound:vector(packetBytes):stddev nan
scalar BgpNetwork.A1.ipv4.ip packetDropNoRouteFound:vector(packetBytes):min inf
scalar BgpNetwork.A1.ipv4.ip packetDropNoRouteFound:vector(packetBytes):max -inf
scalar BgpNetwork.A1.ipv4.ip packetDropNoRouteFound:vector(packetBytes):starttime nan
scalar BgpNetwork.A1.ipv4.ip packetDropNoRouteFound:vector(packetBytes):endtime nan
scalar BgpNetwork.A1.ipv4.ip packetDropUndefined:vector(packetBytes):count 0
scalar BgpNetwork.A1.ipv4.ip packetDropUndefined:vector(packetBytes):sum 0
scalar BgpNetwork.A1.ipv4.ip packetDropUndefined:vector(packetBytes):sumweights 0
scalar BgpNetwork.A1.ipv4.ip packetDropUndefined:vector(packetBytes):mean -nan
scalar BgpNetwork.A1.ipv4.ip packetDropUndefined:vector(packetBytes):stddev nan
scalar BgpNetwork.A1.ipv4.ip packetDropUndefined:vector(packetBytes):min inf
scalar BgpNetwork.A1.ipv4.ip packetDropUndefined:vector(packetBytes):max -inf
scalar BgpNetwork.A1.ipv4.ip packetDropUndefined:vector(packetBytes):starttime nan
scalar BgpNetwork.A1.ipv4.ip packetDropUndefined:vector(packetBytes):endtime nan
scalar BgpNetwork.A1.ipv4.arp arpRequestSent:vector(packetBytes):count 0
scalar BgpNetwork.A1.ipv4.arp arpRequestSent:vector(packetBytes):sum 0
scalar BgpNetwork.A1.ipv4.arp arpRequestSent:vector(packetBytes):sumweights 0
scalar BgpNetwork.A1.ipv4.arp arpRequestSent:vector(packetBytes):mean -nan
scalar BgpNetwork.A1.ipv4.arp arpRequestSent:vector(packetBytes):stddev nan
scalar BgpNetwork.A1.ipv4.arp arpRequestSent:vector(packetBytes):min inf
scalar BgpNetwork.A1.ipv4.arp arpRequestSent:vector(packetBytes):max -inf
scalar BgpNetwork.A1.ipv4.arp arpRequestSent:vector(packetBytes):starttime nan
scalar BgpNetwork.A1.ipv4.arp arpRequestSent:vector(packetBytes):endtime nan
scalar BgpNetwork.A1.ipv4.arp arpReplySent:vector(packetBytes):count 0
scalar BgpNetwork.A1.ipv4.arp arpReplySent:vector(packetBytes):sum 0
scalar BgpNetwork.A1.ipv4.arp arpReplySent:vector(packetBytes):sumweights 0
scalar BgpNetwork.A1.ipv4.arp arpReplySent:vector(packetBytes):mean -nan
scalar BgpNetwork.A1.ipv4.arp arpReplySent:vector(packetBytes):stddev nan
scalar BgpNetwork.A1.ipv4.arp arpReplySent:vector(packetBytes):min inf
scalar BgpNetwork.A1.ipv4.arp arpReplySent:vector(packetBytes):max -inf
scalar BgpNetwork.A1.ipv4.arp arpReplySent:vector(packetBytes):starttime nan
scalar BgpNetwork.A1.ipv4.arp arpReplySent:vector(packetBytes):endtime nan
scalar BgpNetwork.A2.lo[0].lo rcvdPkFromHl:vector(packetBytes):count 0
scalar BgpNetwork.A2.lo[0].lo rcvdPkFromHl:vector(packetBytes):sum 0
scalar BgpNetwork.A2.lo[0].lo rcvdPkFromHl:vector(packetBytes):sumweights 0
scalar BgpNetwork.A2.lo[0].lo rcvdPkFromHl:vector(packetBytes):mean -nan
scalar BgpNetwork.A2.lo[0].lo rcvdPkFromHl:vector(packetBytes):stddev nan
scalar BgpNetwork.A2.lo[0].lo rcvdPkFromHl:vector(packetBytes):min inf
scalar BgpNetwork.A2.lo[0].lo rcvdPkFromHl:vector(packetBytes):max -inf
scalar BgpNetwork.A2.lo[0].lo rcvdPkFromHl:vector(packetBytes):starttime nan
scalar BgpNetwork.A2.lo[0].lo rcvdPkFromHl:vector(packetBytes):endtime nan
scalar BgpNetwork.A2.lo[0].lo passedUpPk:vector(packetBytes):count 0
scalar BgpNetwork.A2.lo[0].lo passedUpPk:vector(packetBytes):sum 0
scalar BgpNetwork.A2.lo[0].lo passedUpPk:vector(packetBytes):sumweights 0
scalar BgpNetwork.A2.lo[0].lo passedUpPk:vector(packetBytes):mean -nan
scalar BgpNetwork.A2.lo[0].lo passedUpPk:vector(packetBytes):stddev nan
scalar BgpNetwork.A2.lo[0].lo passedUpPk:vector(packetBytes):min inf
scalar BgpNetwork.A2.lo[0].lo passedUpPk:vector(packetBytes):max -inf
scalar BgpNetwork.A2.lo[0].lo passedUpPk:vector(packetBytes):starttime nan
scalar BgpNetwork.A2.lo[0].lo passedUpPk:vector(packetBytes):endtime nan
scalar BgpNetwork.A2.lo[0] packetDropInterfaceDown:vector(packetBytes):count 0
scalar BgpNetwork.A2.lo[0] packetDropInterfaceDown:vector(packetBytes):sum 0
scalar BgpNetwork.A2.lo[0] packetDropInterfaceDown:vector(packetBytes):sumweights 0
scalar BgpNetwork.A2.lo[0] packetDropInterfaceDown:vector(packetBytes):mean -nan
scalar BgpNetwork.A2.lo[0] packetDropInterfaceDown:vector(packetBytes):stddev nan
scalar BgpNetwork.A2.lo[0] packetDropInterfaceDown:vector(packetBytes):min inf
scalar BgpNetwork.A2.lo[0] packetDropInterfaceDown:vector(packetBytes):max -inf
scalar BgpNetwork.A2.lo[0] packetDropInterfaceDown:vector(packetBytes):starttime nan
scalar BgpNetwork.A2.lo[0] packetDropInterfaceDown:vector(packetBytes):endtime nan
scalar BgpNetwork.A2.lo[0] packetDropNoCarrier:vector(packetBytes):count 0
scalar BgpNetwork.A2.lo[0] packetDropNoCarrier:vector(packetBytes):sum 0
scalar BgpNetwork.A2.lo[0] packetDropNoCarrier:vector(packetBytes):sumweights 0
scalar BgpNetwork.A2.lo[0] packetDropNoCarrier:vector(packetBytes):mean -nan
scalar BgpNetwork.A2.lo[0] packetDropNoCarrier:vector(packetBytes):stddev nan
scalar BgpNetwork.A2.lo[0] packetDropNoCarrier:vector(packetBytes):min inf
scalar BgpNetwork.A2.lo[0] packetDropNoCarrier:vector(packetBytes):max -inf
scalar BgpNetwork.A2.lo[0] packetDropNoCarrier:vector(packetBytes):starttime nan
scalar BgpNetwork.A2.lo[0] packetDropNoCarrier:vector(packetBytes):endtime nan
scalar BgpNetwork.A2.ppp[0].queue queueLength:vector:count 0
scalar BgpNetwork.A2.ppp[0].queue queueLength:vector:sum 0
scalar BgpNetwork.A2.ppp[0].queue queueLength:vector:sumweights 0
scalar BgpNetwork.A2.ppp[0].queue queueLength:vector:mean -nan
scalar BgpNetwork.A2.ppp[0].queue queueLength:vector:stddev nan
scalar BgpNetwork.A2.ppp[0].queue queueLength:vector:min inf
scalar BgpNetwork.A2.ppp[0].queue queueLength:vector:max -inf
scalar BgpNetwork.A2.ppp[0].queue queueLength:vector:starttime nan
scalar BgpNetwork.A2.ppp[0].queue queueLength:vector:endtime nan
scalar BgpNetwork.A2.ppp[0].queue queueBitLength:vector:count 0
scalar BgpNetwork.A2.ppp[0].queue queueBitLength:vector:sum 0
scalar BgpNetwork.A2.ppp[0].queue queueBitLength:vector:sumweights 0
scalar BgpNetwork.A2.ppp[0].queue queueBitLength:vector:mean -nan
scalar BgpNetwork.A2.ppp[0].queue queueBitLength:vector:stddev nan
scalar BgpNetwork.A2.ppp[0].queue queueBitLength:vector:min inf
scalar BgpNetwork.A2.ppp[0].queue queueBitLength:vector:max -inf
scalar BgpNetwork.A2.ppp[0].queue queueBitLength:vector:starttime nan
scalar BgpNetwork.A2.ppp[0].queue queueBitLength:vector:endtime nan
scalar BgpNetwork.A2.ppp[0].queue queueingTime:vector:count 0
scalar BgpNetwork.A2.ppp[0].queue queueingTime:vector:sum 0
scalar BgpNetwork.A2.ppp[0].queue queueingTime:vector:sumweights 0
scalar BgpNetwork.A2.ppp[0].queue queueingTime:vector:mean -nan
scalar BgpNetwork.A2.ppp[0].queue queueingTime:vector:stddev nan
scalar BgpNetwork.A2.ppp[0].queue queueingTime:vector:min inf
scalar BgpNetwork.A2.ppp[0].queue queueingTime:vector:max -inf
scalar BgpNetwork.A2.ppp[0].queue queueingTime:vector:starttime nan
scalar BgpNetwork.A2.ppp[0].queue queueingTime:vector:endtime nan
scalar BgpNetwork.A2.ppp[0].queue incomingPacketLengths:vector:count 0
scalar BgpNetwork.A2.ppp[0].queue incomingPacketLengths:vector:sum 0
scalar BgpNetwork.A2.ppp[0].queue incomingPacketLengths:vector:sumweights 0
scalar BgpNetwork.A2.ppp[0].queue incomingPacketLengths:vector:mean -nan
scalar BgpNetwork.A2.ppp[0].queue incomingPacketLengths:vector:stddev nan
scalar BgpNetwork.A2.ppp[0].queue incomingPacketLengths:vector:min inf
scalar BgpNetwork.A2.ppp[0].queue incomingPacketLengths:vector:max -inf
scalar BgpNetwork.A2.ppp[0].queue incomingPacketLengths:vector:starttime nan
scalar BgpNetwork.A2.ppp[0].queue incomingPacketLengths:vector:endtime nan
scalar BgpNetwork.A2.ppp[0].queue incomingDataRate:vector:count 0
scalar BgpNetwork.A2.ppp[0].queue incomingDataRate:vector:sum 0
scalar BgpNetwork.A2.ppp[0].queue incomingDataRate:vector:sumweights 0
scalar BgpNetwork.A2.ppp[0].queue incomingDataRate:vector:mean -nan
scalar BgpNetwork.A2.ppp[0].queue incomingDataRate:vector:stddev nan
scalar BgpNetwork.A2.ppp[0].queue incomingDataRate:vector:min inf
scalar BgpNetwork.A2.ppp[0].queue incomingDataRate:vector:max -inf
scalar BgpNetwork.A2.ppp[0].queue incomingDataRate:vector:starttime nan
scalar BgpNetwork.A2.ppp[0].queue incomingDataRate:vector:endtime nan
scalar BgpNetwork.A2.ppp[0].queue outgoingPacketLengths:vector:count 0
scalar BgpNetwork.A2.ppp[0].queue outgoingPacketLengths:vector:sum 0
scalar BgpNetwork.A2.ppp[0].queue outgoingPacketLengths:vector:sumweights 0
scalar BgpNetwork.A2.ppp[0].queue outgoingPacketLengths:vector:mean -nan
scalar BgpNetwork.A2.ppp[0].queue outgoingPacketLengths:vector:stddev nan
scalar BgpNetwork.A2.ppp[0].queue outgoingPacketLengths:vector:min inf
scalar BgpNetwork.A2.ppp[0].queue outgoingPacketLengths:vector:max -inf
scalar BgpNetwork.A2.ppp[0].queue outgoingPacketLengths:vector:starttime nan
scalar BgpNetwork.A2.ppp[0].queue outgoingPacketLengths:vector:endtime nan
scalar BgpNetwork.A2.ppp[0].queue outgoingDataRate:vector:count 0
scalar BgpNetwork.A2.ppp[0].queue outgoingDataRate:vector:sum 0
scalar BgpNetwork.A2.ppp[0].queue outgoingDataRate:vector:sumweights 0
scalar BgpNetwork.A2.ppp[0].queue outgoingDataRate:vector:mean -nan
scalar BgpNetwork.A2.ppp[0].queue outgoingDataRate:vector:stddev nan
scalar BgpNetwork.A2.ppp[0].queue outgoingDataRate:vector:min inf
scalar BgpNetwork.A2.ppp[0].queue outgoingDataRate:vector:max -inf
scalar BgpNetwork.A2.ppp[0].queue outgoingDataRate:vector:starttime nan
scalar BgpNetwork.A2.ppp[0].queue outgoingDataRate:vector:endtime nan
scalar BgpNetwork.A2.ppp[0].queue droppedPacketLengthsQueueOverflow:vector:count 0
scalar BgpNetwork.A2.ppp[0].queue droppedPacketLengthsQueueOverflow:vector:sum 0
scalar BgpNetwork.A2.ppp[0].queue droppedPacketLengthsQueueOverflow:vector:sumweights 0
scalar BgpNetwork.A2.ppp[0].queue droppedPacketLengthsQueueOverflow:vector:mean -nan
scalar BgpNetwork.A2.ppp[0].queue droppedPacketLengthsQueueOverflow:vector:stddev nan
scalar BgpNetwork.A2.ppp[0].queue droppedPacketLengthsQueueOverflow:vector:min inf
scalar BgpNetwork.A2.ppp[0].queue droppedPacketLengthsQueueOverflow:vector:max -inf
scalar BgpNetwork.A2.ppp[0].queue droppedPacketLengthsQueueOverflow:vector:starttime nan
scalar BgpNetwork.A2.ppp[0].queue droppedPacketLengthsQueueOverflow:vector:endtime nan
scalar BgpNetwork.A2.ppp[0].queue flowQueueingTime:vector:count 0
scalar BgpNetwork.A2.ppp[0].queue flowQueueingTime:vector:sum 0
scalar BgpNetwork.A2.ppp[0].queue flowQueueingTime:vector:sumweights 0
scalar BgpNetwork.A2.ppp[0].queue flowQueueingTime:vector:mean -nan
scalar BgpNetwork.A2.ppp[0].queue flowQueueingTime:vector:stddev nan
scalar BgpNetwork.A2.ppp[0].queue flowQueueingTime:vector:min inf
scalar BgpNetwork.A2.ppp[0].queue flowQueueingTime:vector:max -inf
scalar BgpNetwork.A2.ppp[0].queue flowQueueingTime:vector:starttime nan
scalar BgpNetwork.A2.ppp[0].queue flowQueueingTime:vector:endtime nan
scalar BgpNetwork.A2.ppp[0].queue flowIncomingDataRate:vector:count 0
scalar BgpNetwork.A2.ppp[0].queue flowIncomingDataRate:vector:sum 0
scalar BgpNetwork.A2.ppp[0].queue flowIncomingDataRate:vector:sumweights 0
scalar BgpNetwork.A2.ppp[0].queue flowIncomingDataRate:vector:mean -nan
scalar BgpNetwork.A2.ppp[0].queue flowIncomingDataRate:vector:stddev nan
scalar BgpNetwork.A2.ppp[0].queue flowIncomingDataRate:vector:min inf
scalar BgpNetwork.A2.ppp[0].queue flowIncomingDataRate:vector:max -inf
scalar BgpNetwork.A2.ppp[0].queue flowIncomingDataRate:vector:starttime nan
scalar BgpNetwork.A2.ppp[0].queue flowIncomingDataRate:vector:endtime nan
scalar BgpNetwork.A2.ppp[0].queue flowOutgoingDataRate:vector:count 0
scalar BgpNetwork.A2.ppp[0].queue flowOutgoingDataRate:vector:sum 0
scalar BgpNetwork.A2.ppp[0].queue flowOutgoingDataRate:vector:sumweights 0
scalar BgpNetwork.A2.ppp[0].queue flowOutgoingDataRate:vector:mean -nan
scalar BgpNetwork.A2.ppp[0].queue flowOutgoingDataRate:vector:stddev nan
scalar BgpNetwork.A2.ppp[0].queue flowOutgoingDataRate:vector:min inf
scalar BgpNetwork.A2.ppp[0].queue flowOutgoingDataRate:vector:max -inf
scalar BgpNetwork.A2.ppp[0].queue flowOutgoingDataRate:vector:starttime nan
scalar BgpNetwork.A2.ppp[0].queue flowOutgoingDataRate:vector:endtime nan
scalar BgpNetwork.A2.ppp[0].ppp transmissionState:vector:count 0
scalar BgpNetwork.A2.ppp[0].ppp transmissionState:vector:sum 0
scalar BgpNetwork.A2.ppp[0].ppp transmissionState:vector:sumweights 0
scalar BgpNetwork.A2.ppp[0].ppp transmissionState:vector:mean -nan
scalar BgpNetwork.A2.ppp[0].ppp transmissionState:vector:stddev nan
scalar BgpNetwork.A2.ppp[0].ppp transmissionState:vector:min inf
scalar BgpNetwork.A2.ppp[0].ppp transmissionState:vector:max -inf
scalar BgpNetwork.A2.ppp[0].ppp transmissionState:vector:starttime nan
scalar BgpNetwork.A2.ppp[0].ppp transmissionState:vector:endtime nan
scalar BgpNetwork.A2.ppp[0].ppp txPk:vector(packetBytes):count 0
scalar BgpNetwork.A2.ppp[0].ppp txPk:vector(packetBytes):sum 0
scalar BgpNetwork.A2.ppp[0].ppp txPk:vector(packetBytes):sumweights 0
scalar BgpNetwork.A2.ppp[0].ppp txPk:vector(packetBytes):mean -nan
scalar BgpNetwork.A2.ppp[0].ppp txPk:vector(packetBytes):stddev nan
scalar BgpNetwork.A2.ppp[0].ppp txPk:vector(packetBytes):min inf
scalar BgpNetwork.A2.ppp[0].ppp txPk:vector(packetBytes):max -inf
scalar BgpNetwork.A2.ppp[0].ppp txPk:vector(packetBytes):starttime nan
scalar BgpNetwork.A2.ppp[0].ppp txPk:vector(packetBytes):endtime nan
scalar BgpNetwork.A2.ppp[0].ppp rxPkOk:vector(packetBytes):count 0
scalar BgpNetwork.A2.ppp[0].ppp rxPkOk:vector(packetBytes):sum 0
scalar BgpNetwork.A2.ppp[0].ppp rxPkOk:vector(packetBytes):sumweights 0
scalar BgpNetwork.A2.ppp[0].ppp rxPkOk:vector(packetBytes):mean -nan
scalar BgpNetwork.A2.ppp[0].ppp rxPkOk:vector(packetBytes):stddev nan
scalar BgpNetwork.A2.ppp[0].ppp rxPkOk:vector(packetBytes):min inf
scalar BgpNetwork.A2.ppp[0].ppp rxPkOk:vector(packetBytes):max -inf
scalar BgpNetwork.A2.ppp[0].ppp rxPkOk:vector(packetBytes):starttime nan
scalar BgpNetwork.A2.ppp[0].ppp rxPkOk:vector(packetBytes):endtime nan
scalar BgpNetwork.A2.ppp[0].ppp packetDropIncorrectlyReceived:vector(packetBytes):count 0
scalar BgpNetwork.A2.ppp[0].ppp packetDropIncorrectlyReceived:vector(packetBytes):sum 0
scalar BgpNetwork.A2.ppp[0].ppp packetDropIncorrectlyReceived:vector(packetBytes):sumweights 0
scalar BgpNetwork.A2.ppp[0].ppp packetDropIncorrectlyReceived:vector(packetBytes):mean -nan
scalar BgpNetwork.A2.ppp[0].ppp packetDropIncorrectlyReceived:vector(packetBytes):stddev nan
scalar BgpNetwork.A2.ppp[0].ppp packetDropIncorrectlyReceived:vector(packetBytes):min inf
scalar BgpNetwork.A2.ppp[0].ppp packetDropIncorrectlyReceived:vector(packetBytes):max -inf
scalar BgpNetwork.A2.ppp[0].ppp packetDropIncorrectlyReceived:vector(packetBytes):starttime nan
scalar BgpNetwork.A2.ppp[0].ppp packetDropIncorrectlyReceived:vector(packetBytes):endtime nan
scalar BgpNetwork.A2.ppp[0].ppp packetDropInterfaceDown:vector(packetBytes):count 0
scalar BgpNetwork.A2.ppp[0].ppp packetDropInterfaceDown:vector(packetBytes):sum 0
scalar BgpNetwork.A2.ppp[0].ppp packetDropInterfaceDown:vector(packetBytes):sumweights 0
scalar BgpNetwork.A2.ppp[0].ppp packetDropInterfaceDown:vector(packetBytes):mean -nan
scalar BgpNetwork.A2.ppp[0].ppp packetDropInterfaceDown:vector(packetBytes):stddev nan
scalar BgpNetwork.A2.ppp[0].ppp packetDropInterfaceDown:vector(packetBytes):min inf
scalar BgpNetwork.A2.ppp[0].ppp packetDropInterfaceDown:vector(packetBytes):max -inf
scalar BgpNetwork.A2.ppp[0].ppp packetDropInterfaceDown:vector(packetBytes):starttime nan
scalar BgpNetwork.A2.ppp[0].ppp packetDropInterfaceDown:vector(packetBytes):endtime nan
scalar BgpNetwork.A2.ppp[0].ppp rcvdPkFromHl:vector(packetBytes):count 0
scalar BgpNetwork.A2.ppp[0].ppp rcvdPkFromHl:vector(packetBytes):sum 0
scalar BgpNetwork.A2.ppp[0].ppp rcvdPkFromHl:vector(packetBytes):sumweights 0
scalar BgpNetwork.A2.ppp[0].ppp rcvdPkFromHl:vector(packetBytes):mean -nan
scalar BgpNetwork.A2.ppp[0].ppp rcvdPkFromHl:vector(packetBytes):stddev nan
scalar BgpNetwork.A2.ppp[0].ppp rcvdPkFromHl:vector(packetBytes):min inf
scalar BgpNetwork.A2.ppp[0].ppp rcvdPkFromHl:vector(packetBytes):max -inf
scalar BgpNetwork.A2.ppp[0].ppp rcvdPkFromHl:vector(packetBytes):starttime nan
scalar BgpNetwork.A2.ppp[0].ppp rcvdPkFromHl:vector(packetBytes):endtime nan
scalar BgpNetwork.A2.ppp[0].ppp passedUpPk:vector(packetBytes):count 0
scalar BgpNetwork.A2.ppp[0].ppp passedUpPk:vector(packetBytes):sum 0
scalar BgpNetwork.A2.ppp[0].ppp passedUpPk:vector(packetBytes):sumweights 0
scalar BgpNetwork.A2.ppp[0].ppp passedUpPk:vector(packetBytes):mean -nan
scalar BgpNetwork.A2.ppp[0].ppp passedUpPk:vector(packetBytes):stddev nan
scalar BgpNetwork.A2.ppp[0].ppp passedUpPk:vector(packetBytes):min inf
scalar BgpNetwork.A2.ppp[0].ppp passedUpPk:vector(packetBytes):max -inf
scalar BgpNetwork.A2.ppp[0].ppp passedUpPk:vector(packetBytes):starttime nan
scalar BgpNetwork.A2.ppp[0].ppp passedUpPk:vector(packetBytes):endtime nan
scalar BgpNetwork.A2.ppp[0] packetDropInterfaceDown:vector(packetBytes):count 0
scalar BgpNetwork.A2.ppp[0] packetDropInterfaceDown:vector(packetBytes):sum 0
scalar BgpNetwork.A2.ppp[0] packetDropInterfaceDown:vector(packetBytes):sumweights 0
scalar BgpNetwork.A2.ppp[0] packetDropInterfaceDown:vector(packetBytes):mean -nan
scalar BgpNetwork.A2.ppp[0] packetDropInterfaceDown:vector(packetBytes):stddev nan
scalar BgpNetwork.A2.ppp[0] packetDropInterfaceDown:vector(packetBytes):min inf
scalar BgpNetwork.A2.ppp[0] packetDropInterfaceDown:vector(packetBytes):max -inf
scalar BgpNetwork.A2.ppp[0] packetDropInterfaceDown:vector(packetBytes):starttime nan
scalar BgpNetwork.A2.ppp[0] packetDropInterfaceDown:vector(packetBytes):endtime nan
scalar BgpNetwork.A2.ppp[0] packetDropNoCarrier:vector(packetBytes):count 0
scalar BgpNetwork.A2.ppp[0] packetDropNoCarrier:vector(packetBytes):sum 0
scalar BgpNetwork.A2.ppp[0] packetDropNoCarrier:vector(packetBytes):sumweights 0
scalar BgpNetwork.A2.ppp[0] packetDropNoCarrier:vector(packetBytes):mean -nan
scalar BgpNetwork.A2.ppp[0] packetDropNoCarrier:vector(packetBytes):stddev nan
scalar BgpNetwork.A2.ppp[0] packetDropNoCarrier:vector(packetBytes):min inf
scalar BgpNetwork.A2.ppp[0] packetDropNoCarrier:vector(packetBytes):max -inf
scalar BgpNetwork.A2.ppp[0] packetDropNoCarrier:vector(packetBytes):starttime nan
scalar BgpNetwork.A2.ppp[0] packetDropNoCarrier:vector(packetBytes):endtime nan
scalar BgpNetwork.A2.ppp[1].queue queueLength:vector:count 0
scalar BgpNetwork.A2.ppp[1].queue queueLength:vector:sum 0
scalar BgpNetwork.A2.ppp[1].queue queueLength:vector:sumweights 0
scalar BgpNetwork.A2.ppp[1].queue queueLength:vector:mean -nan
scalar BgpNetwork.A2.ppp[1].queue queueLength:vector:stddev nan
scalar BgpNetwork.A2.ppp[1].queue queueLength:vector:min inf
scalar BgpNetwork.A2.ppp[1].queue queueLength:vector:max -inf
scalar BgpNetwork.A2.ppp[1].queue queueLength:vector:starttime nan
scalar BgpNetwork.A2.ppp[1].queue queueLength:vector:endtime nan
scalar BgpNetwork.A2.ppp[1].queue queueBitLength:vector:count 0
scalar BgpNetwork.A2.ppp[1].queue queueBitLength:vector:sum 0
scalar BgpNetwork.A2.ppp[1].queue queueBitLength:vector:sumweights 0
scalar BgpNetwork.A2.ppp[1].queue queueBitLength:vector:mean -nan
scalar BgpNetwork.A2.ppp[1].queue queueBitLength:vector:stddev nan
scalar BgpNetwork.A2.ppp[1].queue queueBitLength:vector:min inf
scalar BgpNetwork.A2.ppp[1].queue queueBitLength:vector:max -inf
scalar BgpNetwork.A2.ppp[1].queue queueBitLength:vector:starttime nan
scalar BgpNetwork.A2.ppp[1].queue queueBitLength:vector:endtime nan
scalar BgpNetwork.A2.ppp[1].queue queueingTime:vector:count 0
scalar BgpNetwork.A2.ppp[1].queue queueingTime:vector:sum 0
scalar BgpNetwork.A2.ppp[1].queue queueingTime:vector:sumweights 0
scalar BgpNetwork.A2.ppp[1].queue queueingTime:vector:mean -nan
scalar BgpNetwork.A2.ppp[1].queue queueingTime:vector:stddev nan
scalar BgpNetwork.A2.ppp[1].queue queueingTime:vector:min inf
scalar BgpNetwork.A2.ppp[1].queue queueingTime:vector:max -inf
scalar BgpNetwork.A2.ppp[1].queue queueingTime:vector:starttime nan
scalar BgpNetwork.A2.ppp[1].queue queueingTime:vector:endtime nan
scalar BgpNetwork.A2.ppp[1].queue incomingPacketLengths:vector:count 0
scalar BgpNetwork.A2.ppp[1].queue incomingPacketLengths:vector:sum 0
scalar BgpNetwork.A2.ppp[1].queue incomingPacketLengths:vector:sumweights 0
scalar BgpNetwork.A2.ppp[1].queue incomingPacketLengths:vector:mean -nan
scalar BgpNetwork.A2.ppp[1].queue incomingPacketLengths:vector:stddev nan
scalar BgpNetwork.A2.ppp[1].queue incomingPacketLengths:vector:min inf
scalar BgpNetwork.A2.ppp[1].queue incomingPacketLengths:vector:max -inf
scalar BgpNetwork.A2.ppp[1].queue incomingPacketLengths:vector:starttime nan
scalar BgpNetwork.A2.ppp[1].queue incomingPacketLengths:vector:endtime nan
scalar BgpNetwork.A2.ppp[1].queue incomingDataRate:vector:count 0
scalar BgpNetwork.A2.ppp[1].queue incomingDataRate:vector:sum 0
scalar BgpNetwork.A2.ppp[1].queue incomingDataRate:vector:sumweights 0
scalar BgpNetwork.A2.ppp[1].queue incomingDataRate:vector:mean -nan
scalar BgpNetwork.A2.ppp[1].queue incomingDataRate:vector:stddev nan
scalar BgpNetwork.A2.ppp[1].queue incomingDataRate:vector:min inf
scalar BgpNetwork.A2.ppp[1].queue incomingDataRate:vector:max -inf
scalar BgpNetwork.A2.ppp[1].queue incomingDataRate:vector:starttime nan
scalar BgpNetwork.A2.ppp[1].queue incomingDataRate:vector:endtime nan
scalar BgpNetwork.A2.ppp[1].queue outgoingPacketLengths:vector:count 0
scalar BgpNetwork.A2.ppp[1].queue outgoingPacketLengths:vector:sum 0
scalar BgpNetwork.A2.ppp[1].queue outgoingPacketLengths:vector:sumweights 0
scalar BgpNetwork.A2.ppp[1].queue outgoingPacketLengths:vector:mean -nan
scalar BgpNetwork.A2.ppp[1].queue outgoingPacketLengths:vector:stddev nan
scalar BgpNetwork.A2.ppp[1].queue outgoingPacketLengths:vector:min inf
scalar BgpNetwork.A2.ppp[1].queue outgoingPacketLengths:vector:max -inf
scalar BgpNetwork.A2.ppp[1].queue outgoingPacketLengths:vector:starttime nan
scalar BgpNetwork.A2.ppp[1].queue outgoingPacketLengths:vector:endtime nan
scalar BgpNetwork.A2.ppp[1].queue outgoingDataRate:vector:count 0
scalar BgpNetwork.A2.ppp[1].queue outgoingDataRate:vector:sum 0
scalar BgpNetwork.A2.ppp[1].queue outgoingDataRate:vector:sumweights 0
scalar BgpNetwork.A2.ppp[1].queue outgoingDataRate:vector:mean -nan
scalar BgpNetwork.A2.ppp[1].queue outgoingDataRate:vector:stddev nan
scalar BgpNetwork.A2.ppp[1].queue outgoingDataRate:vector:min inf
scalar BgpNetwork.A2.ppp[1].queue outgoingDataRate:vector:max -inf
scalar BgpNetwork.A2.ppp[1].queue outgoingDataRate:vector:starttime nan
scalar BgpNetwork.A2.ppp[1].queue outgoingDataRate:vector:endtime nan
scalar BgpNetwork.A2.ppp[1].queue droppedPacketLengthsQueueOverflow:vector:count 0
scalar BgpNetwork.A2.ppp[1].queue droppedPacketLengthsQueueOverflow:vector:sum 0
scalar BgpNetwork.A2.ppp[1].queue droppedPacketLengthsQueueOverflow:vector:sumweights 0
scalar BgpNetwork.A2.ppp[1].queue droppedPacketLengthsQueueOverflow:vector:mean -nan
scalar BgpNetwork.A2.ppp[1].queue droppedPacketLengthsQueueOverflow:vector:stddev nan
scalar BgpNetwork.A2.ppp[1].queue droppedPacketLengthsQueueOverflow:vector:min inf
scalar BgpNetwork.A2.ppp[1].queue droppedPacketLengthsQueueOverflow:vector:max -inf
scalar BgpNetwork.A2.ppp[1].queue droppedPacketLengthsQueueOverflow:vector:starttime nan
scalar BgpNetwork.A2.ppp[1].queue droppedPacketLengthsQueueOverflow:vector:endtime nan
scalar BgpNetwork.A2.ppp[1].queue flowQueueingTime:vector:count 0
scalar BgpNetwork.A2.ppp[1].queue flowQueueingTime:vector:sum 0
scalar BgpNetwork.A2.ppp[1].queue flowQueueingTime:vector:sumweights 0
scalar BgpNetwork.A2.ppp[1].queue flowQueueingTime:vector:mean -nan
scalar BgpNetwork.A2.ppp[1].queue flowQueueingTime:vector:stddev nan
scalar BgpNetwork.A2.ppp[1].queue flowQueueingTime:vector:min inf
scalar BgpNetwork.A2.ppp[1].queue flowQueueingTime:vector:max -inf
scalar BgpNetwork.A2.ppp[1].queue flowQueueingTime:vector:starttime nan
scalar BgpNetwork.A2.ppp[1].queue flowQueueingTime:vector:endtime nan
scalar BgpNetwork.A2.ppp[1].queue flowIncomingDataRate:vector:count 0
scalar BgpNetwork.A2.ppp[1].queue flowIncomingDataRate:vector:sum 0
scalar BgpNetwork.A2.ppp[1].queue flowIncomingDataRate:vector:sumweights 0
scalar BgpNetwork.A2.ppp[1].queue flowIncomingDataRate:vector:mean -nan
scalar BgpNetwork.A2.ppp[1].queue flowIncomingDataRate:vector:stddev nan
scalar BgpNetwork.A2.ppp[1].queue flowIncomingDataRate:vector:min inf
scalar BgpNetwork.A2.ppp[1].queue flowIncomingDataRate:vector:max -inf
scalar BgpNetwork.A2.ppp[1].queue flowIncomingDataRate:vector:starttime nan
scalar BgpNetwork.A2.ppp[1].queue flowIncomingDataRate:vector:endtime nan
scalar BgpNetwork.A2.ppp[1].queue flowOutgoingDataRate:vector:count 0
scalar BgpNetwork.A2.ppp[1].queue flowOutgoingDataRate:vector:sum 0
scalar BgpNetwork.A2.ppp[1].queue flowOutgoingDataRate:vector:sumweights 0
scalar BgpNetwork.A2.ppp[1].queue flowOutgoingDataRate:vector:mean -nan
scalar BgpNetwork.A2.ppp[1].queue flowOutgoingDataRate:vector:stddev nan
scalar BgpNetwork.A2.ppp[1].queue flowOutgoingDataRate:vector:min inf
scalar BgpNetwork.A2.ppp[1].queue flowOutgoingDataRate:vector:max -inf
scalar BgpNetwork.A2.ppp[1].queue flowOutgoingDataRate:vector:starttime nan
scalar BgpNetwork.A2.ppp[1].queue flowOutgoingDataRate:vector:endtime nan
scalar BgpNetwork.A2.ppp[1].ppp transmissionState:vector:count 0
scalar BgpNetwork.A2.ppp[1].ppp transmissionState:vector:sum 0
scalar BgpNetwork.A2.ppp[1].ppp transmissionState:vector:sumweights 0
scalar BgpNetwork.A2.ppp[1].ppp transmissionState:vector:mean -nan
scalar BgpNetwork.A2.ppp[1].ppp transmissionState:vector:stddev nan
scalar BgpNetwork.A2.ppp[1].ppp transmissionState:vector:min inf
scalar BgpNetwork.A2.ppp[1].ppp transmissionState:vector:max -inf
scalar BgpNetwork.A2.ppp[1].ppp transmissionState:vector:starttime nan
scalar BgpNetwork.A2.ppp[1].ppp transmissionState:vector:endtime nan
scalar BgpNetwork.A2.ppp[1].ppp txPk:vector(packetBytes):count 0
scalar BgpNetwork.A2.ppp[1].ppp txPk:vector(packetBytes):sum 0
scalar BgpNetwork.A2.ppp[1].ppp txPk:vector(packetBytes):sumweights 0
scalar BgpNetwork.A2.ppp[1].ppp txPk:vector(packetBytes):mean -nan
scalar BgpNetwork.A2.ppp[1].ppp txPk:vector(packetBytes):stddev nan
scalar BgpNetwork.A2.ppp[1].ppp txPk:vector(packetBytes):min inf
scalar BgpNetwork.A2.ppp[1].ppp txPk:vector(packetBytes):max -inf
scalar BgpNetwork.A2.ppp[1].ppp txPk:vector(packetBytes):starttime nan
scalar BgpNetwork.A2.ppp[1].ppp txPk:vector(packetBytes):endtime nan
scalar BgpNetwork.A2.ppp[1].ppp rxPkOk:vector(packetBytes):count 0
scalar BgpNetwork.A2.ppp[1].ppp rxPkOk:vector(packetBytes):sum 0
scalar BgpNetwork.A2.ppp[1].ppp rxPkOk:vector(packetBytes):sumweights 0
scalar BgpNetwork.A2.ppp[1].ppp rxPkOk:vector(packetBytes):mean -nan
scalar BgpNetwork.A2.ppp[1].ppp rxPkOk:vector(packetBytes):stddev nan
scalar BgpNetwork.A2.ppp[1].ppp rxPkOk:vector(packetBytes):min inf
scalar BgpNetwork.A2.ppp[1].ppp rxPkOk:vector(packetBytes):max -inf
scalar BgpNetwork.A2.ppp[1].ppp rxPkOk:vector(packetBytes):starttime nan
scalar BgpNetwork.A2.ppp[1].ppp rxPkOk:vector(packetBytes):endtime nan
scalar BgpNetwork.A2.ppp[1].ppp packetDropIncorrectlyReceived:vector(packetBytes):count 0
scalar BgpNetwork.A2.ppp[1].ppp packetDropIncorrectlyReceived:vector(packetBytes):sum 0
scalar BgpNetwork.A2.ppp[1].ppp packetDropIncorrectlyReceived:vector(packetBytes):sumweights 0
scalar BgpNetwork.A2.ppp[1].ppp packetDropIncorrectlyReceived:vector(packetBytes):mean -nan
scalar BgpNetwork.A2.ppp[1].ppp packetDropIncorrectlyReceived:vector(packetBytes):stddev nan
[...]
scalar BgpNetwork.A2.tcp.conn-36 cwnd:vector:endtime nan
scalar BgpNetwork.A2.tcp.conn-36 ssthresh:vector:count 0
scalar BgpNetwork.A2.tcp.conn-36 ssthresh:vector:sum 0
scalar BgpNetwork.A2.tcp.conn-36 ssthresh:vector:sumweights 0
scalar BgpNetwork.A2.tcp.conn-36 ssthresh:vector:mean -nan
scalar BgpNetwork.A2.tcp.conn-36 ssthresh:vector:stddev nan
scalar BgpNetwork.A2.tcp.conn-36 ssthresh:vector:min inf
scalar BgpNetwork.A2.tcp.conn-36 ssthresh:vector:max -inf
scalar BgpNetwork.A2.tcp.conn-36 ssthresh:vector:starttime nan
scalar BgpNetwork.A2.tcp.conn-36 ssthresh:vector:endtime nan
scalar BgpNetwork.A2.tcp.conn-36 rtt:vector:count 0
scalar BgpNetwork.A2.tcp.conn-36 rtt:vector:sum 0
scalar BgpNetwork.A2.tcp.conn-36 rtt:vector:sumweights 0
scalar BgpNetwork.A2.tcp.conn-36 rtt:vector:mean -nan
scalar BgpNetwork.A2.tcp.conn-36 rtt:vector:stddev nan
scalar BgpNetwork.A2.tcp.conn-36 rtt:vector:min inf
scalar BgpNetwork.A2.tcp.conn-36 rtt:vector:max -inf
scalar BgpNetwork.A2.tcp.conn-36 rtt:vector:starttime nan
scalar BgpNetwork.A2.tcp.conn-36 rtt:vector:endtime nan
scalar BgpNetwork.A2.tcp.conn-36 srtt:vector:count 0
scalar BgpNetwork.A2.tcp.conn-36 srtt:vector:sum 0
scalar BgpNetwork.A2.tcp.conn-36 srtt:vector:sumweights 0
scalar BgpNetwork.A2.tcp.conn-36 srtt:vector:mean -nan
scalar BgpNetwork.A2.tcp.conn-36 srtt:vector:stddev nan
scalar BgpNetwork.A2.tcp.conn-36 srtt:vector:min inf
scalar BgpNetwork.A2.tcp.conn-36 srtt:vector:max -inf
scalar BgpNetwork.A2.tcp.conn-36 srtt:vector:starttime nan
scalar BgpNetwork.A2.tcp.conn-36 srtt:vector:endtime nan
scalar BgpNetwork.A2.tcp.conn-36 rttvar:vector:count 0
scalar BgpNetwork.A2.tcp.conn-36 rttvar:vector:sum 0
scalar BgpNetwork.A2.tcp.conn-36 rttvar:vector:sumweights 0
scalar BgpNetwork.A2.tcp.conn-36 rttvar:vector:mean -nan
scalar BgpNetwork.A2.tcp.conn-36 rttvar:vector:stddev nan
scalar BgpNetwork.A2.tcp.conn-36 rttvar:vector:min inf
scalar BgpNetwork.A2.tcp.conn-36 rttvar:vector:max -inf
scalar BgpNetwork.A2.tcp.conn-36 rttvar:vector:starttime nan
scalar BgpNetwork.A2.tcp.conn-36 rttvar:vector:endtime nan
scalar BgpNetwork.A2.tcp.conn-36 rto:vector:count 0
scalar BgpNetwork.A2.tcp.conn-36 rto:vector:sum 0
scalar BgpNetwork.A2.tcp.conn-36 rto:vector:sumweights 0
scalar BgpNetwork.A2.tcp.conn-36 rto:vector:mean -nan
scalar BgpNetwork.A2.tcp.conn-36 rto:vector:stddev nan
scalar BgpNetwork.A2.tcp.conn-36 rto:vector:min inf
scalar BgpNetwork.A2.tcp.conn-36 rto:vector:max -inf
scalar BgpNetwork.A2.tcp.conn-36 rto:vector:starttime nan
scalar BgpNetwork.A2.tcp.conn-36 rto:vector:endtime nan
scalar BgpNetwork.A2.tcp.conn-36 numRtos:vector:count 0
scalar BgpNetwork.A2.tcp.conn-36 numRtos:vector:sum 0
scalar BgpNetwork.A2.tcp.conn-36 numRtos:vector:sumweights 0
scalar BgpNetwork.A2.tcp.conn-36 numRtos:vector:mean -nan
scalar BgpNetwork.A2.tcp.conn-36 numRtos:vector:stddev nan
scalar BgpNetwork.A2.tcp.conn-36 numRtos:vector:min inf
scalar BgpNetwork.A2.tcp.conn-36 numRtos:vector:max -inf
scalar BgpNetwork.A2.tcp.conn-36 numRtos:vector:starttime nan
scalar BgpNetwork.A2.tcp.conn-36 numRtos:vector:endtime nan
scalar BgpNetwork.A2.tcp.conn-36 load:vector:count 0
scalar BgpNetwork.A2.tcp.conn-36 load:vector:sum 0
scalar BgpNetwork.A2.tcp.conn-36 load:vector:sumweights 0
scalar BgpNetwork.A2.tcp.conn-36 load:vector:mean -nan
scalar BgpNetwork.A2.tcp.conn-36 load:vector:stddev nan
scalar BgpNetwork.A2.tcp.conn-36 load:vector:min inf
scalar BgpNetwork.A2.tcp.conn-36 load:vector:max -inf
scalar BgpNetwork.A2.tcp.conn-36 load:vector:starttime nan
scalar BgpNetwork.A2.tcp.conn-36 load:vector:endtime nan
scalar BgpNetwork.A2.tcp.conn-36 calcLoad:vector:count 0
scalar BgpNetwork.A2.tcp.conn-36 calcLoad:vector:sum 0
scalar BgpNetwork.A2.tcp.conn-36 calcLoad:vector:sumweights 0
scalar BgpNetwork.A2.tcp.conn-36 calcLoad:vector:mean -nan
scalar BgpNetwork.A2.tcp.conn-36 calcLoad:vector:stddev nan
scalar BgpNetwork.A2.tcp.conn-36 calcLoad:vector:min inf
scalar BgpNetwork.A2.tcp.conn-36 calcLoad:vector:max -inf
scalar BgpNetwork.A2.tcp.conn-36 calcLoad:vector:starttime nan
scalar BgpNetwork.A2.tcp.conn-36 calcLoad:vector:endtime nan
scalar BgpNetwork.A2.tcp.conn-36 markingProb:vector:count 0
scalar BgpNetwork.A2.tcp.conn-36 markingProb:vector:sum 0
scalar BgpNetwork.A2.tcp.conn-36 markingProb:vector:sumweights 0
scalar BgpNetwork.A2.tcp.conn-36 markingProb:vector:mean -nan
scalar BgpNetwork.A2.tcp.conn-36 markingProb:vector:stddev nan
scalar BgpNetwork.A2.tcp.conn-36 markingProb:vector:min inf
scalar BgpNetwork.A2.tcp.conn-36 markingProb:vector:max -inf
scalar BgpNetwork.A2.tcp.conn-36 markingProb:vector:starttime nan
scalar BgpNetwork.A2.tcp.conn-36 markingProb:vector:endtime nan
scalar BgpNetwork.A1.tcp.conn-44 state:vector:count 0
scalar BgpNetwork.A1.tcp.conn-44 state:vector:sum 0
scalar BgpNetwork.A1.tcp.conn-44 state:vector:sumweights 0
scalar BgpNetwork.A1.tcp.conn-44 state:vector:mean -nan
scalar BgpNetwork.A1.tcp.conn-44 state:vector:stddev nan
scalar BgpNetwork.A1.tcp.conn-44 state:vector:min inf
scalar BgpNetwork.A1.tcp.conn-44 state:vector:max -inf
scalar BgpNetwork.A1.tcp.conn-44 state:vector:starttime nan
scalar BgpNetwork.A1.tcp.conn-44 state:vector:endtime nan
scalar BgpNetwork.A1.tcp.conn-44 sndWnd:vector:count 0
scalar BgpNetwork.A1.tcp.conn-44 sndWnd:vector:sum 0
scalar BgpNetwork.A1.tcp.conn-44 sndWnd:vector:sumweights 0
scalar BgpNetwork.A1.tcp.conn-44 sndWnd:vector:mean -nan
scalar BgpNetwork.A1.tcp.conn-44 sndWnd:vector:stddev nan
scalar BgpNetwork.A1.tcp.conn-44 sndWnd:vector:min inf
scalar BgpNetwork.A1.tcp.conn-44 sndWnd:vector:max -inf
scalar BgpNetwork.A1.tcp.conn-44 sndWnd:vector:starttime nan
scalar BgpNetwork.A1.tcp.conn-44 sndWnd:vector:endtime nan
scalar BgpNetwork.A1.tcp.conn-44 rcvWnd:vector:count 0
scalar BgpNetwork.A1.tcp.conn-44 rcvWnd:vector:sum 0
scalar BgpNetwork.A1.tcp.conn-44 rcvWnd:vector:sumweights 0
scalar BgpNetwork.A1.tcp.conn-44 rcvWnd:vector:mean -nan
scalar BgpNetwork.A1.tcp.conn-44 rcvWnd:vector:stddev nan
scalar BgpNetwork.A1.tcp.conn-44 rcvWnd:vector:min inf
scalar BgpNetwork.A1.tcp.conn-44 rcvWnd:vector:max -inf
scalar BgpNetwork.A1.tcp.conn-44 rcvWnd:vector:starttime nan
scalar BgpNetwork.A1.tcp.conn-44 rcvWnd:vector:endtime nan
scalar BgpNetwork.A1.tcp.conn-44 rcvAdv:vector:count 0
scalar BgpNetwork.A1.tcp.conn-44 rcvAdv:vector:sum 0
scalar BgpNetwork.A1.tcp.conn-44 rcvAdv:vector:sumweights 0
scalar BgpNetwork.A1.tcp.conn-44 rcvAdv:vector:mean -nan
scalar BgpNetwork.A1.tcp.conn-44 rcvAdv:vector:stddev nan
scalar BgpNetwork.A1.tcp.conn-44 rcvAdv:vector:min inf
scalar BgpNetwork.A1.tcp.conn-44 rcvAdv:vector:max -inf
scalar BgpNetwork.A1.tcp.conn-44 rcvAdv:vector:starttime nan
scalar BgpNetwork.A1.tcp.conn-44 rcvAdv:vector:endtime nan
scalar BgpNetwork.A1.tcp.conn-44 sndNxt:vector:count 0
scalar BgpNetwork.A1.tcp.conn-44 sndNxt:vector:sum 0
scalar BgpNetwork.A1.tcp.conn-44 sndNxt:vector:sumweights 0
scalar BgpNetwork.A1.tcp.conn-44 sndNxt:vector:mean -nan
scalar BgpNetwork.A1.tcp.conn-44 sndNxt:vector:stddev nan
scalar BgpNetwork.A1.tcp.conn-44 sndNxt:vector:min inf
scalar BgpNetwork.A1.tcp.conn-44 sndNxt:vector:max -inf
scalar BgpNetwork.A1.tcp.conn-44 sndNxt:vector:starttime nan
scalar BgpNetwork.A1.tcp.conn-44 sndNxt:vector:endtime nan
scalar BgpNetwork.A1.tcp.conn-44 sndAck:vector:count 0
scalar BgpNetwork.A1.tcp.conn-44 sndAck:vector:sum 0
scalar BgpNetwork.A1.tcp.conn-44 sndAck:vector:sumweights 0
scalar BgpNetwork.A1.tcp.conn-44 sndAck:vector:mean -nan
scalar BgpNetwork.A1.tcp.conn-44 sndAck:vector:stddev nan
scalar BgpNetwork.A1.tcp.conn-44 sndAck:vector:min inf
scalar BgpNetwork.A1.tcp.conn-44 sndAck:vector:max -inf
scalar BgpNetwork.A1.tcp.conn-44 sndAck:vector:starttime nan
scalar BgpNetwork.A1.tcp.conn-44 sndAck:vector:endtime nan
scalar BgpNetwork.A1.tcp.conn-44 rcvSeq:vector:count 0
scalar BgpNetwork.A1.tcp.conn-44 rcvSeq:vector:sum 0
scalar BgpNetwork.A1.tcp.conn-44 rcvSeq:vector:sumweights 0
scalar BgpNetwork.A1.tcp.conn-44 rcvSeq:vector:mean -nan
scalar BgpNetwork.A1.tcp.conn-44 rcvSeq:vector:stddev nan
scalar BgpNetwork.A1.tcp.conn-44 rcvSeq:vector:min inf
scalar BgpNetwork.A1.tcp.conn-44 rcvSeq:vector:max -inf
scalar BgpNetwork.A1.tcp.conn-44 rcvSeq:vector:starttime nan
scalar BgpNetwork.A1.tcp.conn-44 rcvSeq:vector:endtime nan
scalar BgpNetwork.A1.tcp.conn-44 rcvAck:vector:count 0
scalar BgpNetwork.A1.tcp.conn-44 rcvAck:vector:sum 0
scalar BgpNetwork.A1.tcp.conn-44 rcvAck:vector:sumweights 0
scalar BgpNetwork.A1.tcp.conn-44 rcvAck:vector:mean -nan
scalar BgpNetwork.A1.tcp.conn-44 rcvAck:vector:stddev nan
scalar BgpNetwork.A1.tcp.conn-44 rcvAck:vector:min inf
scalar BgpNetwork.A1.tcp.conn-44 rcvAck:vector:max -inf
scalar BgpNetwork.A1.tcp.conn-44 rcvAck:vector:starttime nan
scalar BgpNetwork.A1.tcp.conn-44 rcvAck:vector:endtime nan
scalar BgpNetwork.A1.tcp.conn-44 unacked:vector:count 0
scalar BgpNetwork.A1.tcp.conn-44 unacked:vector:sum 0
scalar BgpNetwork.A1.tcp.conn-44 unacked:vector:sumweights 0
scalar BgpNetwork.A1.tcp.conn-44 unacked:vector:mean -nan
scalar BgpNetwork.A1.tcp.conn-44 unacked:vector:stddev nan
scalar BgpNetwork.A1.tcp.conn-44 unacked:vector:min inf
scalar BgpNetwork.A1.tcp.conn-44 unacked:vector:max -inf
scalar BgpNetwork.A1.tcp.conn-44 unacked:vector:starttime nan
scalar BgpNetwork.A1.tcp.conn-44 unacked:vector:endtime nan
scalar BgpNetwork.A1.tcp.conn-44 dupAcks:vector:count 0
scalar BgpNetwork.A1.tcp.conn-44 dupAcks:vector:sum 0
scalar BgpNetwork.A1.tcp.conn-44 dupAcks:vector:sumweights 0
scalar BgpNetwork.A1.tcp.conn-44 dupAcks:vector:mean -nan
scalar BgpNetwork.A1.tcp.conn-44 dupAcks:vector:stddev nan
scalar BgpNetwork.A1.tcp.conn-44 dupAcks:vector:min inf
scalar BgpNetwork.A1.tcp.conn-44 dupAcks:vector:max -inf
scalar BgpNetwork.A1.tcp.conn-44 dupAcks:vector:starttime nan
scalar BgpNetwork.A1.tcp.conn-44 dupAcks:vector:endtime nan
scalar BgpNetwork.A1.tcp.conn-44 pipe:vector:count 0
scalar BgpNetwork.A1.tcp.conn-44 pipe:vector:sum 0
scalar BgpNetwork.A1.tcp.conn-44 pipe:vector:sumweights 0
scalar BgpNetwork.A1.tcp.conn-44 pipe:vector:mean -nan
scalar BgpNetwork.A1.tcp.conn-44 pipe:vector:stddev nan
scalar BgpNetwork.A1.tcp.conn-44 pipe:vector:min inf
scalar BgpNetwork.A1.tcp.conn-44 pipe:vector:max -inf
scalar BgpNetwork.A1.tcp.conn-44 pipe:vector:starttime nan
scalar BgpNetwork.A1.tcp.conn-44 pipe:vector:endtime nan
scalar BgpNetwork.A1.tcp.conn-44 sndSacks:vector:count 0
scalar BgpNetwork.A1.tcp.conn-44 sndSacks:vector:sum 0
scalar BgpNetwork.A1.tcp.conn-44 sndSacks:vector:sumweights 0
scalar BgpNetwork.A1.tcp.conn-44 sndSacks:vector:mean -nan
scalar BgpNetwork.A1.tcp.conn-44 sndSacks:vector:stddev nan
scalar BgpNetwork.A1.tcp.conn-44 sndSacks:vector:min inf
scalar BgpNetwork.A1.tcp.conn-44 sndSacks:vector:max -inf
scalar BgpNetwork.A1.tcp.conn-44 sndSacks:vector:starttime nan
scalar BgpNetwork.A1.tcp.conn-44 sndSacks:vector:endtime nan
scalar BgpNetwork.A1.tcp.conn-44 rcvSacks:vector:count 0
scalar BgpNetwork.A1.tcp.conn-44 rcvSacks:vector:sum 0
scalar BgpNetwork.A1.tcp.conn-44 rcvSacks:vector:sumweights 0
scalar BgpNetwork.A1.tcp.conn-44 rcvSacks:vector:mean -nan
scalar BgpNetwork.A1.tcp.conn-44 rcvSacks:vector:stddev nan
scalar BgpNetwork.A1.tcp.conn-44 rcvSacks:vector:min inf
scalar BgpNetwork.A1.tcp.conn-44 rcvSacks:vector:max -inf
scalar BgpNetwork.A1.tcp.conn-44 rcvSacks:vector:starttime nan
scalar BgpNetwork.A1.tcp.conn-44 rcvSacks:vector:endtime nan
scalar BgpNetwork.A1.tcp.conn-44 rcvOooSeg:vector:count 0
scalar BgpNetwork.A1.tcp.conn-44 rcvOooSeg:vector:sum 0
scalar BgpNetwork.A1.tcp.conn-44 rcvOooSeg:vector:sumweights 0
scalar BgpNetwork.A1.tcp.conn-44 rcvOooSeg:vector:mean -nan
scalar BgpNetwork.A1.tcp.conn-44 rcvOooSeg:vector:stddev nan
scalar BgpNetwork.A1.tcp.conn-44 rcvOooSeg:vector:min inf
scalar BgpNetwork.A1.tcp.conn-44 rcvOooSeg:vector:max -inf
scalar BgpNetwork.A1.tcp.conn-44 rcvOooSeg:vector:starttime nan
scalar BgpNetwork.A1.tcp.conn-44 rcvOooSeg:vector:endtime nan
scalar BgpNetwork.A1.tcp.conn-44 rcvNASeg:vector:count 0
scalar BgpNetwork.A1.tcp.conn-44 rcvNASeg:vector:sum 0
scalar BgpNetwork.A1.tcp.conn-44 rcvNASeg:vector:sumweights 0
scalar BgpNetwork.A1.tcp.conn-44 rcvNASeg:vector:mean -nan
scalar BgpNetwork.A1.tcp.conn-44 rcvNASeg:vector:stddev nan
scalar BgpNetwork.A1.tcp.conn-44 rcvNASeg:vector:min inf
scalar BgpNetwork.A1.tcp.conn-44 rcvNASeg:vector:max -inf
scalar BgpNetwork.A1.tcp.conn-44 rcvNASeg:vector:starttime nan
scalar BgpNetwork.A1.tcp.conn-44 rcvNASeg:vector:endtime nan
scalar BgpNetwork.A1.tcp.conn-44 sackedBytes:vector:count 0
scalar BgpNetwork.A1.tcp.conn-44 sackedBytes:vector:sum 0
scalar BgpNetwork.A1.tcp.conn-44 sackedBytes:vector:sumweights 0
scalar BgpNetwork.A1.tcp.conn-44 sackedBytes:vector:mean -nan
scalar BgpNetwork.A1.tcp.conn-44 sackedBytes:vector:stddev nan
scalar BgpNetwork.A1.tcp.conn-44 sackedBytes:vector:min inf
scalar BgpNetwork.A1.tcp.conn-44 sackedBytes:vector:max -inf
scalar BgpNetwork.A1.tcp.conn-44 sackedBytes:vector:starttime nan
scalar BgpNetwork.A1.tcp.conn-44 sackedBytes:vector:endtime nan
scalar BgpNetwork.A1.tcp.conn-44 tcpRcvQueueBytes:vector:count 0
scalar BgpNetwork.A1.tcp.conn-44 tcpRcvQueueBytes:vector:sum 0
scalar BgpNetwork.A1.tcp.conn-44 tcpRcvQueueBytes:vector:sumweights 0
scalar BgpNetwork.A1.tcp.conn-44 tcpRcvQueueBytes:vector:mean -nan
scalar BgpNetwork.A1.tcp.conn-44 tcpRcvQueueBytes:vector:stddev nan
scalar BgpNetwork.A1.tcp.conn-44 tcpRcvQueueBytes:vector:min inf
scalar BgpNetwork.A1.tcp.conn-44 tcpRcvQueueBytes:vector:max -inf
scalar BgpNetwork.A1.tcp.conn-44 tcpRcvQueueBytes:vector:starttime nan
scalar BgpNetwork.A1.tcp.conn-44 tcpRcvQueueBytes:vector:endtime nan
scalar BgpNetwork.A1.tcp.conn-44 tcpRcvQueueDrops:vector:count 0
scalar BgpNetwork.A1.tcp.conn-44 tcpRcvQueueDrops:vector:sum 0
scalar BgpNetwork.A1.tcp.conn-44 tcpRcvQueueDrops:vector:sumweights 0
scalar BgpNetwork.A1.tcp.conn-44 tcpRcvQueueDrops:vector:mean -nan
scalar BgpNetwork.A1.tcp.conn-44 tcpRcvQueueDrops:vector:stddev nan
scalar BgpNetwork.A1.tcp.conn-44 tcpRcvQueueDrops:vector:min inf
scalar BgpNetwork.A1.tcp.conn-44 tcpRcvQueueDrops:vector:max -inf
scalar BgpNetwork.A1.tcp.conn-44 tcpRcvQueueDrops:vector:starttime nan
scalar BgpNetwork.A1.tcp.conn-44 tcpRcvQueueDrops:vector:endtime nan
scalar BgpNetwork.A1.tcp.conn-44 tcpRcvPayloadBytes:vector:count 0
scalar BgpNetwork.A1.tcp.conn-44 tcpRcvPayloadBytes:vector:sum 0
scalar BgpNetwork.A1.tcp.conn-44 tcpRcvPayloadBytes:vector:sumweights 0
scalar BgpNetwork.A1.tcp.conn-44 tcpRcvPayloadBytes:vector:mean -nan
scalar BgpNetwork.A1.tcp.conn-44 tcpRcvPayloadBytes:vector:stddev nan
scalar BgpNetwork.A1.tcp.conn-44 tcpRcvPayloadBytes:vector:min inf
scalar BgpNetwork.A1.tcp.conn-44 tcpRcvPayloadBytes:vector:max -inf
scalar BgpNetwork.A1.tcp.conn-44 tcpRcvPayloadBytes:vector:starttime nan
scalar BgpNetwork.A1.tcp.conn-44 tcpRcvPayloadBytes:vector:endtime nan
scalar BgpNetwork.A1.tcp.conn-44 cwnd:vector:count 0
scalar BgpNetwork.A1.tcp.conn-44 cwnd:vector:sum 0
scalar BgpNetwork.A1.tcp.conn-44 cwnd:vector:sumweights 0
scalar BgpNetwork.A1.tcp.conn-44 cwnd:vector:mean -nan
scalar BgpNetwork.A1.tcp.conn-44 cwnd:vector:stddev nan
scalar BgpNetwork.A1.tcp.conn-44 cwnd:vector:min inf
scalar BgpNetwork.A1.tcp.conn-44 cwnd:vector:max -inf
scalar BgpNetwork.A1.tcp.conn-44 cwnd:vector:starttime nan
scalar BgpNetwork.A1.tcp.conn-44 cwnd:vector:endtime nan
scalar BgpNetwork.A1.tcp.conn-44 ssthresh:vector:count 0
scalar BgpNetwork.A1.tcp.conn-44 ssthresh:vector:sum 0
scalar BgpNetwork.A1.tcp.conn-44 ssthresh:vector:sumweights 0
scalar BgpNetwork.A1.tcp.conn-44 ssthresh:vector:mean -nan
scalar BgpNetwork.A1.tcp.conn-44 ssthresh:vector:stddev nan
scalar BgpNetwork.A1.tcp.conn-44 ssthresh:vector:min inf
scalar BgpNetwork.A1.tcp.conn-44 ssthresh:vector:max -inf
scalar BgpNetwork.A1.tcp.conn-44 ssthresh:vector:starttime nan
scalar BgpNetwork.A1.tcp.conn-44 ssthresh:vector:endtime nan
scalar BgpNetwork.A1.tcp.conn-44 rtt:vector:count 0
scalar BgpNetwork.A1.tcp.conn-44 rtt:vector:sum 0
scalar BgpNetwork.A1.tcp.conn-44 rtt:vector:sumweights 0
scalar BgpNetwork.A1.tcp.conn-44 rtt:vector:mean -nan
scalar BgpNetwork.A1.tcp.conn-44 rtt:vector:stddev nan
scalar BgpNetwork.A1.tcp.conn-44 rtt:vector:min inf
scalar BgpNetwork.A1.tcp.conn-44 rtt:vector:max -inf
scalar BgpNetwork.A1.tcp.conn-44 rtt:vector:starttime nan
scalar BgpNetwork.A1.tcp.conn-44 rtt:vector:endtime nan
scalar BgpNetwork.A1.tcp.conn-44 srtt:vector:count 0
scalar BgpNetwork.A1.tcp.conn-44 srtt:vector:sum 0
scalar BgpNetwork.A1.tcp.conn-44 srtt:vector:sumweights 0
scalar BgpNetwork.A1.tcp.conn-44 srtt:vector:mean -nan
scalar BgpNetwork.A1.tcp.conn-44 srtt:vector:stddev nan
scalar BgpNetwork.A1.tcp.conn-44 srtt:vector:min inf
scalar BgpNetwork.A1.tcp.conn-44 srtt:vector:max -inf
scalar BgpNetwork.A1.tcp.conn-44 srtt:vector:starttime nan
scalar BgpNetwork.A1.tcp.conn-44 srtt:vector:endtime nan
scalar BgpNetwork.A1.tcp.conn-44 rttvar:vector:count 0
scalar BgpNetwork.A1.tcp.conn-44 rttvar:vector:sum 0
scalar BgpNetwork.A1.tcp.conn-44 rttvar:vector:sumweights 0
scalar BgpNetwork.A1.tcp.conn-44 rttvar:vector:mean -nan
scalar BgpNetwork.A1.tcp.conn-44 rttvar:vector:stddev nan
scalar BgpNetwork.A1.tcp.conn-44 rttvar:vector:min inf
scalar BgpNetwork.A1.tcp.conn-44 rttvar:vector:max -inf
scalar BgpNetwork.A1.tcp.conn-44 rttvar:vector:starttime nan
scalar BgpNetwork.A1.tcp.conn-44 rttvar:vector:endtime nan
scalar BgpNetwork.A1.tcp.conn-44 rto:vector:count 0
scalar BgpNetwork.A1.tcp.conn-44 rto:vector:sum 0
scalar BgpNetwork.A1.tcp.conn-44 rto:vector:sumweights 0
scalar BgpNetwork.A1.tcp.conn-44 rto:vector:mean -nan
scalar BgpNetwork.A1.tcp.conn-44 rto:vector:stddev nan
scalar BgpNetwork.A1.tcp.conn-44 rto:vector:min inf
scalar BgpNetwork.A1.tcp.conn-44 rto:vector:max -inf
scalar BgpNetwork.A1.tcp.conn-44 rto:vector:starttime nan
scalar BgpNetwork.A1.tcp.conn-44 rto:vector:endtime nan
scalar BgpNetwork.A1.tcp.conn-44 numRtos:vector:count 0
scalar BgpNetwork.A1.tcp.conn-44 numRtos:vector:sum 0
scalar BgpNetwork.A1.tcp.conn-44 numRtos:vector:sumweights 0
scalar BgpNetwork.A1.tcp.conn-44 numRtos:vector:mean -nan
scalar BgpNetwork.A1.tcp.conn-44 numRtos:vector:stddev nan
scalar BgpNetwork.A1.tcp.conn-44 numRtos:vector:min inf
scalar BgpNetwork.A1.tcp.conn-44 numRtos:vector:max -inf
scalar BgpNetwork.A1.tcp.conn-44 numRtos:vector:starttime nan
scalar BgpNetwork.A1.tcp.conn-44 numRtos:vector:endtime nan
scalar BgpNetwork.A1.tcp.conn-44 load:vector:count 0
scalar BgpNetwork.A1.tcp.conn-44 load:vector:sum 0
scalar BgpNetwork.A1.tcp.conn-44 load:vector:sumweights 0
scalar BgpNetwork.A1.tcp.conn-44 load:vector:mean -nan
scalar BgpNetwork.A1.tcp.conn-44 load:vector:stddev nan
scalar BgpNetwork.A1.tcp.conn-44 load:vector:min inf
scalar BgpNetwork.A1.tcp.conn-44 load:vector:max -inf
scalar BgpNetwork.A1.tcp.conn-44 load:vector:starttime nan
scalar BgpNetwork.A1.tcp.conn-44 load:vector:endtime nan
scalar BgpNetwork.A1.tcp.conn-44 calcLoad:vector:count 0
scalar BgpNetwork.A1.tcp.conn-44 calcLoad:vector:sum 0
scalar BgpNetwork.A1.tcp.conn-44 calcLoad:vector:sumweights 0
scalar BgpNetwork.A1.tcp.conn-44 calcLoad:vector:mean -nan
scalar BgpNetwork.A1.tcp.conn-44 calcLoad:vector:stddev nan
scalar BgpNetwork.A1.tcp.conn-44 calcLoad:vector:min inf
scalar BgpNetwork.A1.tcp.conn-44 calcLoad:vector:max -inf
scalar BgpNetwork.A1.tcp.conn-44 calcLoad:vector:starttime nan
scalar BgpNetwork.A1.tcp.conn-44 calcLoad:vector:endtime nan
scalar BgpNetwork.A1.tcp.conn-44 markingProb:vector:count 0
scalar BgpNetwork.A1.tcp.conn-44 markingProb:vector:sum 0
scalar BgpNetwork.A1.tcp.conn-44 markingProb:vector:sumweights 0
scalar BgpNetwork.A1.tcp.conn-44 markingProb:vector:mean -nan
scalar BgpNetwork.A1.tcp.conn-44 markingProb:vector:stddev nan
scalar BgpNetwork.A1.tcp.conn-44 markingProb:vector:min inf
scalar BgpNetwork.A1.tcp.conn-44 markingProb:vector:max -inf
scalar BgpNetwork.A1.tcp.conn-44 markingProb:vector:starttime nan
scalar BgpNetwork.A1.tcp.conn-44 markingProb:vector:endtime nan

