version 3
run SimpleRREQ2-0-20250108-11:18:14-8888
attr configname SimpleRREQ2
attr datetime 20250108-11:18:14
attr datetimef 20250108-111814
attr experiment SimpleRREQ2
attr inifile omnetpp.ini
attr iterationvars ""
attr iterationvarsd ""
attr iterationvarsf ""
attr measurement ""
attr network SimpleRREQ2
attr processid 8888
attr repetition 0
attr replication #0
attr resultdir results
attr runnumber 0
attr seedset 0
config **.param-recording false
config image-path /home/levy/workspace/inet/images
config output-scalar-file results/omnetpp.ini-SimpleRREQ2-#0.sca
config output-vector-file results/omnetpp.ini-SimpleRREQ2-#0.vec
config sim-time-limit 100s
config sim-time-limit 100s
config description "demonstrates a single RREQ-RREP exchange with two intermediate nodes"
config extends SimpleRREQ
config network SimpleRREQ2
config sim-time-limit 100s
config description "demonstrates a single RREQ-RREP exchange"
config network SimpleRREQ
config **.wlan[*].radio.transmitter.analogModel.communicationRange 240m
config **.sender.numApps 1
config **.sender.app[0].typename PingApp
config **.sender.app[0].startTime uniform(1s,5s)
config **.sender.app[0].printPing true
config **.sender.app[0].destAddr "\"receiver(ipv4)\""
config network AODVNetwork
config num-rngs 3
config **.mobility.rng-0 1
config **.wlan[*].mac.rng-0 2
config *.radioMedium.sameTransmissionStartTimeCheck "\"ignore\""
config **.wlan[*].typename AckingWirelessInterface
config **.wlan[*].bitrate 2Mbps
config **.wlan[*].mac.headerLength 23B
config **.wlan[*].radio.typename GenericRadio
config **.wlan[*].radio.signalAnalogRepresentation "\"unitDisk\""
config **.wlan[*].radio.transmitter.headerLength 96b
config **.wlan[*].radio.transmitter.analogModel.communicationRange 250m
config **.wlan[*].radio.transmitter.analogModel.interferenceRange 0m
config **.wlan[*].radio.transmitter.analogModel.detectionRange 0m
config **.wlan[*].radio.receiver.ignoreInterference true
config **.mobility.constraintAreaMinZ 0m
config **.mobility.constraintAreaMaxZ 0m
config **.mobility.constraintAreaMinX 0m
config **.mobility.constraintAreaMinY 0m
config **.mobility.constraintAreaMaxX 600m
config **.mobility.constraintAreaMaxY 600m
config **.hasStatus true

scalar SimpleRREQ2.radioMedium.propagation "Arrival computation count" 1224
scalar SimpleRREQ2.radioMedium "transmission count" 408
scalar SimpleRREQ2.radioMedium "signal send count" 1224
scalar SimpleRREQ2.radioMedium "reception computation count" 1224
scalar SimpleRREQ2.radioMedium "interference computation count" 4485
scalar SimpleRREQ2.radioMedium "reception decision computation count" 1016
scalar SimpleRREQ2.radioMedium "listening decision computation count" 2245
scalar SimpleRREQ2.radioMedium "reception cache hit" 84.619251068108
scalar SimpleRREQ2.radioMedium "interference cache hit" 66.666666666667
scalar SimpleRREQ2.radioMedium "noise cache hit" 0
scalar SimpleRREQ2.radioMedium "snir cache hit" 50
scalar SimpleRREQ2.radioMedium "reception decision cache hit" 50
scalar SimpleRREQ2.radioMedium "reception result cache hit" 0
scalar SimpleRREQ2.sender.lo[0].lo rcvdPkFromHl:count 0
scalar SimpleRREQ2.sender.lo[0].lo rcvdPkFromHl:sum(packetBytes) 0
scalar SimpleRREQ2.sender.lo[0].lo passedUpPk:count 0
scalar SimpleRREQ2.sender.lo[0].lo passedUpPk:sum(packetBytes) 0
scalar SimpleRREQ2.sender.lo[0] packetDropInterfaceDown:count 0
scalar SimpleRREQ2.sender.lo[0] packetDropInterfaceDown:sum(packetBytes) 0
scalar SimpleRREQ2.sender.lo[0] packetDropNoCarrier:count 0
scalar SimpleRREQ2.sender.lo[0] packetDropNoCarrier:sum(packetBytes) 0
scalar SimpleRREQ2.sender.wlan[0].queue queueLength:last 0
scalar SimpleRREQ2.sender.wlan[0].queue queueLength:max 0
scalar SimpleRREQ2.sender.wlan[0].queue queueLength:timeavg 0
scalar SimpleRREQ2.sender.wlan[0].queue queueBitLength:last 0
scalar SimpleRREQ2.sender.wlan[0].queue queueBitLength:max 0
scalar SimpleRREQ2.sender.wlan[0].queue queueBitLength:timeavg 0
scalar SimpleRREQ2.sender.wlan[0].queue outgoingPackets:count 100
scalar SimpleRREQ2.sender.wlan[0].queue outgoingPacketLengths:sum 66240
scalar SimpleRREQ2.sender.wlan[0].queue incomingPackets:count 100
scalar SimpleRREQ2.sender.wlan[0].queue incomingPacketLengths:sum 66240
scalar SimpleRREQ2.sender.wlan[0].queue droppedPacketsQueueOverflow:count 0
scalar SimpleRREQ2.sender.wlan[0].queue droppedPacketLengthsQueueOverflow:sum 0
scalar SimpleRREQ2.sender.wlan[0].mac rcvdPkFromLl:count 203
scalar SimpleRREQ2.sender.wlan[0].mac rcvdPkFromLl:sum(packetBytes) 21349
scalar SimpleRREQ2.sender.wlan[0].mac sentDownPk:count 100
scalar SimpleRREQ2.sender.wlan[0].mac sentDownPk:sum(packetBytes) 10580
scalar SimpleRREQ2.sender.wlan[0].mac rcvdPkFromHl:count 100
scalar SimpleRREQ2.sender.wlan[0].mac rcvdPkFromHl:sum(packetBytes) 8280
scalar SimpleRREQ2.sender.wlan[0].mac passedUpPk:count 103
scalar SimpleRREQ2.sender.wlan[0].mac passedUpPk:sum(packetBytes) 8408
scalar SimpleRREQ2.sender.wlan[0].mac packetDropIncorrectlyReceived:count 0
scalar SimpleRREQ2.sender.wlan[0].mac packetDropIncorrectlyReceived:sum(packetBytes) 0
scalar SimpleRREQ2.sender.wlan[0].mac packetDropInterfaceDown:count 0
scalar SimpleRREQ2.sender.wlan[0].mac packetDropInterfaceDown:sum(packetBytes) 0
scalar SimpleRREQ2.sender.wlan[0].mac packetDropNotAddressedToUs:count 100
scalar SimpleRREQ2.sender.wlan[0].mac packetDropNotAddressedToUs:sum(packetBytes) 10572
scalar SimpleRREQ2.sender.wlan[0].mac linkBroken:count 0
scalar SimpleRREQ2.sender.wlan[0].radio radioMode:count 3
scalar SimpleRREQ2.sender.wlan[0].radio receptionState:count 408
scalar SimpleRREQ2.sender.wlan[0].radio transmissionState:count 201
scalar SimpleRREQ2.sender.wlan[0] packetDropInterfaceDown:count 0
scalar SimpleRREQ2.sender.wlan[0] packetDropInterfaceDown:sum(packetBytes) 0
scalar SimpleRREQ2.sender.wlan[0] packetDropNoCarrier:count 0
scalar SimpleRREQ2.sender.wlan[0] packetDropNoCarrier:sum(packetBytes) 0
scalar SimpleRREQ2.sender.ipv4.ip packetDropAddressResolutionFailed:count 0
scalar SimpleRREQ2.sender.ipv4.ip packetDropAddressResolutionFailed:sum(packetBytes) 0
scalar SimpleRREQ2.sender.ipv4.ip packetDropHopLimitReached:count 0
scalar SimpleRREQ2.sender.ipv4.ip packetDropHopLimitReached:sum(packetBytes) 0
scalar SimpleRREQ2.sender.ipv4.ip packetDropForwardingDisabled:count 0
scalar SimpleRREQ2.sender.ipv4.ip packetDropForwardingDisabled:sum(packetBytes) 0
scalar SimpleRREQ2.sender.ipv4.ip packetDropLifetimeExpired:count 0
scalar SimpleRREQ2.sender.ipv4.ip packetDropLifetimeExpired:sum(packetBytes) 0
scalar SimpleRREQ2.sender.ipv4.ip packetDropNoInterfaceFound:count 0
scalar SimpleRREQ2.sender.ipv4.ip packetDropNoInterfaceFound:sum(packetBytes) 0
scalar SimpleRREQ2.sender.ipv4.ip packetDropNoRouteFound:count 0
scalar SimpleRREQ2.sender.ipv4.ip packetDropNoRouteFound:sum(packetBytes) 0
scalar SimpleRREQ2.sender.ipv4.ip packetDropUndefined:count 0
scalar SimpleRREQ2.sender.ipv4.ip packetDropUndefined:sum(packetBytes) 0
scalar SimpleRREQ2.sender.ipv4.arp arpResolutionFailed:count 0
scalar SimpleRREQ2.sender.ipv4.arp arpResolutionCompleted:count 1
scalar SimpleRREQ2.sender.ipv4.arp arpResolutionInitiated:count 0
scalar SimpleRREQ2.sender.ipv4.arp arpReplySent:count 1
scalar SimpleRREQ2.sender.ipv4.arp arpReplySent:sum(packetBytes) 28
scalar SimpleRREQ2.sender.ipv4.arp arpRequestSent:count 0
scalar SimpleRREQ2.sender.ipv4.arp arpRequestSent:sum(packetBytes) 0
scalar SimpleRREQ2.sender.udp packetReceived:count 4
scalar SimpleRREQ2.sender.udp packetReceived:sum(packetBytes) 124
scalar SimpleRREQ2.sender.udp packetSent:count 2
scalar SimpleRREQ2.sender.udp packetSent:sum(packetBytes) 64
scalar SimpleRREQ2.sender.udp passedUpPk:count 4
scalar SimpleRREQ2.sender.udp droppedPkWrongPort:count 0
scalar SimpleRREQ2.sender.udp droppedPkBadChecksum:count 0
scalar SimpleRREQ2.sender.app[0] "Pings sent" 97
scalar SimpleRREQ2.sender.app[0] "ping loss rate (%)" 0
scalar SimpleRREQ2.sender.app[0] "ping out-of-order rate (%)" 0
scalar SimpleRREQ2.sender.app[0] pingRxSeq:count 97
scalar SimpleRREQ2.sender.app[0] pingTxSeq:count 97
scalar SimpleRREQ2.sender.app[0] numOutOfOrderArrivals:last nan
scalar SimpleRREQ2.sender.app[0] numLost:last nan
scalar SimpleRREQ2.intermediateNodeA.lo[0].lo rcvdPkFromHl:count 0
scalar SimpleRREQ2.intermediateNodeA.lo[0].lo rcvdPkFromHl:sum(packetBytes) 0
scalar SimpleRREQ2.intermediateNodeA.lo[0].lo passedUpPk:count 0
scalar SimpleRREQ2.intermediateNodeA.lo[0].lo passedUpPk:sum(packetBytes) 0
scalar SimpleRREQ2.intermediateNodeA.lo[0] packetDropInterfaceDown:count 0
scalar SimpleRREQ2.intermediateNodeA.lo[0] packetDropInterfaceDown:sum(packetBytes) 0
scalar SimpleRREQ2.intermediateNodeA.lo[0] packetDropNoCarrier:count 0
scalar SimpleRREQ2.intermediateNodeA.lo[0] packetDropNoCarrier:sum(packetBytes) 0
scalar SimpleRREQ2.intermediateNodeA.wlan[0].queue queueLength:last 0
scalar SimpleRREQ2.intermediateNodeA.wlan[0].queue queueLength:max 0
scalar SimpleRREQ2.intermediateNodeA.wlan[0].queue queueLength:timeavg 0
scalar SimpleRREQ2.intermediateNodeA.wlan[0].queue queueBitLength:last 0
scalar SimpleRREQ2.intermediateNodeA.wlan[0].queue queueBitLength:max 0
scalar SimpleRREQ2.intermediateNodeA.wlan[0].queue queueBitLength:timeavg 0
scalar SimpleRREQ2.intermediateNodeA.wlan[0].queue outgoingPackets:count 200
scalar SimpleRREQ2.intermediateNodeA.wlan[0].queue outgoingPacketLengths:sum 132416
scalar SimpleRREQ2.intermediateNodeA.wlan[0].queue incomingPackets:count 200
scalar SimpleRREQ2.intermediateNodeA.wlan[0].queue incomingPacketLengths:sum 132416
scalar SimpleRREQ2.intermediateNodeA.wlan[0].queue droppedPacketsQueueOverflow:count 0
scalar SimpleRREQ2.intermediateNodeA.wlan[0].queue droppedPacketLengthsQueueOverflow:sum 0
scalar SimpleRREQ2.intermediateNodeA.wlan[0].mac rcvdPkFromLl:count 207
scalar SimpleRREQ2.intermediateNodeA.wlan[0].mac rcvdPkFromLl:sum(packetBytes) 21609
scalar SimpleRREQ2.intermediateNodeA.wlan[0].mac sentDownPk:count 200
scalar SimpleRREQ2.intermediateNodeA.wlan[0].mac sentDownPk:sum(packetBytes) 21152
scalar SimpleRREQ2.intermediateNodeA.wlan[0].mac rcvdPkFromHl:count 200
scalar SimpleRREQ2.intermediateNodeA.wlan[0].mac rcvdPkFromHl:sum(packetBytes) 16552
scalar SimpleRREQ2.intermediateNodeA.wlan[0].mac passedUpPk:count 205
scalar SimpleRREQ2.intermediateNodeA.wlan[0].mac passedUpPk:sum(packetBytes) 16772
scalar SimpleRREQ2.intermediateNodeA.wlan[0].mac packetDropIncorrectlyReceived:count 0
scalar SimpleRREQ2.intermediateNodeA.wlan[0].mac packetDropIncorrectlyReceived:sum(packetBytes) 0
scalar SimpleRREQ2.intermediateNodeA.wlan[0].mac packetDropInterfaceDown:count 0
scalar SimpleRREQ2.intermediateNodeA.wlan[0].mac packetDropInterfaceDown:sum(packetBytes) 0
scalar SimpleRREQ2.intermediateNodeA.wlan[0].mac packetDropNotAddressedToUs:count 2
scalar SimpleRREQ2.intermediateNodeA.wlan[0].mac packetDropNotAddressedToUs:sum(packetBytes) 122
scalar SimpleRREQ2.intermediateNodeA.wlan[0].mac linkBroken:count 0
scalar SimpleRREQ2.intermediateNodeA.wlan[0].radio radioMode:count 3
scalar SimpleRREQ2.intermediateNodeA.wlan[0].radio receptionState:count 416
scalar SimpleRREQ2.intermediateNodeA.wlan[0].radio transmissionState:count 401
scalar SimpleRREQ2.intermediateNodeA.wlan[0] packetDropInterfaceDown:count 0
scalar SimpleRREQ2.intermediateNodeA.wlan[0] packetDropInterfaceDown:sum(packetBytes) 0
scalar SimpleRREQ2.intermediateNodeA.wlan[0] packetDropNoCarrier:count 0
scalar SimpleRREQ2.intermediateNodeA.wlan[0] packetDropNoCarrier:sum(packetBytes) 0
scalar SimpleRREQ2.intermediateNodeA.ipv4.ip packetDropAddressResolutionFailed:count 0
scalar SimpleRREQ2.intermediateNodeA.ipv4.ip packetDropAddressResolutionFailed:sum(packetBytes) 0
scalar SimpleRREQ2.intermediateNodeA.ipv4.ip packetDropHopLimitReached:count 0
scalar SimpleRREQ2.intermediateNodeA.ipv4.ip packetDropHopLimitReached:sum(packetBytes) 0
scalar SimpleRREQ2.intermediateNodeA.ipv4.ip packetDropForwardingDisabled:count 0
scalar SimpleRREQ2.intermediateNodeA.ipv4.ip packetDropForwardingDisabled:sum(packetBytes) 0
scalar SimpleRREQ2.intermediateNodeA.ipv4.ip packetDropLifetimeExpired:count 0
scalar SimpleRREQ2.intermediateNodeA.ipv4.ip packetDropLifetimeExpired:sum(packetBytes) 0
scalar SimpleRREQ2.intermediateNodeA.ipv4.ip packetDropNoInterfaceFound:count 0
scalar SimpleRREQ2.intermediateNodeA.ipv4.ip packetDropNoInterfaceFound:sum(packetBytes) 0
scalar SimpleRREQ2.intermediateNodeA.ipv4.ip packetDropNoRouteFound:count 0
scalar SimpleRREQ2.intermediateNodeA.ipv4.ip packetDropNoRouteFound:sum(packetBytes) 0
scalar SimpleRREQ2.intermediateNodeA.ipv4.ip packetDropUndefined:count 0
scalar SimpleRREQ2.intermediateNodeA.ipv4.ip packetDropUndefined:sum(packetBytes) 0
scalar SimpleRREQ2.intermediateNodeA.ipv4.arp arpResolutionFailed:count 0
scalar SimpleRREQ2.intermediateNodeA.ipv4.arp arpResolutionCompleted:count 2
scalar SimpleRREQ2.intermediateNodeA.ipv4.arp arpResolutionInitiated:count 1
scalar SimpleRREQ2.intermediateNodeA.ipv4.arp arpReplySent:count 1
scalar SimpleRREQ2.intermediateNodeA.ipv4.arp arpReplySent:sum(packetBytes) 28
scalar SimpleRREQ2.intermediateNodeA.ipv4.arp arpRequestSent:count 1
scalar SimpleRREQ2.intermediateNodeA.ipv4.arp arpRequestSent:sum(packetBytes) 28
scalar SimpleRREQ2.intermediateNodeA.udp packetReceived:count 7
scalar SimpleRREQ2.intermediateNodeA.udp packetReceived:sum(packetBytes) 224
scalar SimpleRREQ2.intermediateNodeA.udp packetSent:count 4
scalar SimpleRREQ2.intermediateNodeA.udp packetSent:sum(packetBytes) 120
scalar SimpleRREQ2.intermediateNodeA.udp passedUpPk:count 7
scalar SimpleRREQ2.intermediateNodeA.udp droppedPkWrongPort:count 0
scalar SimpleRREQ2.intermediateNodeA.udp droppedPkBadChecksum:count 0
scalar SimpleRREQ2.intermediateNodeB.lo[0].lo rcvdPkFromHl:count 0
scalar SimpleRREQ2.intermediateNodeB.lo[0].lo rcvdPkFromHl:sum(packetBytes) 0
scalar SimpleRREQ2.intermediateNodeB.lo[0].lo passedUpPk:count 0
scalar SimpleRREQ2.intermediateNodeB.lo[0].lo passedUpPk:sum(packetBytes) 0
scalar SimpleRREQ2.intermediateNodeB.lo[0] packetDropInterfaceDown:count 0
scalar SimpleRREQ2.intermediateNodeB.lo[0] packetDropInterfaceDown:sum(packetBytes) 0
scalar SimpleRREQ2.intermediateNodeB.lo[0] packetDropNoCarrier:count 0
scalar SimpleRREQ2.intermediateNodeB.lo[0] packetDropNoCarrier:sum(packetBytes) 0
scalar SimpleRREQ2.intermediateNodeB.wlan[0].queue queueLength:last 0
scalar SimpleRREQ2.intermediateNodeB.wlan[0].queue queueLength:max 0
scalar SimpleRREQ2.intermediateNodeB.wlan[0].queue queueLength:timeavg 0
scalar SimpleRREQ2.intermediateNodeB.wlan[0].queue queueBitLength:last 0
scalar SimpleRREQ2.intermediateNodeB.wlan[0].queue queueBitLength:max 0
scalar SimpleRREQ2.intermediateNodeB.wlan[0].queue queueBitLength:timeavg 0
scalar SimpleRREQ2.intermediateNodeB.wlan[0].queue outgoingPackets:count 5
scalar SimpleRREQ2.intermediateNodeB.wlan[0].queue outgoingPacketLengths:sum 1664
scalar SimpleRREQ2.intermediateNodeB.wlan[0].queue incomingPackets:count 5
scalar SimpleRREQ2.intermediateNodeB.wlan[0].queue incomingPacketLengths:sum 1664
scalar SimpleRREQ2.intermediateNodeB.wlan[0].queue droppedPacketsQueueOverflow:count 0
scalar SimpleRREQ2.intermediateNodeB.wlan[0].queue droppedPacketLengthsQueueOverflow:sum 0
scalar SimpleRREQ2.intermediateNodeB.wlan[0].mac rcvdPkFromLl:count 403
scalar SimpleRREQ2.intermediateNodeB.wlan[0].mac rcvdPkFromLl:sum(packetBytes) 42509
scalar SimpleRREQ2.intermediateNodeB.wlan[0].mac sentDownPk:count 5
scalar SimpleRREQ2.intermediateNodeB.wlan[0].mac sentDownPk:sum(packetBytes) 323
scalar SimpleRREQ2.intermediateNodeB.wlan[0].mac rcvdPkFromHl:count 5
scalar SimpleRREQ2.intermediateNodeB.wlan[0].mac rcvdPkFromHl:sum(packetBytes) 208
scalar SimpleRREQ2.intermediateNodeB.wlan[0].mac passedUpPk:count 9
scalar SimpleRREQ2.intermediateNodeB.wlan[0].mac passedUpPk:sum(packetBytes) 400
scalar SimpleRREQ2.intermediateNodeB.wlan[0].mac packetDropIncorrectlyReceived:count 0
scalar SimpleRREQ2.intermediateNodeB.wlan[0].mac packetDropIncorrectlyReceived:sum(packetBytes) 0
scalar SimpleRREQ2.intermediateNodeB.wlan[0].mac packetDropInterfaceDown:count 0
scalar SimpleRREQ2.intermediateNodeB.wlan[0].mac packetDropInterfaceDown:sum(packetBytes) 0
scalar SimpleRREQ2.intermediateNodeB.wlan[0].mac packetDropNotAddressedToUs:count 394
scalar SimpleRREQ2.intermediateNodeB.wlan[0].mac packetDropNotAddressedToUs:sum(packetBytes) 41902
scalar SimpleRREQ2.intermediateNodeB.wlan[0].mac linkBroken:count 0
scalar SimpleRREQ2.intermediateNodeB.wlan[0].radio radioMode:count 3
scalar SimpleRREQ2.intermediateNodeB.wlan[0].radio receptionState:count 807
scalar SimpleRREQ2.intermediateNodeB.wlan[0].radio transmissionState:count 11
scalar SimpleRREQ2.intermediateNodeB.wlan[0] packetDropInterfaceDown:count 0
scalar SimpleRREQ2.intermediateNodeB.wlan[0] packetDropInterfaceDown:sum(packetBytes) 0
scalar SimpleRREQ2.intermediateNodeB.wlan[0] packetDropNoCarrier:count 0
scalar SimpleRREQ2.intermediateNodeB.wlan[0] packetDropNoCarrier:sum(packetBytes) 0
scalar SimpleRREQ2.intermediateNodeB.ipv4.ip packetDropAddressResolutionFailed:count 0
scalar SimpleRREQ2.intermediateNodeB.ipv4.ip packetDropAddressResolutionFailed:sum(packetBytes) 0
scalar SimpleRREQ2.intermediateNodeB.ipv4.ip packetDropHopLimitReached:count 0
scalar SimpleRREQ2.intermediateNodeB.ipv4.ip packetDropHopLimitReached:sum(packetBytes) 0
scalar SimpleRREQ2.intermediateNodeB.ipv4.ip packetDropForwardingDisabled:count 0
scalar SimpleRREQ2.intermediateNodeB.ipv4.ip packetDropForwardingDisabled:sum(packetBytes) 0
scalar SimpleRREQ2.intermediateNodeB.ipv4.ip packetDropLifetimeExpired:count 0
scalar SimpleRREQ2.intermediateNodeB.ipv4.ip packetDropLifetimeExpired:sum(packetBytes) 0
scalar SimpleRREQ2.intermediateNodeB.ipv4.ip packetDropNoInterfaceFound:count 0
scalar SimpleRREQ2.intermediateNodeB.ipv4.ip packetDropNoInterfaceFound:sum(packetBytes) 0
scalar SimpleRREQ2.intermediateNodeB.ipv4.ip packetDropNoRouteFound:count 0
scalar SimpleRREQ2.intermediateNodeB.ipv4.ip packetDropNoRouteFound:sum(packetBytes) 0
scalar SimpleRREQ2.intermediateNodeB.ipv4.ip packetDropUndefined:count 0
scalar SimpleRREQ2.intermediateNodeB.ipv4.ip packetDropUndefined:sum(packetBytes) 0
scalar SimpleRREQ2.intermediateNodeB.ipv4.arp arpResolutionFailed:count 0
scalar SimpleRREQ2.intermediateNodeB.ipv4.arp arpResolutionCompleted:count 1
scalar SimpleRREQ2.intermediateNodeB.ipv4.arp arpResolutionInitiated:count 1
scalar SimpleRREQ2.intermediateNodeB.ipv4.arp arpReplySent:count 0
scalar SimpleRREQ2.intermediateNodeB.ipv4.arp arpReplySent:sum(packetBytes) 0
scalar SimpleRREQ2.intermediateNodeB.ipv4.arp arpRequestSent:count 2
scalar SimpleRREQ2.intermediateNodeB.ipv4.arp arpRequestSent:sum(packetBytes) 56
scalar SimpleRREQ2.intermediateNodeB.udp packetReceived:count 6
scalar SimpleRREQ2.intermediateNodeB.udp packetReceived:sum(packetBytes) 196
scalar SimpleRREQ2.intermediateNodeB.udp packetSent:count 3
scalar SimpleRREQ2.intermediateNodeB.udp packetSent:sum(packetBytes) 92
scalar SimpleRREQ2.intermediateNodeB.udp passedUpPk:count 6
scalar SimpleRREQ2.intermediateNodeB.udp droppedPkWrongPort:count 0
scalar SimpleRREQ2.intermediateNodeB.udp droppedPkBadChecksum:count 0
scalar SimpleRREQ2.receiver.lo[0].lo rcvdPkFromHl:count 0
scalar SimpleRREQ2.receiver.lo[0].lo rcvdPkFromHl:sum(packetBytes) 0
scalar SimpleRREQ2.receiver.lo[0].lo passedUpPk:count 0
scalar SimpleRREQ2.receiver.lo[0].lo passedUpPk:sum(packetBytes) 0
scalar SimpleRREQ2.receiver.lo[0] packetDropInterfaceDown:count 0
scalar SimpleRREQ2.receiver.lo[0] packetDropInterfaceDown:sum(packetBytes) 0
scalar SimpleRREQ2.receiver.lo[0] packetDropNoCarrier:count 0
scalar SimpleRREQ2.receiver.lo[0] packetDropNoCarrier:sum(packetBytes) 0
scalar SimpleRREQ2.receiver.wlan[0].queue queueLength:last 0
scalar SimpleRREQ2.receiver.wlan[0].queue queueLength:max 0
scalar SimpleRREQ2.receiver.wlan[0].queue queueLength:timeavg 0
scalar SimpleRREQ2.receiver.wlan[0].queue queueBitLength:last 0
scalar SimpleRREQ2.receiver.wlan[0].queue queueBitLength:max 0
scalar SimpleRREQ2.receiver.wlan[0].queue queueBitLength:timeavg 0
scalar SimpleRREQ2.receiver.wlan[0].queue outgoingPackets:count 103
scalar SimpleRREQ2.receiver.wlan[0].queue outgoingPacketLengths:sum 67264
scalar SimpleRREQ2.receiver.wlan[0].queue incomingPackets:count 103
scalar SimpleRREQ2.receiver.wlan[0].queue incomingPacketLengths:sum 67264
scalar SimpleRREQ2.receiver.wlan[0].queue droppedPacketsQueueOverflow:count 0
scalar SimpleRREQ2.receiver.wlan[0].queue droppedPacketLengthsQueueOverflow:sum 0
scalar SimpleRREQ2.receiver.wlan[0].mac rcvdPkFromLl:count 203
scalar SimpleRREQ2.receiver.wlan[0].mac rcvdPkFromLl:sum(packetBytes) 21349
scalar SimpleRREQ2.receiver.wlan[0].mac sentDownPk:count 103
scalar SimpleRREQ2.receiver.wlan[0].mac sentDownPk:sum(packetBytes) 10777
scalar SimpleRREQ2.receiver.wlan[0].mac rcvdPkFromHl:count 103
scalar SimpleRREQ2.receiver.wlan[0].mac rcvdPkFromHl:sum(packetBytes) 8408
scalar SimpleRREQ2.receiver.wlan[0].mac passedUpPk:count 105
scalar SimpleRREQ2.receiver.wlan[0].mac passedUpPk:sum(packetBytes) 8484
scalar SimpleRREQ2.receiver.wlan[0].mac packetDropIncorrectlyReceived:count 0
scalar SimpleRREQ2.receiver.wlan[0].mac packetDropIncorrectlyReceived:sum(packetBytes) 0
scalar SimpleRREQ2.receiver.wlan[0].mac packetDropInterfaceDown:count 0
scalar SimpleRREQ2.receiver.wlan[0].mac packetDropInterfaceDown:sum(packetBytes) 0
scalar SimpleRREQ2.receiver.wlan[0].mac packetDropNotAddressedToUs:count 98
scalar SimpleRREQ2.receiver.wlan[0].mac packetDropNotAddressedToUs:sum(packetBytes) 10450
scalar SimpleRREQ2.receiver.wlan[0].mac linkBroken:count 1
scalar SimpleRREQ2.receiver.wlan[0].radio radioMode:count 3
scalar SimpleRREQ2.receiver.wlan[0].radio receptionState:count 408
scalar SimpleRREQ2.receiver.wlan[0].radio transmissionState:count 207
scalar SimpleRREQ2.receiver.wlan[0] packetDropInterfaceDown:count 0
scalar SimpleRREQ2.receiver.wlan[0] packetDropInterfaceDown:sum(packetBytes) 0
scalar SimpleRREQ2.receiver.wlan[0] packetDropNoCarrier:count 0
scalar SimpleRREQ2.receiver.wlan[0] packetDropNoCarrier:sum(packetBytes) 0
scalar SimpleRREQ2.receiver.ipv4.ip packetDropAddressResolutionFailed:count 0
scalar SimpleRREQ2.receiver.ipv4.ip packetDropAddressResolutionFailed:sum(packetBytes) 0
scalar SimpleRREQ2.receiver.ipv4.ip packetDropHopLimitReached:count 0
scalar SimpleRREQ2.receiver.ipv4.ip packetDropHopLimitReached:sum(packetBytes) 0
scalar SimpleRREQ2.receiver.ipv4.ip packetDropForwardingDisabled:count 0
scalar SimpleRREQ2.receiver.ipv4.ip packetDropForwardingDisabled:sum(packetBytes) 0
scalar SimpleRREQ2.receiver.ipv4.ip packetDropLifetimeExpired:count 0
scalar SimpleRREQ2.receiver.ipv4.ip packetDropLifetimeExpired:sum(packetBytes) 0
scalar SimpleRREQ2.receiver.ipv4.ip packetDropNoInterfaceFound:count 0
scalar SimpleRREQ2.receiver.ipv4.ip packetDropNoInterfaceFound:sum(packetBytes) 0
scalar SimpleRREQ2.receiver.ipv4.ip packetDropNoRouteFound:count 0
scalar SimpleRREQ2.receiver.ipv4.ip packetDropNoRouteFound:sum(packetBytes) 0
scalar SimpleRREQ2.receiver.ipv4.ip packetDropUndefined:count 0
scalar SimpleRREQ2.receiver.ipv4.ip packetDropUndefined:sum(packetBytes) 0
scalar SimpleRREQ2.receiver.ipv4.arp arpResolutionFailed:count 0
scalar SimpleRREQ2.receiver.ipv4.arp arpResolutionCompleted:count 3
scalar SimpleRREQ2.receiver.ipv4.arp arpResolutionInitiated:count 1
scalar SimpleRREQ2.receiver.ipv4.arp arpReplySent:count 1
scalar SimpleRREQ2.receiver.ipv4.arp arpReplySent:sum(packetBytes) 28
scalar SimpleRREQ2.receiver.ipv4.arp arpRequestSent:count 1
scalar SimpleRREQ2.receiver.ipv4.arp arpRequestSent:sum(packetBytes) 28
scalar SimpleRREQ2.receiver.udp packetReceived:count 5
scalar SimpleRREQ2.receiver.udp packetReceived:sum(packetBytes) 152
scalar SimpleRREQ2.receiver.udp packetSent:count 4
scalar SimpleRREQ2.receiver.udp packetSent:sum(packetBytes) 124
scalar SimpleRREQ2.receiver.udp passedUpPk:count 5
scalar SimpleRREQ2.receiver.udp droppedPkWrongPort:count 0
scalar SimpleRREQ2.receiver.udp droppedPkBadChecksum:count 0
scalar SimpleRREQ2.sender.wlan[0].queue queueingTime:histogram:count 100
scalar SimpleRREQ2.sender.wlan[0].queue queueingTime:histogram:sumweights 100
scalar SimpleRREQ2.sender.wlan[0].queue queueingTime:histogram:mean 0
scalar SimpleRREQ2.sender.wlan[0].queue queueingTime:histogram:stddev 0
scalar SimpleRREQ2.sender.wlan[0].queue queueingTime:histogram:min 0
scalar SimpleRREQ2.sender.wlan[0].queue queueingTime:histogram:max 0
scalar SimpleRREQ2.sender.wlan[0].queue queueingTime:histogram:numbins 50
scalar SimpleRREQ2.sender.wlan[0].queue queueingTime:histogram:rangemin -0.5
scalar SimpleRREQ2.sender.wlan[0].queue queueingTime:histogram:rangemax 0.5
scalar SimpleRREQ2.sender.wlan[0].queue queueingTime:histogram:underflows 0
scalar SimpleRREQ2.sender.wlan[0].queue queueingTime:histogram:overflows 0
scalar SimpleRREQ2.sender.wlan[0].queue outgoingPacketLengths:histogram:count 100
scalar SimpleRREQ2.sender.wlan[0].queue outgoingPacketLengths:histogram:sumweights 100
scalar SimpleRREQ2.sender.wlan[0].queue outgoingPacketLengths:histogram:mean 662.4
scalar SimpleRREQ2.sender.wlan[0].queue outgoingPacketLengths:histogram:stddev 57.080485441014
scalar SimpleRREQ2.sender.wlan[0].queue outgoingPacketLengths:histogram:min 224
scalar SimpleRREQ2.sender.wlan[0].queue outgoingPacketLengths:histogram:max 672
scalar SimpleRREQ2.sender.wlan[0].queue outgoingPacketLengths:histogram:numbins 68
scalar SimpleRREQ2.sender.wlan[0].queue outgoingPacketLengths:histogram:rangemin 110
scalar SimpleRREQ2.sender.wlan[0].queue outgoingPacketLengths:histogram:rangemax 790
scalar SimpleRREQ2.sender.wlan[0].queue outgoingPacketLengths:histogram:underflows 0
scalar SimpleRREQ2.sender.wlan[0].queue outgoingPacketLengths:histogram:overflows 0
scalar SimpleRREQ2.sender.wlan[0].queue flowQueueingTime:histogram:count 0
scalar SimpleRREQ2.sender.wlan[0].queue flowQueueingTime:histogram:sumweights 0
scalar SimpleRREQ2.sender.wlan[0].queue flowQueueingTime:histogram:mean -nan
scalar SimpleRREQ2.sender.wlan[0].queue flowQueueingTime:histogram:stddev nan
scalar SimpleRREQ2.sender.wlan[0].queue flowQueueingTime:histogram:min nan
scalar SimpleRREQ2.sender.wlan[0].queue flowQueueingTime:histogram:max nan
scalar SimpleRREQ2.sender.wlan[0].queue flowQueueingTime:histogram:numbins 1
scalar SimpleRREQ2.sender.wlan[0].queue flowQueueingTime:histogram:rangemin 0
scalar SimpleRREQ2.sender.wlan[0].queue flowQueueingTime:histogram:rangemax 1
scalar SimpleRREQ2.sender.wlan[0].queue flowQueueingTime:histogram:underflows 0
scalar SimpleRREQ2.sender.wlan[0].queue flowQueueingTime:histogram:overflows 0
scalar SimpleRREQ2.sender.wlan[0].queue incomingPacketLengths:histogram:count 100
scalar SimpleRREQ2.sender.wlan[0].queue incomingPacketLengths:histogram:sumweights 100
scalar SimpleRREQ2.sender.wlan[0].queue incomingPacketLengths:histogram:mean 662.4
scalar SimpleRREQ2.sender.wlan[0].queue incomingPacketLengths:histogram:stddev 57.080485441014
scalar SimpleRREQ2.sender.wlan[0].queue incomingPacketLengths:histogram:min 224
scalar SimpleRREQ2.sender.wlan[0].queue incomingPacketLengths:histogram:max 672
scalar SimpleRREQ2.sender.wlan[0].queue incomingPacketLengths:histogram:numbins 68
scalar SimpleRREQ2.sender.wlan[0].queue incomingPacketLengths:histogram:rangemin 110
scalar SimpleRREQ2.sender.wlan[0].queue incomingPacketLengths:histogram:rangemax 790
scalar SimpleRREQ2.sender.wlan[0].queue incomingPacketLengths:histogram:underflows 0
scalar SimpleRREQ2.sender.wlan[0].queue incomingPacketLengths:histogram:overflows 0
scalar SimpleRREQ2.sender.wlan[0].radio minSnir:histogram:count 203
scalar SimpleRREQ2.sender.wlan[0].radio minSnir:histogram:sumweights 203
scalar SimpleRREQ2.sender.wlan[0].radio minSnir:histogram:mean inf
scalar SimpleRREQ2.sender.wlan[0].radio minSnir:histogram:stddev -nan
scalar SimpleRREQ2.sender.wlan[0].radio minSnir:histogram:min 0
scalar SimpleRREQ2.sender.wlan[0].radio minSnir:histogram:max inf
scalar SimpleRREQ2.sender.wlan[0].radio minSnir:histogram:numbins 50
scalar SimpleRREQ2.sender.wlan[0].radio minSnir:histogram:rangemin -0.5
scalar SimpleRREQ2.sender.wlan[0].radio minSnir:histogram:rangemax 0.5
scalar SimpleRREQ2.sender.wlan[0].radio minSnir:histogram:underflows 0
scalar SimpleRREQ2.sender.wlan[0].radio minSnir:histogram:overflows 201
scalar SimpleRREQ2.sender.wlan[0].radio packetErrorRate:histogram:count 203
scalar SimpleRREQ2.sender.wlan[0].radio packetErrorRate:histogram:sumweights 203
scalar SimpleRREQ2.sender.wlan[0].radio packetErrorRate:histogram:mean 0.0098522167487685
scalar SimpleRREQ2.sender.wlan[0].radio packetErrorRate:histogram:stddev 0.099012339627579
scalar SimpleRREQ2.sender.wlan[0].radio packetErrorRate:histogram:min 0
scalar SimpleRREQ2.sender.wlan[0].radio packetErrorRate:histogram:max 1
scalar SimpleRREQ2.sender.wlan[0].radio packetErrorRate:histogram:numbins 2
scalar SimpleRREQ2.sender.wlan[0].radio packetErrorRate:histogram:rangemin 0
scalar SimpleRREQ2.sender.wlan[0].radio packetErrorRate:histogram:rangemax 2
scalar SimpleRREQ2.sender.wlan[0].radio packetErrorRate:histogram:underflows 0
scalar SimpleRREQ2.sender.wlan[0].radio packetErrorRate:histogram:overflows 0
scalar SimpleRREQ2.sender.wlan[0].radio bitErrorRate:histogram:count 203
scalar SimpleRREQ2.sender.wlan[0].radio bitErrorRate:histogram:sumweights 203
scalar SimpleRREQ2.sender.wlan[0].radio bitErrorRate:histogram:mean 0.0098522167487685
scalar SimpleRREQ2.sender.wlan[0].radio bitErrorRate:histogram:stddev 0.099012339627579
scalar SimpleRREQ2.sender.wlan[0].radio bitErrorRate:histogram:min 0
scalar SimpleRREQ2.sender.wlan[0].radio bitErrorRate:histogram:max 1
scalar SimpleRREQ2.sender.wlan[0].radio bitErrorRate:histogram:numbins 2
scalar SimpleRREQ2.sender.wlan[0].radio bitErrorRate:histogram:rangemin 0
scalar SimpleRREQ2.sender.wlan[0].radio bitErrorRate:histogram:rangemax 2
scalar SimpleRREQ2.sender.wlan[0].radio bitErrorRate:histogram:underflows 0
scalar SimpleRREQ2.sender.wlan[0].radio bitErrorRate:histogram:overflows 0
scalar SimpleRREQ2.sender.wlan[0].radio symbolErrorRate:histogram:count 203
scalar SimpleRREQ2.sender.wlan[0].radio symbolErrorRate:histogram:sumweights 203
scalar SimpleRREQ2.sender.wlan[0].radio symbolErrorRate:histogram:mean 0.0098522167487685
scalar SimpleRREQ2.sender.wlan[0].radio symbolErrorRate:histogram:stddev 0.099012339627579
scalar SimpleRREQ2.sender.wlan[0].radio symbolErrorRate:histogram:min 0
scalar SimpleRREQ2.sender.wlan[0].radio symbolErrorRate:histogram:max 1
scalar SimpleRREQ2.sender.wlan[0].radio symbolErrorRate:histogram:numbins 2
scalar SimpleRREQ2.sender.wlan[0].radio symbolErrorRate:histogram:rangemin 0
scalar SimpleRREQ2.sender.wlan[0].radio symbolErrorRate:histogram:rangemax 2
scalar SimpleRREQ2.sender.wlan[0].radio symbolErrorRate:histogram:underflows 0
scalar SimpleRREQ2.sender.wlan[0].radio symbolErrorRate:histogram:overflows 0
scalar SimpleRREQ2.sender.app[0] rtt:histogram:count 97
scalar SimpleRREQ2.sender.app[0] rtt:histogram:sumweights 97
scalar SimpleRREQ2.sender.app[0] rtt:histogram:mean 0.0053579722452371
scalar SimpleRREQ2.sender.app[0] rtt:histogram:stddev 0.033993698895616
scalar SimpleRREQ2.sender.app[0] rtt:histogram:min 0.001906435064
scalar SimpleRREQ2.sender.app[0] rtt:histogram:max 0.336705541644
scalar SimpleRREQ2.sender.app[0] rtt:histogram:numbins 85
scalar SimpleRREQ2.sender.app[0] rtt:histogram:rangemin 0
scalar SimpleRREQ2.sender.app[0] rtt:histogram:rangemax 0.425
scalar SimpleRREQ2.sender.app[0] rtt:histogram:underflows 0
scalar SimpleRREQ2.sender.app[0] rtt:histogram:overflows 0
scalar SimpleRREQ2.intermediateNodeA.wlan[0].queue queueingTime:histogram:count 200
scalar SimpleRREQ2.intermediateNodeA.wlan[0].queue queueingTime:histogram:sumweights 200
scalar SimpleRREQ2.intermediateNodeA.wlan[0].queue queueingTime:histogram:mean 0
scalar SimpleRREQ2.intermediateNodeA.wlan[0].queue queueingTime:histogram:stddev 0
scalar SimpleRREQ2.intermediateNodeA.wlan[0].queue queueingTime:histogram:min 0
scalar SimpleRREQ2.intermediateNodeA.wlan[0].queue queueingTime:histogram:max 0
scalar SimpleRREQ2.intermediateNodeA.wlan[0].queue queueingTime:histogram:numbins 50
scalar SimpleRREQ2.intermediateNodeA.wlan[0].queue queueingTime:histogram:rangemin -0.5
scalar SimpleRREQ2.intermediateNodeA.wlan[0].queue queueingTime:histogram:rangemax 0.5
scalar SimpleRREQ2.intermediateNodeA.wlan[0].queue queueingTime:histogram:underflows 0
scalar SimpleRREQ2.intermediateNodeA.wlan[0].queue queueingTime:histogram:overflows 0
scalar SimpleRREQ2.intermediateNodeA.wlan[0].queue outgoingPacketLengths:histogram:count 200
scalar SimpleRREQ2.intermediateNodeA.wlan[0].queue outgoingPacketLengths:histogram:sumweights 200
scalar SimpleRREQ2.intermediateNodeA.wlan[0].queue outgoingPacketLengths:histogram:mean 662.08
scalar SimpleRREQ2.intermediateNodeA.wlan[0].queue outgoingPacketLengths:histogram:stddev 58.399366693062
scalar SimpleRREQ2.intermediateNodeA.wlan[0].queue outgoingPacketLengths:histogram:min 224
scalar SimpleRREQ2.intermediateNodeA.wlan[0].queue outgoingPacketLengths:histogram:max 672
scalar SimpleRREQ2.intermediateNodeA.wlan[0].queue outgoingPacketLengths:histogram:numbins 68
scalar SimpleRREQ2.intermediateNodeA.wlan[0].queue outgoingPacketLengths:histogram:rangemin 110
scalar SimpleRREQ2.intermediateNodeA.wlan[0].queue outgoingPacketLengths:histogram:rangemax 790
scalar SimpleRREQ2.intermediateNodeA.wlan[0].queue outgoingPacketLengths:histogram:underflows 0
scalar SimpleRREQ2.intermediateNodeA.wlan[0].queue outgoingPacketLengths:histogram:overflows 0
scalar SimpleRREQ2.intermediateNodeA.wlan[0].queue flowQueueingTime:histogram:count 0
scalar SimpleRREQ2.intermediateNodeA.wlan[0].queue flowQueueingTime:histogram:sumweights 0
scalar SimpleRREQ2.intermediateNodeA.wlan[0].queue flowQueueingTime:histogram:mean -nan
scalar SimpleRREQ2.intermediateNodeA.wlan[0].queue flowQueueingTime:histogram:stddev nan
scalar SimpleRREQ2.intermediateNodeA.wlan[0].queue flowQueueingTime:histogram:min nan
scalar SimpleRREQ2.intermediateNodeA.wlan[0].queue flowQueueingTime:histogram:max nan
scalar SimpleRREQ2.intermediateNodeA.wlan[0].queue flowQueueingTime:histogram:numbins 1
scalar SimpleRREQ2.intermediateNodeA.wlan[0].queue flowQueueingTime:histogram:rangemin 0
scalar SimpleRREQ2.intermediateNodeA.wlan[0].queue flowQueueingTime:histogram:rangemax 1
scalar SimpleRREQ2.intermediateNodeA.wlan[0].queue flowQueueingTime:histogram:underflows 0
scalar SimpleRREQ2.intermediateNodeA.wlan[0].queue flowQueueingTime:histogram:overflows 0
scalar SimpleRREQ2.intermediateNodeA.wlan[0].queue incomingPacketLengths:histogram:count 200
scalar SimpleRREQ2.intermediateNodeA.wlan[0].queue incomingPacketLengths:histogram:sumweights 200
scalar SimpleRREQ2.intermediateNodeA.wlan[0].queue incomingPacketLengths:histogram:mean 662.08
scalar SimpleRREQ2.intermediateNodeA.wlan[0].queue incomingPacketLengths:histogram:stddev 58.399366693062
scalar SimpleRREQ2.intermediateNodeA.wlan[0].queue incomingPacketLengths:histogram:min 224
scalar SimpleRREQ2.intermediateNodeA.wlan[0].queue incomingPacketLengths:histogram:max 672
scalar SimpleRREQ2.intermediateNodeA.wlan[0].queue incomingPacketLengths:histogram:numbins 68
scalar SimpleRREQ2.intermediateNodeA.wlan[0].queue incomingPacketLengths:histogram:rangemin 110
scalar SimpleRREQ2.intermediateNodeA.wlan[0].queue incomingPacketLengths:histogram:rangemax 790
scalar SimpleRREQ2.intermediateNodeA.wlan[0].queue incomingPacketLengths:histogram:underflows 0
scalar SimpleRREQ2.intermediateNodeA.wlan[0].queue incomingPacketLengths:histogram:overflows 0
scalar SimpleRREQ2.intermediateNodeA.wlan[0].radio minSnir:histogram:count 207
scalar SimpleRREQ2.intermediateNodeA.wlan[0].radio minSnir:histogram:sumweights 207
scalar SimpleRREQ2.intermediateNodeA.wlan[0].radio minSnir:histogram:mean inf
scalar SimpleRREQ2.intermediateNodeA.wlan[0].radio minSnir:histogram:stddev -nan
scalar SimpleRREQ2.intermediateNodeA.wlan[0].radio minSnir:histogram:min 0
scalar SimpleRREQ2.intermediateNodeA.wlan[0].radio minSnir:histogram:max inf
scalar SimpleRREQ2.intermediateNodeA.wlan[0].radio minSnir:histogram:numbins 50
scalar SimpleRREQ2.intermediateNodeA.wlan[0].radio minSnir:histogram:rangemin -0.5
scalar SimpleRREQ2.intermediateNodeA.wlan[0].radio minSnir:histogram:rangemax 0.5
scalar SimpleRREQ2.intermediateNodeA.wlan[0].radio minSnir:histogram:underflows 0
scalar SimpleRREQ2.intermediateNodeA.wlan[0].radio minSnir:histogram:overflows 206
scalar SimpleRREQ2.intermediateNodeA.wlan[0].radio packetErrorRate:histogram:count 207
scalar SimpleRREQ2.intermediateNodeA.wlan[0].radio packetErrorRate:histogram:sumweights 207
scalar SimpleRREQ2.intermediateNodeA.wlan[0].radio packetErrorRate:histogram:mean 0.0048309178743961
scalar SimpleRREQ2.intermediateNodeA.wlan[0].radio packetErrorRate:histogram:stddev 0.069504804685692
scalar SimpleRREQ2.intermediateNodeA.wlan[0].radio packetErrorRate:histogram:min 0
scalar SimpleRREQ2.intermediateNodeA.wlan[0].radio packetErrorRate:histogram:max 1
scalar SimpleRREQ2.intermediateNodeA.wlan[0].radio packetErrorRate:histogram:numbins 2
scalar SimpleRREQ2.intermediateNodeA.wlan[0].radio packetErrorRate:histogram:rangemin 0
scalar SimpleRREQ2.intermediateNodeA.wlan[0].radio packetErrorRate:histogram:rangemax 2
scalar SimpleRREQ2.intermediateNodeA.wlan[0].radio packetErrorRate:histogram:underflows 0
scalar SimpleRREQ2.intermediateNodeA.wlan[0].radio packetErrorRate:histogram:overflows 0
scalar SimpleRREQ2.intermediateNodeA.wlan[0].radio bitErrorRate:histogram:count 207
scalar SimpleRREQ2.intermediateNodeA.wlan[0].radio bitErrorRate:histogram:sumweights 207
scalar SimpleRREQ2.intermediateNodeA.wlan[0].radio bitErrorRate:histogram:mean 0.0048309178743961
scalar SimpleRREQ2.intermediateNodeA.wlan[0].radio bitErrorRate:histogram:stddev 0.069504804685692
scalar SimpleRREQ2.intermediateNodeA.wlan[0].radio bitErrorRate:histogram:min 0
scalar SimpleRREQ2.intermediateNodeA.wlan[0].radio bitErrorRate:histogram:max 1
scalar SimpleRREQ2.intermediateNodeA.wlan[0].radio bitErrorRate:histogram:numbins 2
scalar SimpleRREQ2.intermediateNodeA.wlan[0].radio bitErrorRate:histogram:rangemin 0
scalar SimpleRREQ2.intermediateNodeA.wlan[0].radio bitErrorRate:histogram:rangemax 2
scalar SimpleRREQ2.intermediateNodeA.wlan[0].radio bitErrorRate:histogram:underflows 0
scalar SimpleRREQ2.intermediateNodeA.wlan[0].radio bitErrorRate:histogram:overflows 0
scalar SimpleRREQ2.intermediateNodeA.wlan[0].radio symbolErrorRate:histogram:count 207
scalar SimpleRREQ2.intermediateNodeA.wlan[0].radio symbolErrorRate:histogram:sumweights 207
scalar SimpleRREQ2.intermediateNodeA.wlan[0].radio symbolErrorRate:histogram:mean 0.0048309178743961
scalar SimpleRREQ2.intermediateNodeA.wlan[0].radio symbolErrorRate:histogram:stddev 0.069504804685692
scalar SimpleRREQ2.intermediateNodeA.wlan[0].radio symbolErrorRate:histogram:min 0
scalar SimpleRREQ2.intermediateNodeA.wlan[0].radio symbolErrorRate:histogram:max 1
scalar SimpleRREQ2.intermediateNodeA.wlan[0].radio symbolErrorRate:histogram:numbins 2
scalar SimpleRREQ2.intermediateNodeA.wlan[0].radio symbolErrorRate:histogram:rangemin 0
scalar SimpleRREQ2.intermediateNodeA.wlan[0].radio symbolErrorRate:histogram:rangemax 2
scalar SimpleRREQ2.intermediateNodeA.wlan[0].radio symbolErrorRate:histogram:underflows 0
scalar SimpleRREQ2.intermediateNodeA.wlan[0].radio symbolErrorRate:histogram:overflows 0
scalar SimpleRREQ2.intermediateNodeB.wlan[0].queue queueingTime:histogram:count 5
scalar SimpleRREQ2.intermediateNodeB.wlan[0].queue queueingTime:histogram:sumweights 5
scalar SimpleRREQ2.intermediateNodeB.wlan[0].queue queueingTime:histogram:mean 0
scalar SimpleRREQ2.intermediateNodeB.wlan[0].queue queueingTime:histogram:stddev 0
scalar SimpleRREQ2.intermediateNodeB.wlan[0].queue queueingTime:histogram:min 0
scalar SimpleRREQ2.intermediateNodeB.wlan[0].queue queueingTime:histogram:max 0
scalar SimpleRREQ2.intermediateNodeB.wlan[0].queue queueingTime:histogram:numbins 50
scalar SimpleRREQ2.intermediateNodeB.wlan[0].queue queueingTime:histogram:rangemin -0.5
scalar SimpleRREQ2.intermediateNodeB.wlan[0].queue queueingTime:histogram:rangemax 0.5
scalar SimpleRREQ2.intermediateNodeB.wlan[0].queue queueingTime:histogram:underflows 0
scalar SimpleRREQ2.intermediateNodeB.wlan[0].queue queueingTime:histogram:overflows 0
scalar SimpleRREQ2.intermediateNodeB.wlan[0].queue outgoingPacketLengths:histogram:count 5
scalar SimpleRREQ2.intermediateNodeB.wlan[0].queue outgoingPacketLengths:histogram:sumweights 5
scalar SimpleRREQ2.intermediateNodeB.wlan[0].queue outgoingPacketLengths:histogram:mean 332.8
scalar SimpleRREQ2.intermediateNodeB.wlan[0].queue outgoingPacketLengths:histogram:stddev 100.17584539199
scalar SimpleRREQ2.intermediateNodeB.wlan[0].queue outgoingPacketLengths:histogram:min 224
scalar SimpleRREQ2.intermediateNodeB.wlan[0].queue outgoingPacketLengths:histogram:max 416
scalar SimpleRREQ2.intermediateNodeB.wlan[0].queue outgoingPacketLengths:histogram:numbins 58
scalar SimpleRREQ2.intermediateNodeB.wlan[0].queue outgoingPacketLengths:histogram:rangemin 175
scalar SimpleRREQ2.intermediateNodeB.wlan[0].queue outgoingPacketLengths:histogram:rangemax 465
scalar SimpleRREQ2.intermediateNodeB.wlan[0].queue outgoingPacketLengths:histogram:underflows 0
scalar SimpleRREQ2.intermediateNodeB.wlan[0].queue outgoingPacketLengths:histogram:overflows 0
scalar SimpleRREQ2.intermediateNodeB.wlan[0].queue flowQueueingTime:histogram:count 0
scalar SimpleRREQ2.intermediateNodeB.wlan[0].queue flowQueueingTime:histogram:sumweights 0
scalar SimpleRREQ2.intermediateNodeB.wlan[0].queue flowQueueingTime:histogram:mean -nan
scalar SimpleRREQ2.intermediateNodeB.wlan[0].queue flowQueueingTime:histogram:stddev nan
scalar SimpleRREQ2.intermediateNodeB.wlan[0].queue flowQueueingTime:histogram:min nan
scalar SimpleRREQ2.intermediateNodeB.wlan[0].queue flowQueueingTime:histogram:max nan
scalar SimpleRREQ2.intermediateNodeB.wlan[0].queue flowQueueingTime:histogram:numbins 1
scalar SimpleRREQ2.intermediateNodeB.wlan[0].queue flowQueueingTime:histogram:rangemin 0
scalar SimpleRREQ2.intermediateNodeB.wlan[0].queue flowQueueingTime:histogram:rangemax 1
scalar SimpleRREQ2.intermediateNodeB.wlan[0].queue flowQueueingTime:histogram:underflows 0
scalar SimpleRREQ2.intermediateNodeB.wlan[0].queue flowQueueingTime:histogram:overflows 0
scalar SimpleRREQ2.intermediateNodeB.wlan[0].queue incomingPacketLengths:histogram:count 5
scalar SimpleRREQ2.intermediateNodeB.wlan[0].queue incomingPacketLengths:histogram:sumweights 5
scalar SimpleRREQ2.intermediateNodeB.wlan[0].queue incomingPacketLengths:histogram:mean 332.8
scalar SimpleRREQ2.intermediateNodeB.wlan[0].queue incomingPacketLengths:histogram:stddev 100.17584539199
scalar SimpleRREQ2.intermediateNodeB.wlan[0].queue incomingPacketLengths:histogram:min 224
scalar SimpleRREQ2.intermediateNodeB.wlan[0].queue incomingPacketLengths:histogram:max 416
scalar SimpleRREQ2.intermediateNodeB.wlan[0].queue incomingPacketLengths:histogram:numbins 58
scalar SimpleRREQ2.intermediateNodeB.wlan[0].queue incomingPacketLengths:histogram:rangemin 175
scalar SimpleRREQ2.intermediateNodeB.wlan[0].queue incomingPacketLengths:histogram:rangemax 465
scalar SimpleRREQ2.intermediateNodeB.wlan[0].queue incomingPacketLengths:histogram:underflows 0
scalar SimpleRREQ2.intermediateNodeB.wlan[0].queue incomingPacketLengths:histogram:overflows 0
scalar SimpleRREQ2.intermediateNodeB.wlan[0].radio minSnir:histogram:count 403
scalar SimpleRREQ2.intermediateNodeB.wlan[0].radio minSnir:histogram:sumweights 403
scalar SimpleRREQ2.intermediateNodeB.wlan[0].radio minSnir:histogram:mean inf
scalar SimpleRREQ2.intermediateNodeB.wlan[0].radio minSnir:histogram:stddev 0
scalar SimpleRREQ2.intermediateNodeB.wlan[0].radio minSnir:histogram:min inf
scalar SimpleRREQ2.intermediateNodeB.wlan[0].radio minSnir:histogram:max inf
scalar SimpleRREQ2.intermediateNodeB.wlan[0].radio minSnir:histogram:numbins 1
scalar SimpleRREQ2.intermediateNodeB.wlan[0].radio minSnir:histogram:rangemin 0
scalar SimpleRREQ2.intermediateNodeB.wlan[0].radio minSnir:histogram:rangemax 1
scalar SimpleRREQ2.intermediateNodeB.wlan[0].radio minSnir:histogram:underflows 0
scalar SimpleRREQ2.intermediateNodeB.wlan[0].radio minSnir:histogram:overflows 403
scalar SimpleRREQ2.intermediateNodeB.wlan[0].radio packetErrorRate:histogram:count 403
scalar SimpleRREQ2.intermediateNodeB.wlan[0].radio packetErrorRate:histogram:sumweights 403
scalar SimpleRREQ2.intermediateNodeB.wlan[0].radio packetErrorRate:histogram:mean 0
scalar SimpleRREQ2.intermediateNodeB.wlan[0].radio packetErrorRate:histogram:stddev 0
scalar SimpleRREQ2.intermediateNodeB.wlan[0].radio packetErrorRate:histogram:min 0
scalar SimpleRREQ2.intermediateNodeB.wlan[0].radio packetErrorRate:histogram:max 0
scalar SimpleRREQ2.intermediateNodeB.wlan[0].radio packetErrorRate:histogram:numbins 50
scalar SimpleRREQ2.intermediateNodeB.wlan[0].radio packetErrorRate:histogram:rangemin -0.5
scalar SimpleRREQ2.intermediateNodeB.wlan[0].radio packetErrorRate:histogram:rangemax 0.5
scalar SimpleRREQ2.intermediateNodeB.wlan[0].radio packetErrorRate:histogram:underflows 0
scalar SimpleRREQ2.intermediateNodeB.wlan[0].radio packetErrorRate:histogram:overflows 0
scalar SimpleRREQ2.intermediateNodeB.wlan[0].radio bitErrorRate:histogram:count 403
scalar SimpleRREQ2.intermediateNodeB.wlan[0].radio bitErrorRate:histogram:sumweights 403
scalar SimpleRREQ2.intermediateNodeB.wlan[0].radio bitErrorRate:histogram:mean 0
scalar SimpleRREQ2.intermediateNodeB.wlan[0].radio bitErrorRate:histogram:stddev 0
scalar SimpleRREQ2.intermediateNodeB.wlan[0].radio bitErrorRate:histogram:min 0
scalar SimpleRREQ2.intermediateNodeB.wlan[0].radio bitErrorRate:histogram:max 0
scalar SimpleRREQ2.intermediateNodeB.wlan[0].radio bitErrorRate:histogram:numbins 50
scalar SimpleRREQ2.intermediateNodeB.wlan[0].radio bitErrorRate:histogram:rangemin -0.5
scalar SimpleRREQ2.intermediateNodeB.wlan[0].radio bitErrorRate:histogram:rangemax 0.5
scalar SimpleRREQ2.intermediateNodeB.wlan[0].radio bitErrorRate:histogram:underflows 0
scalar SimpleRREQ2.intermediateNodeB.wlan[0].radio bitErrorRate:histogram:overflows 0
scalar SimpleRREQ2.intermediateNodeB.wlan[0].radio symbolErrorRate:histogram:count 403
scalar SimpleRREQ2.intermediateNodeB.wlan[0].radio symbolErrorRate:histogram:sumweights 403
scalar SimpleRREQ2.intermediateNodeB.wlan[0].radio symbolErrorRate:histogram:mean 0
scalar SimpleRREQ2.intermediateNodeB.wlan[0].radio symbolErrorRate:histogram:stddev 0
scalar SimpleRREQ2.intermediateNodeB.wlan[0].radio symbolErrorRate:histogram:min 0
scalar SimpleRREQ2.intermediateNodeB.wlan[0].radio symbolErrorRate:histogram:max 0
scalar SimpleRREQ2.intermediateNodeB.wlan[0].radio symbolErrorRate:histogram:numbins 50
scalar SimpleRREQ2.intermediateNodeB.wlan[0].radio symbolErrorRate:histogram:rangemin -0.5
scalar SimpleRREQ2.intermediateNodeB.wlan[0].radio symbolErrorRate:histogram:rangemax 0.5
scalar SimpleRREQ2.intermediateNodeB.wlan[0].radio symbolErrorRate:histogram:underflows 0
scalar SimpleRREQ2.intermediateNodeB.wlan[0].radio symbolErrorRate:histogram:overflows 0
scalar SimpleRREQ2.receiver.wlan[0].queue queueingTime:histogram:count 103
scalar SimpleRREQ2.receiver.wlan[0].queue queueingTime:histogram:sumweights 103
scalar SimpleRREQ2.receiver.wlan[0].queue queueingTime:histogram:mean 0
scalar SimpleRREQ2.receiver.wlan[0].queue queueingTime:histogram:stddev 0
scalar SimpleRREQ2.receiver.wlan[0].queue queueingTime:histogram:min 0
scalar SimpleRREQ2.receiver.wlan[0].queue queueingTime:histogram:max 0
scalar SimpleRREQ2.receiver.wlan[0].queue queueingTime:histogram:numbins 50
scalar SimpleRREQ2.receiver.wlan[0].queue queueingTime:histogram:rangemin -0.5
scalar SimpleRREQ2.receiver.wlan[0].queue queueingTime:histogram:rangemax 0.5
scalar SimpleRREQ2.receiver.wlan[0].queue queueingTime:histogram:underflows 0
scalar SimpleRREQ2.receiver.wlan[0].queue queueingTime:histogram:overflows 0
scalar SimpleRREQ2.receiver.wlan[0].queue outgoingPacketLengths:histogram:count 103
scalar SimpleRREQ2.receiver.wlan[0].queue outgoingPacketLengths:histogram:sumweights 103
scalar SimpleRREQ2.receiver.wlan[0].queue outgoingPacketLengths:histogram:mean 653.04854368932
scalar SimpleRREQ2.receiver.wlan[0].queue outgoingPacketLengths:histogram:stddev 79.583151562151
scalar SimpleRREQ2.receiver.wlan[0].queue outgoingPacketLengths:histogram:min 224
scalar SimpleRREQ2.receiver.wlan[0].queue outgoingPacketLengths:histogram:max 672
scalar SimpleRREQ2.receiver.wlan[0].queue outgoingPacketLengths:histogram:numbins 68
scalar SimpleRREQ2.receiver.wlan[0].queue outgoingPacketLengths:histogram:rangemin 110
scalar SimpleRREQ2.receiver.wlan[0].queue outgoingPacketLengths:histogram:rangemax 790
scalar SimpleRREQ2.receiver.wlan[0].queue outgoingPacketLengths:histogram:underflows 0
scalar SimpleRREQ2.receiver.wlan[0].queue outgoingPacketLengths:histogram:overflows 0
scalar SimpleRREQ2.receiver.wlan[0].queue flowQueueingTime:histogram:count 0
scalar SimpleRREQ2.receiver.wlan[0].queue flowQueueingTime:histogram:sumweights 0
scalar SimpleRREQ2.receiver.wlan[0].queue flowQueueingTime:histogram:mean -nan
scalar SimpleRREQ2.receiver.wlan[0].queue flowQueueingTime:histogram:stddev nan
scalar SimpleRREQ2.receiver.wlan[0].queue flowQueueingTime:histogram:min nan
scalar SimpleRREQ2.receiver.wlan[0].queue flowQueueingTime:histogram:max nan
scalar SimpleRREQ2.receiver.wlan[0].queue flowQueueingTime:histogram:numbins 1
scalar SimpleRREQ2.receiver.wlan[0].queue flowQueueingTime:histogram:rangemin 0
scalar SimpleRREQ2.receiver.wlan[0].queue flowQueueingTime:histogram:rangemax 1
scalar SimpleRREQ2.receiver.wlan[0].queue flowQueueingTime:histogram:underflows 0
scalar SimpleRREQ2.receiver.wlan[0].queue flowQueueingTime:histogram:overflows 0
scalar SimpleRREQ2.receiver.wlan[0].queue incomingPacketLengths:histogram:count 103
scalar SimpleRREQ2.receiver.wlan[0].queue incomingPacketLengths:histogram:sumweights 103
scalar SimpleRREQ2.receiver.wlan[0].queue incomingPacketLengths:histogram:mean 653.04854368932
scalar SimpleRREQ2.receiver.wlan[0].queue incomingPacketLengths:histogram:stddev 79.583151562151
scalar SimpleRREQ2.receiver.wlan[0].queue incomingPacketLengths:histogram:min 224
scalar SimpleRREQ2.receiver.wlan[0].queue incomingPacketLengths:histogram:max 672
scalar SimpleRREQ2.receiver.wlan[0].queue incomingPacketLengths:histogram:numbins 68
scalar SimpleRREQ2.receiver.wlan[0].queue incomingPacketLengths:histogram:rangemin 110
scalar SimpleRREQ2.receiver.wlan[0].queue incomingPacketLengths:histogram:rangemax 790
scalar SimpleRREQ2.receiver.wlan[0].queue incomingPacketLengths:histogram:underflows 0
scalar SimpleRREQ2.receiver.wlan[0].queue incomingPacketLengths:histogram:overflows 0
scalar SimpleRREQ2.receiver.wlan[0].radio minSnir:histogram:count 203
scalar SimpleRREQ2.receiver.wlan[0].radio minSnir:histogram:sumweights 203
scalar SimpleRREQ2.receiver.wlan[0].radio minSnir:histogram:mean inf
scalar SimpleRREQ2.receiver.wlan[0].radio minSnir:histogram:stddev -nan
scalar SimpleRREQ2.receiver.wlan[0].radio minSnir:histogram:min 0
scalar SimpleRREQ2.receiver.wlan[0].radio minSnir:histogram:max inf
scalar SimpleRREQ2.receiver.wlan[0].radio minSnir:histogram:numbins 50
scalar SimpleRREQ2.receiver.wlan[0].radio minSnir:histogram:rangemin -0.5
scalar SimpleRREQ2.receiver.wlan[0].radio minSnir:histogram:rangemax 0.5
scalar SimpleRREQ2.receiver.wlan[0].radio minSnir:histogram:underflows 0
scalar SimpleRREQ2.receiver.wlan[0].radio minSnir:histogram:overflows 201
scalar SimpleRREQ2.receiver.wlan[0].radio packetErrorRate:histogram:count 203
scalar SimpleRREQ2.receiver.wlan[0].radio packetErrorRate:histogram:sumweights 203
scalar SimpleRREQ2.receiver.wlan[0].radio packetErrorRate:histogram:mean 0.0098522167487685
scalar SimpleRREQ2.receiver.wlan[0].radio packetErrorRate:histogram:stddev 0.099012339627579
scalar SimpleRREQ2.receiver.wlan[0].radio packetErrorRate:histogram:min 0
scalar SimpleRREQ2.receiver.wlan[0].radio packetErrorRate:histogram:max 1
scalar SimpleRREQ2.receiver.wlan[0].radio packetErrorRate:histogram:numbins 2
scalar SimpleRREQ2.receiver.wlan[0].radio packetErrorRate:histogram:rangemin 0
scalar SimpleRREQ2.receiver.wlan[0].radio packetErrorRate:histogram:rangemax 2
scalar SimpleRREQ2.receiver.wlan[0].radio packetErrorRate:histogram:underflows 0
scalar SimpleRREQ2.receiver.wlan[0].radio packetErrorRate:histogram:overflows 0
scalar SimpleRREQ2.receiver.wlan[0].radio bitErrorRate:histogram:count 203
scalar SimpleRREQ2.receiver.wlan[0].radio bitErrorRate:histogram:sumweights 203
scalar SimpleRREQ2.receiver.wlan[0].radio bitErrorRate:histogram:mean 0.0098522167487685
scalar SimpleRREQ2.receiver.wlan[0].radio bitErrorRate:histogram:stddev 0.099012339627579
scalar SimpleRREQ2.receiver.wlan[0].radio bitErrorRate:histogram:min 0
scalar SimpleRREQ2.receiver.wlan[0].radio bitErrorRate:histogram:max 1
scalar SimpleRREQ2.receiver.wlan[0].radio bitErrorRate:histogram:numbins 2
scalar SimpleRREQ2.receiver.wlan[0].radio bitErrorRate:histogram:rangemin 0
scalar SimpleRREQ2.receiver.wlan[0].radio bitErrorRate:histogram:rangemax 2
scalar SimpleRREQ2.receiver.wlan[0].radio bitErrorRate:histogram:underflows 0
scalar SimpleRREQ2.receiver.wlan[0].radio bitErrorRate:histogram:overflows 0
scalar SimpleRREQ2.receiver.wlan[0].radio symbolErrorRate:histogram:count 203
scalar SimpleRREQ2.receiver.wlan[0].radio symbolErrorRate:histogram:sumweights 203
scalar SimpleRREQ2.receiver.wlan[0].radio symbolErrorRate:histogram:mean 0.0098522167487685
scalar SimpleRREQ2.receiver.wlan[0].radio symbolErrorRate:histogram:stddev 0.099012339627579
scalar SimpleRREQ2.receiver.wlan[0].radio symbolErrorRate:histogram:min 0
scalar SimpleRREQ2.receiver.wlan[0].radio symbolErrorRate:histogram:max 1
scalar SimpleRREQ2.receiver.wlan[0].radio symbolErrorRate:histogram:numbins 2
scalar SimpleRREQ2.receiver.wlan[0].radio symbolErrorRate:histogram:rangemin 0
scalar SimpleRREQ2.receiver.wlan[0].radio symbolErrorRate:histogram:rangemax 2
scalar SimpleRREQ2.receiver.wlan[0].radio symbolErrorRate:histogram:underflows 0
scalar SimpleRREQ2.receiver.wlan[0].radio symbolErrorRate:histogram:overflows 0
statistic SimpleRREQ2.sender.wlan[0].queue queueingTime:histogram
field count 100
field mean 0
field stddev 0
field min 0
field max 0
field sum 0
field sqrsum 0
bin	-inf	0
bin	-0.5	0
bin	-0.48	0
bin	-0.46	0
bin	-0.44	0
bin	-0.42	0
bin	-0.4	0
bin	-0.38	0
bin	-0.36	0
bin	-0.34	0
bin	-0.32	0
bin	-0.3	0
bin	-0.28	0
bin	-0.26	0
bin	-0.24	0
bin	-0.22	0
bin	-0.2	0
bin	-0.18	0
bin	-0.16	0
bin	-0.14	0
bin	-0.12	0
bin	-0.1	0
bin	-0.08	0
bin	-0.06	0
bin	-0.04	0
bin	-0.02	0
bin	0	100
bin	0.02	0
bin	0.04	0
bin	0.06	0
bin	0.08	0
bin	0.1	0
bin	0.12	0
bin	0.14	0
bin	0.16	0
bin	0.18	0
bin	0.2	0
bin	0.22	0
bin	0.24	0
bin	0.26	0
bin	0.28	0
bin	0.3	0
bin	0.32	0
bin	0.34	0
bin	0.36	0
bin	0.38	0
bin	0.4	0
bin	0.42	0
bin	0.44	0
bin	0.46	0
bin	0.48	0
bin	0.5	0
statistic SimpleRREQ2.sender.wlan[0].queue outgoingPacketLengths:histogram
field count 100
field mean 662.4
field stddev 57.080485441014
field min 224
field max 672
field sum 66240
field sqrsum 44199936
bin	-inf	0
bin	110	0
bin	120	0
bin	130	0
bin	140	0
bin	150	0
bin	160	0
bin	170	0
bin	180	0
bin	190	0
bin	200	0
bin	210	0
bin	220	1
bin	230	0
bin	240	0
bin	250	0
bin	260	0
bin	270	0
bin	280	0
bin	290	0
bin	300	0
bin	310	0
bin	320	0
bin	330	0
bin	340	0
bin	350	0
bin	360	0
bin	370	0
bin	380	0
bin	390	0
bin	400	0
bin	410	2
bin	420	0
bin	430	0
bin	440	0
bin	450	0
bin	460	0
bin	470	0
bin	480	0
bin	490	0
bin	500	0
bin	510	0
bin	520	0
bin	530	0
bin	540	0
bin	550	0
bin	560	0
bin	570	0
bin	580	0
bin	590	0
bin	600	0
bin	610	0
bin	620	0
bin	630	0
bin	640	0
bin	650	0
bin	660	0
bin	670	97
bin	680	0
bin	690	0
bin	700	0
bin	710	0
bin	720	0
bin	730	0
bin	740	0
bin	750	0
bin	760	0
bin	770	0
bin	780	0
bin	790	0
statistic SimpleRREQ2.sender.wlan[0].queue flowQueueingTime:histogram
field count 0
field mean -nan
field stddev nan
field min nan
field max nan
field sum 0
field sqrsum 0
bin	-inf	0
bin	0	0
bin	1	0
statistic SimpleRREQ2.sender.wlan[0].queue incomingPacketLengths:histogram
field count 100
field mean 662.4
field stddev 57.080485441014
field min 224
field max 672
field sum 66240
field sqrsum 44199936
bin	-inf	0
bin	110	0
bin	120	0
bin	130	0
bin	140	0
bin	150	0
bin	160	0
bin	170	0
bin	180	0
bin	190	0
bin	200	0
bin	210	0
bin	220	1
bin	230	0
bin	240	0
bin	250	0
bin	260	0
bin	270	0
bin	280	0
bin	290	0
bin	300	0
bin	310	0
bin	320	0
bin	330	0
bin	340	0
bin	350	0
bin	360	0
bin	370	0
bin	380	0
bin	390	0
bin	400	0
bin	410	2
bin	420	0
bin	430	0
bin	440	0
bin	450	0
bin	460	0
bin	470	0
bin	480	0
bin	490	0
bin	500	0
bin	510	0
bin	520	0
bin	530	0
bin	540	0
bin	550	0
bin	560	0
bin	570	0
bin	580	0
bin	590	0
bin	600	0
bin	610	0
bin	620	0
bin	630	0
bin	640	0
bin	650	0
bin	660	0
bin	670	97
bin	680	0
bin	690	0
bin	700	0
bin	710	0
bin	720	0
bin	730	0
bin	740	0
bin	750	0
bin	760	0
bin	770	0
bin	780	0
bin	790	0
statistic SimpleRREQ2.sender.wlan[0].radio minSnir:histogram
field count 203
field mean inf
field stddev -nan
field min 0
field max inf
field sum inf
field sqrsum inf
bin	-inf	0
bin	-0.5	0
bin	-0.48	0
bin	-0.46	0
bin	-0.44	0
bin	-0.42	0
bin	-0.4	0
bin	-0.38	0
bin	-0.36	0
bin	-0.34	0
bin	-0.32	0
bin	-0.3	0
bin	-0.28	0
bin	-0.26	0
bin	-0.24	0
bin	-0.22	0
bin	-0.2	0
bin	-0.18	0
bin	-0.16	0
bin	-0.14	0
bin	-0.12	0
bin	-0.1	0
bin	-0.08	0
bin	-0.06	0
bin	-0.04	0
bin	-0.02	0
bin	0	2
bin	0.02	0
bin	0.04	0
bin	0.06	0
bin	0.08	0
bin	0.1	0
bin	0.12	0
bin	0.14	0
bin	0.16	0
bin	0.18	0
bin	0.2	0
bin	0.22	0
bin	0.24	0
bin	0.26	0
bin	0.28	0
bin	0.3	0
bin	0.32	0
bin	0.34	0
bin	0.36	0
bin	0.38	0
bin	0.4	0
bin	0.42	0
bin	0.44	0
bin	0.46	0
bin	0.48	0
bin	0.5	201
statistic SimpleRREQ2.sender.wlan[0].radio packetErrorRate:histogram
field count 203
field mean 0.0098522167487685
field stddev 0.099012339627579
field min 0
field max 1
field sum 2
field sqrsum 2
bin	-inf	0
bin	0	201
bin	1	2
bin	2	0
statistic SimpleRREQ2.sender.wlan[0].radio bitErrorRate:histogram
field count 203
field mean 0.0098522167487685
field stddev 0.099012339627579
field min 0
field max 1
field sum 2
field sqrsum 2
bin	-inf	0
bin	0	201
bin	1	2
bin	2	0
statistic SimpleRREQ2.sender.wlan[0].radio symbolErrorRate:histogram
field count 203
field mean 0.0098522167487685
field stddev 0.099012339627579
field min 0
field max 1
field sum 2
field sqrsum 2
bin	-inf	0
bin	0	201
bin	1	2
bin	2	0
statistic SimpleRREQ2.sender.app[0] rtt:histogram
field count 97
field mean 0.0053579722452371
field stddev 0.033993698895616
field min 0.001906435064
field max 0.336705541644
field sum 0.519723307788
field sqrsum 0.11371953326049
bin	-inf	0
bin	0	96
bin	0.005	0
bin	0.01	0
bin	0.015	0
bin	0.02	0
bin	0.025	0
bin	0.03	0
bin	0.035	0
bin	0.04	0
bin	0.045	0
bin	0.05	0
bin	0.055	0
bin	0.06	0
bin	0.065	0
bin	0.07	0
bin	0.075	0
bin	0.08	0
bin	0.085	0
bin	0.09	0
bin	0.095	0
bin	0.1	0
bin	0.105	0
bin	0.11	0
bin	0.115	0
bin	0.12	0
bin	0.125	0
bin	0.13	0
bin	0.135	0
bin	0.14	0
bin	0.145	0
bin	0.15	0
bin	0.155	0
bin	0.16	0
bin	0.165	0
bin	0.17	0
bin	0.175	0
bin	0.18	0
bin	0.185	0
bin	0.19	0
bin	0.195	0
bin	0.2	0
bin	0.205	0
bin	0.21	0
bin	0.215	0
bin	0.22	0
bin	0.225	0
bin	0.23	0
bin	0.235	0
bin	0.24	0
bin	0.245	0
bin	0.25	0
bin	0.255	0
bin	0.26	0
bin	0.265	0
bin	0.27	0
bin	0.275	0
bin	0.28	0
bin	0.285	0
bin	0.29	0
bin	0.295	0
bin	0.3	0
bin	0.305	0
bin	0.31	0
bin	0.315	0
bin	0.32	0
bin	0.325	0
bin	0.33	0
bin	0.335	1
bin	0.34	0
bin	0.345	0
bin	0.35	0
bin	0.355	0
bin	0.36	0
bin	0.365	0
bin	0.37	0
bin	0.375	0
bin	0.38	0
bin	0.385	0
bin	0.39	0
bin	0.395	0
bin	0.4	0
bin	0.405	0
bin	0.41	0
bin	0.415	0
bin	0.42	0
bin	0.425	0
statistic SimpleRREQ2.intermediateNodeA.wlan[0].queue queueingTime:histogram
field count 200
field mean 0
field stddev 0
field min 0
field max 0
field sum 0
field sqrsum 0
bin	-inf	0
bin	-0.5	0
bin	-0.48	0
bin	-0.46	0
bin	-0.44	0
bin	-0.42	0
bin	-0.4	0
bin	-0.38	0
bin	-0.36	0
bin	-0.34	0
bin	-0.32	0
bin	-0.3	0
bin	-0.28	0
bin	-0.26	0
bin	-0.24	0
bin	-0.22	0
bin	-0.2	0
bin	-0.18	0
bin	-0.16	0
bin	-0.14	0
bin	-0.12	0
bin	-0.1	0
bin	-0.08	0
bin	-0.06	0
bin	-0.04	0
bin	-0.02	0
bin	0	200
bin	0.02	0
bin	0.04	0
bin	0.06	0
bin	0.08	0
bin	0.1	0
bin	0.12	0
bin	0.14	0
bin	0.16	0
bin	0.18	0
bin	0.2	0
bin	0.22	0
bin	0.24	0
bin	0.26	0
bin	0.28	0
bin	0.3	0
bin	0.32	0
bin	0.34	0
bin	0.36	0
bin	0.38	0
bin	0.4	0
bin	0.42	0
bin	0.44	0
bin	0.46	0
bin	0.48	0
bin	0.5	0
statistic SimpleRREQ2.intermediateNodeA.wlan[0].queue outgoingPacketLengths:histogram
field count 200
field mean 662.08
field stddev 58.399366693062
field min 224
field max 672
field sum 132416
field sqrsum 88348672
bin	-inf	0
bin	110	0
bin	120	0
bin	130	0
bin	140	0
bin	150	0
bin	160	0
bin	170	0
bin	180	0
bin	190	0
bin	200	0
bin	210	0
bin	220	2
bin	230	0
bin	240	0
bin	250	0
bin	260	0
bin	270	0
bin	280	0
bin	290	0
bin	300	0
bin	310	0
bin	320	0
bin	330	0
bin	340	0
bin	350	0
bin	360	0
bin	370	0
bin	380	2
bin	390	0
bin	400	0
bin	410	2
bin	420	0
bin	430	0
bin	440	0
bin	450	0
bin	460	0
bin	470	0
bin	480	0
bin	490	0
bin	500	0
bin	510	0
bin	520	0
bin	530	0
bin	540	0
bin	550	0
bin	560	0
bin	570	0
bin	580	0
bin	590	0
bin	600	0
bin	610	0
bin	620	0
bin	630	0
bin	640	0
bin	650	0
bin	660	0
bin	670	194
bin	680	0
bin	690	0
bin	700	0
bin	710	0
bin	720	0
bin	730	0
bin	740	0
bin	750	0
bin	760	0
bin	770	0
bin	780	0
bin	790	0
statistic SimpleRREQ2.intermediateNodeA.wlan[0].queue flowQueueingTime:histogram
field count 0
field mean -nan
field stddev nan
field min nan
field max nan
field sum 0
field sqrsum 0
bin	-inf	0
bin	0	0
bin	1	0
statistic SimpleRREQ2.intermediateNodeA.wlan[0].queue incomingPacketLengths:histogram
field count 200
field mean 662.08
field stddev 58.399366693062
field min 224
field max 672
field sum 132416
field sqrsum 88348672
bin	-inf	0
bin	110	0
bin	120	0
bin	130	0
bin	140	0
bin	150	0
bin	160	0
bin	170	0
bin	180	0
bin	190	0
bin	200	0
bin	210	0
bin	220	2
bin	230	0
bin	240	0
bin	250	0
bin	260	0
bin	270	0
bin	280	0
bin	290	0
bin	300	0
bin	310	0
bin	320	0
bin	330	0
bin	340	0
bin	350	0
bin	360	0
bin	370	0
bin	380	2
bin	390	0
bin	400	0
bin	410	2
bin	420	0
bin	430	0
bin	440	0
bin	450	0
bin	460	0
bin	470	0
bin	480	0
bin	490	0
bin	500	0
bin	510	0
bin	520	0
bin	530	0
bin	540	0
bin	550	0
bin	560	0
bin	570	0
bin	580	0
bin	590	0
bin	600	0
bin	610	0
bin	620	0
bin	630	0
bin	640	0
bin	650	0
bin	660	0
bin	670	194
bin	680	0
bin	690	0
bin	700	0
bin	710	0
bin	720	0
bin	730	0
bin	740	0
bin	750	0
bin	760	0
bin	770	0
bin	780	0
bin	790	0
statistic SimpleRREQ2.intermediateNodeA.wlan[0].radio minSnir:histogram
field count 207
field mean inf
field stddev -nan
field min 0
field max inf
field sum inf
field sqrsum inf
bin	-inf	0
bin	-0.5	0
bin	-0.48	0
bin	-0.46	0
bin	-0.44	0
bin	-0.42	0
bin	-0.4	0
bin	-0.38	0
bin	-0.36	0
bin	-0.34	0
bin	-0.32	0
bin	-0.3	0
bin	-0.28	0
bin	-0.26	0
bin	-0.24	0
bin	-0.22	0
bin	-0.2	0
bin	-0.18	0
bin	-0.16	0
bin	-0.14	0
bin	-0.12	0
bin	-0.1	0
bin	-0.08	0
bin	-0.06	0
bin	-0.04	0
bin	-0.02	0
bin	0	1
bin	0.02	0
bin	0.04	0
bin	0.06	0
bin	0.08	0
bin	0.1	0
bin	0.12	0
bin	0.14	0
bin	0.16	0
bin	0.18	0
bin	0.2	0
bin	0.22	0
bin	0.24	0
bin	0.26	0
bin	0.28	0
bin	0.3	0
bin	0.32	0
bin	0.34	0
bin	0.36	0
bin	0.38	0
bin	0.4	0
bin	0.42	0
bin	0.44	0
bin	0.46	0
bin	0.48	0
bin	0.5	206
statistic SimpleRREQ2.intermediateNodeA.wlan[0].radio packetErrorRate:histogram
field count 207
field mean 0.0048309178743961
field stddev 0.069504804685692
field min 0
field max 1
field sum 1
field sqrsum 1
bin	-inf	0
bin	0	206
bin	1	1
bin	2	0
statistic SimpleRREQ2.intermediateNodeA.wlan[0].radio bitErrorRate:histogram
field count 207
field mean 0.0048309178743961
field stddev 0.069504804685692
field min 0
field max 1
field sum 1
field sqrsum 1
bin	-inf	0
bin	0	206
bin	1	1
bin	2	0
statistic SimpleRREQ2.intermediateNodeA.wlan[0].radio symbolErrorRate:histogram
field count 207
field mean 0.0048309178743961
field stddev 0.069504804685692
field min 0
field max 1
field sum 1
field sqrsum 1
bin	-inf	0
bin	0	206
bin	1	1
bin	2	0
statistic SimpleRREQ2.intermediateNodeB.wlan[0].queue queueingTime:histogram
field count 5
field mean 0
field stddev 0
field min 0
field max 0
field sum 0
field sqrsum 0
bin	-inf	0
bin	-0.5	0
bin	-0.48	0
bin	-0.46	0
bin	-0.44	0
bin	-0.42	0
bin	-0.4	0
bin	-0.38	0
bin	-0.36	0
bin	-0.34	0
bin	-0.32	0
bin	-0.3	0
bin	-0.28	0
bin	-0.26	0
bin	-0.24	0
bin	-0.22	0
bin	-0.2	0
bin	-0.18	0
bin	-0.16	0
bin	-0.14	0
bin	-0.12	0
bin	-0.1	0
bin	-0.08	0
bin	-0.06	0
bin	-0.04	0
bin	-0.02	0
bin	0	5
bin	0.02	0
bin	0.04	0
bin	0.06	0
bin	0.08	0
bin	0.1	0
bin	0.12	0
bin	0.14	0
bin	0.16	0
bin	0.18	0
bin	0.2	0
bin	0.22	0
bin	0.24	0
bin	0.26	0
bin	0.28	0
bin	0.3	0
bin	0.32	0
bin	0.34	0
bin	0.36	0
bin	0.38	0
bin	0.4	0
bin	0.42	0
bin	0.44	0
bin	0.46	0
bin	0.48	0
bin	0.5	0
statistic SimpleRREQ2.intermediateNodeB.wlan[0].queue outgoingPacketLengths:histogram
field count 5
field mean 332.8
field stddev 100.17584539199
field min 224
field max 416
field sum 1664
field sqrsum 593920
bin	-inf	0
bin	175	0
bin	180	0
bin	185	0
bin	190	0
bin	195	0
bin	200	0
bin	205	0
bin	210	0
bin	215	0
bin	220	2
bin	225	0
bin	230	0
bin	235	0
bin	240	0
bin	245	0
bin	250	0
bin	255	0
bin	260	0
bin	265	0
bin	270	0
bin	275	0
bin	280	0
bin	285	0
bin	290	0
bin	295	0
bin	300	0
bin	305	0
bin	310	0
bin	315	0
bin	320	0
bin	325	0
bin	330	0
bin	335	0
bin	340	0
bin	345	0
bin	350	0
bin	355	0
bin	360	0
bin	365	0
bin	370	0
bin	375	0
bin	380	1
bin	385	0
bin	390	0
bin	395	0
bin	400	0
bin	405	0
bin	410	0
bin	415	2
bin	420	0
bin	425	0
bin	430	0
bin	435	0
bin	440	0
bin	445	0
bin	450	0
bin	455	0
bin	460	0
bin	465	0
statistic SimpleRREQ2.intermediateNodeB.wlan[0].queue flowQueueingTime:histogram
field count 0
field mean -nan
field stddev nan
field min nan
field max nan
field sum 0
field sqrsum 0
bin	-inf	0
bin	0	0
bin	1	0
statistic SimpleRREQ2.intermediateNodeB.wlan[0].queue incomingPacketLengths:histogram
field count 5
field mean 332.8
field stddev 100.17584539199
field min 224
field max 416
field sum 1664
field sqrsum 593920
bin	-inf	0
bin	175	0
bin	180	0
bin	185	0
bin	190	0
bin	195	0
bin	200	0
bin	205	0
bin	210	0
bin	215	0
bin	220	2
bin	225	0
bin	230	0
bin	235	0
bin	240	0
bin	245	0
bin	250	0
bin	255	0
bin	260	0
bin	265	0
bin	270	0
bin	275	0
bin	280	0
bin	285	0
bin	290	0
bin	295	0
bin	300	0
bin	305	0
bin	310	0
bin	315	0
bin	320	0
bin	325	0
bin	330	0
bin	335	0
bin	340	0
bin	345	0
bin	350	0
bin	355	0
bin	360	0
bin	365	0
bin	370	0
bin	375	0
bin	380	1
bin	385	0
bin	390	0
bin	395	0
bin	400	0
bin	405	0
bin	410	0
bin	415	2
bin	420	0
bin	425	0
bin	430	0
bin	435	0
bin	440	0
bin	445	0
bin	450	0
bin	455	0
bin	460	0
bin	465	0
statistic SimpleRREQ2.intermediateNodeB.wlan[0].radio minSnir:histogram
field count 403
field mean inf
field stddev 0
field min inf
field max inf
field sum inf
field sqrsum inf
bin	-inf	0
bin	0	0
bin	1	403
statistic SimpleRREQ2.intermediateNodeB.wlan[0].radio packetErrorRate:histogram
field count 403
field mean 0
field stddev 0
field min 0
field max 0
field sum 0
field sqrsum 0
bin	-inf	0
bin	-0.5	0
bin	-0.48	0
bin	-0.46	0
bin	-0.44	0
bin	-0.42	0
bin	-0.4	0
bin	-0.38	0
bin	-0.36	0
bin	-0.34	0
bin	-0.32	0
bin	-0.3	0
bin	-0.28	0
bin	-0.26	0
bin	-0.24	0
bin	-0.22	0
bin	-0.2	0
bin	-0.18	0
bin	-0.16	0
bin	-0.14	0
bin	-0.12	0
bin	-0.1	0
bin	-0.08	0
bin	-0.06	0
bin	-0.04	0
bin	-0.02	0
bin	0	403
bin	0.02	0
bin	0.04	0
bin	0.06	0
bin	0.08	0
bin	0.1	0
bin	0.12	0
bin	0.14	0
bin	0.16	0
bin	0.18	0
bin	0.2	0
bin	0.22	0
bin	0.24	0
bin	0.26	0
bin	0.28	0
bin	0.3	0
bin	0.32	0
bin	0.34	0
bin	0.36	0
bin	0.38	0
bin	0.4	0
bin	0.42	0
bin	0.44	0
bin	0.46	0
bin	0.48	0
bin	0.5	0
statistic SimpleRREQ2.intermediateNodeB.wlan[0].radio bitErrorRate:histogram
field count 403
field mean 0
field stddev 0
field min 0
field max 0
field sum 0
field sqrsum 0
bin	-inf	0
bin	-0.5	0
bin	-0.48	0
bin	-0.46	0
bin	-0.44	0
bin	-0.42	0
bin	-0.4	0
bin	-0.38	0
bin	-0.36	0
bin	-0.34	0
bin	-0.32	0
bin	-0.3	0
bin	-0.28	0
bin	-0.26	0
bin	-0.24	0
bin	-0.22	0
bin	-0.2	0
bin	-0.18	0
bin	-0.16	0
bin	-0.14	0
bin	-0.12	0
bin	-0.1	0
bin	-0.08	0
bin	-0.06	0
bin	-0.04	0
bin	-0.02	0
bin	0	403
bin	0.02	0
bin	0.04	0
bin	0.06	0
bin	0.08	0
bin	0.1	0
bin	0.12	0
bin	0.14	0
bin	0.16	0
bin	0.18	0
bin	0.2	0
bin	0.22	0
bin	0.24	0
bin	0.26	0
bin	0.28	0
bin	0.3	0
bin	0.32	0
bin	0.34	0
bin	0.36	0
bin	0.38	0
bin	0.4	0
bin	0.42	0
bin	0.44	0
bin	0.46	0
bin	0.48	0
bin	0.5	0
statistic SimpleRREQ2.intermediateNodeB.wlan[0].radio symbolErrorRate:histogram
field count 403
field mean 0
field stddev 0
field min 0
field max 0
field sum 0
field sqrsum 0
bin	-inf	0
bin	-0.5	0
bin	-0.48	0
bin	-0.46	0
bin	-0.44	0
bin	-0.42	0
bin	-0.4	0
bin	-0.38	0
bin	-0.36	0
bin	-0.34	0
bin	-0.32	0
bin	-0.3	0
bin	-0.28	0
bin	-0.26	0
bin	-0.24	0
bin	-0.22	0
bin	-0.2	0
bin	-0.18	0
bin	-0.16	0
bin	-0.14	0
bin	-0.12	0
bin	-0.1	0
bin	-0.08	0
bin	-0.06	0
bin	-0.04	0
bin	-0.02	0
bin	0	403
bin	0.02	0
bin	0.04	0
bin	0.06	0
bin	0.08	0
bin	0.1	0
bin	0.12	0
bin	0.14	0
bin	0.16	0
bin	0.18	0
bin	0.2	0
bin	0.22	0
bin	0.24	0
bin	0.26	0
bin	0.28	0
bin	0.3	0
bin	0.32	0
bin	0.34	0
bin	0.36	0
bin	0.38	0
bin	0.4	0
bin	0.42	0
bin	0.44	0
bin	0.46	0
bin	0.48	0
bin	0.5	0
statistic SimpleRREQ2.receiver.wlan[0].queue queueingTime:histogram
field count 103
field mean 0
field stddev 0
field min 0
field max 0
field sum 0
field sqrsum 0
bin	-inf	0
bin	-0.5	0
bin	-0.48	0
bin	-0.46	0
bin	-0.44	0
bin	-0.42	0
bin	-0.4	0
bin	-0.38	0
bin	-0.36	0
bin	-0.34	0
bin	-0.32	0
bin	-0.3	0
bin	-0.28	0
bin	-0.26	0
bin	-0.24	0
bin	-0.22	0
bin	-0.2	0
bin	-0.18	0
bin	-0.16	0
bin	-0.14	0
bin	-0.12	0
bin	-0.1	0
bin	-0.08	0
bin	-0.06	0
bin	-0.04	0
bin	-0.02	0
bin	0	103
bin	0.02	0
bin	0.04	0
bin	0.06	0
bin	0.08	0
bin	0.1	0
bin	0.12	0
bin	0.14	0
bin	0.16	0
bin	0.18	0
bin	0.2	0
bin	0.22	0
bin	0.24	0
bin	0.26	0
bin	0.28	0
bin	0.3	0
bin	0.32	0
bin	0.34	0
bin	0.36	0
bin	0.38	0
bin	0.4	0
bin	0.42	0
bin	0.44	0
bin	0.46	0
bin	0.48	0
bin	0.5	0
statistic SimpleRREQ2.receiver.wlan[0].queue outgoingPacketLengths:histogram
field count 103
field mean 653.04854368932
field stddev 79.583151562151
field min 224
field max 672
field sum 67264
field sqrsum 44572672
bin	-inf	0
bin	110	0
bin	120	0
bin	130	0
bin	140	0
bin	150	0
bin	160	0
bin	170	0
bin	180	0
bin	190	0
bin	200	0
bin	210	0
bin	220	2
bin	230	0
bin	240	0
bin	250	0
bin	260	0
bin	270	0
bin	280	0
bin	290	0
bin	300	0
bin	310	0
bin	320	0
bin	330	0
bin	340	0
bin	350	0
bin	360	0
bin	370	0
bin	380	2
bin	390	0
bin	400	0
bin	410	1
bin	420	0
bin	430	0
bin	440	1
bin	450	0
bin	460	0
bin	470	0
bin	480	0
bin	490	0
bin	500	0
bin	510	0
bin	520	0
bin	530	0
bin	540	0
bin	550	0
bin	560	0
bin	570	0
bin	580	0
bin	590	0
bin	600	0
bin	610	0
bin	620	0
bin	630	0
bin	640	0
bin	650	0
bin	660	0
bin	670	97
bin	680	0
bin	690	0
bin	700	0
bin	710	0
bin	720	0
bin	730	0
bin	740	0
bin	750	0
bin	760	0
bin	770	0
bin	780	0
bin	790	0
statistic SimpleRREQ2.receiver.wlan[0].queue flowQueueingTime:histogram
field count 0
field mean -nan
field stddev nan
field min nan
field max nan
field sum 0
field sqrsum 0
bin	-inf	0
bin	0	0
bin	1	0
statistic SimpleRREQ2.receiver.wlan[0].queue incomingPacketLengths:histogram
field count 103
field mean 653.04854368932
field stddev 79.583151562151
field min 224
field max 672
field sum 67264
field sqrsum 44572672
bin	-inf	0
bin	110	0
bin	120	0
bin	130	0
bin	140	0
bin	150	0
bin	160	0
bin	170	0
bin	180	0
bin	190	0
bin	200	0
bin	210	0
bin	220	2
bin	230	0
bin	240	0
bin	250	0
bin	260	0
bin	270	0
bin	280	0
bin	290	0
bin	300	0
bin	310	0
bin	320	0
bin	330	0
bin	340	0
bin	350	0
bin	360	0
bin	370	0
bin	380	2
bin	390	0
bin	400	0
bin	410	1
bin	420	0
bin	430	0
bin	440	1
bin	450	0
bin	460	0
bin	470	0
bin	480	0
bin	490	0
bin	500	0
bin	510	0
bin	520	0
bin	530	0
bin	540	0
bin	550	0
bin	560	0
bin	570	0
bin	580	0
bin	590	0
bin	600	0
bin	610	0
bin	620	0
bin	630	0
bin	640	0
bin	650	0
bin	660	0
bin	670	97
bin	680	0
bin	690	0
bin	700	0
bin	710	0
bin	720	0
bin	730	0
bin	740	0
bin	750	0
bin	760	0
bin	770	0
bin	780	0
bin	790	0
statistic SimpleRREQ2.receiver.wlan[0].radio minSnir:histogram
field count 203
field mean inf
field stddev -nan
field min 0
field max inf
field sum inf
field sqrsum inf
bin	-inf	0
bin	-0.5	0
bin	-0.48	0
bin	-0.46	0
bin	-0.44	0
bin	-0.42	0
bin	-0.4	0
bin	-0.38	0
bin	-0.36	0
bin	-0.34	0
bin	-0.32	0
bin	-0.3	0
bin	-0.28	0
bin	-0.26	0
bin	-0.24	0
bin	-0.22	0
bin	-0.2	0
bin	-0.18	0
bin	-0.16	0
bin	-0.14	0
bin	-0.12	0
bin	-0.1	0
bin	-0.08	0
bin	-0.06	0
bin	-0.04	0
bin	-0.02	0
bin	0	2
bin	0.02	0
bin	0.04	0
bin	0.06	0
bin	0.08	0
bin	0.1	0
bin	0.12	0
bin	0.14	0
bin	0.16	0
bin	0.18	0
bin	0.2	0
bin	0.22	0
bin	0.24	0
bin	0.26	0
bin	0.28	0
bin	0.3	0
bin	0.32	0
bin	0.34	0
bin	0.36	0
bin	0.38	0
bin	0.4	0
bin	0.42	0
bin	0.44	0
bin	0.46	0
bin	0.48	0
bin	0.5	201
statistic SimpleRREQ2.receiver.wlan[0].radio packetErrorRate:histogram
field count 203
field mean 0.0098522167487685
field stddev 0.099012339627579
field min 0
field max 1
field sum 2
field sqrsum 2
bin	-inf	0
bin	0	201
bin	1	2
bin	2	0
statistic SimpleRREQ2.receiver.wlan[0].radio bitErrorRate:histogram
field count 203
field mean 0.0098522167487685
field stddev 0.099012339627579
field min 0
field max 1
field sum 2
field sqrsum 2
bin	-inf	0
bin	0	201
bin	1	2
bin	2	0
statistic SimpleRREQ2.receiver.wlan[0].radio symbolErrorRate:histogram
field count 203
field mean 0.0098522167487685
field stddev 0.099012339627579
field min 0
field max 1
field sum 2
field sqrsum 2
bin	-inf	0
bin	0	201
bin	1	2
bin	2	0
scalar SimpleRREQ2.sender.lo[0].lo rcvdPkFromHl:vector(packetBytes):count 0
scalar SimpleRREQ2.sender.lo[0].lo rcvdPkFromHl:vector(packetBytes):sum 0
scalar SimpleRREQ2.sender.lo[0].lo rcvdPkFromHl:vector(packetBytes):sumweights 0
scalar SimpleRREQ2.sender.lo[0].lo rcvdPkFromHl:vector(packetBytes):mean -nan
scalar SimpleRREQ2.sender.lo[0].lo rcvdPkFromHl:vector(packetBytes):stddev nan
scalar SimpleRREQ2.sender.lo[0].lo rcvdPkFromHl:vector(packetBytes):min inf
scalar SimpleRREQ2.sender.lo[0].lo rcvdPkFromHl:vector(packetBytes):max -inf
scalar SimpleRREQ2.sender.lo[0].lo rcvdPkFromHl:vector(packetBytes):starttime nan
scalar SimpleRREQ2.sender.lo[0].lo rcvdPkFromHl:vector(packetBytes):endtime nan
scalar SimpleRREQ2.sender.lo[0].lo passedUpPk:vector(packetBytes):count 0
scalar SimpleRREQ2.sender.lo[0].lo passedUpPk:vector(packetBytes):sum 0
scalar SimpleRREQ2.sender.lo[0].lo passedUpPk:vector(packetBytes):sumweights 0
scalar SimpleRREQ2.sender.lo[0].lo passedUpPk:vector(packetBytes):mean -nan
scalar SimpleRREQ2.sender.lo[0].lo passedUpPk:vector(packetBytes):stddev nan
scalar SimpleRREQ2.sender.lo[0].lo passedUpPk:vector(packetBytes):min inf
scalar SimpleRREQ2.sender.lo[0].lo passedUpPk:vector(packetBytes):max -inf
scalar SimpleRREQ2.sender.lo[0].lo passedUpPk:vector(packetBytes):starttime nan
scalar SimpleRREQ2.sender.lo[0].lo passedUpPk:vector(packetBytes):endtime nan
scalar SimpleRREQ2.sender.lo[0] packetDropInterfaceDown:vector(packetBytes):count 0
scalar SimpleRREQ2.sender.lo[0] packetDropInterfaceDown:vector(packetBytes):sum 0
scalar SimpleRREQ2.sender.lo[0] packetDropInterfaceDown:vector(packetBytes):sumweights 0
scalar SimpleRREQ2.sender.lo[0] packetDropInterfaceDown:vector(packetBytes):mean -nan
scalar SimpleRREQ2.sender.lo[0] packetDropInterfaceDown:vector(packetBytes):stddev nan
scalar SimpleRREQ2.sender.lo[0] packetDropInterfaceDown:vector(packetBytes):min inf
scalar SimpleRREQ2.sender.lo[0] packetDropInterfaceDown:vector(packetBytes):max -inf
scalar SimpleRREQ2.sender.lo[0] packetDropInterfaceDown:vector(packetBytes):starttime nan
scalar SimpleRREQ2.sender.lo[0] packetDropInterfaceDown:vector(packetBytes):endtime nan
scalar SimpleRREQ2.sender.lo[0] packetDropNoCarrier:vector(packetBytes):count 0
scalar SimpleRREQ2.sender.lo[0] packetDropNoCarrier:vector(packetBytes):sum 0
scalar SimpleRREQ2.sender.lo[0] packetDropNoCarrier:vector(packetBytes):sumweights 0
scalar SimpleRREQ2.sender.lo[0] packetDropNoCarrier:vector(packetBytes):mean -nan
scalar SimpleRREQ2.sender.lo[0] packetDropNoCarrier:vector(packetBytes):stddev nan
scalar SimpleRREQ2.sender.lo[0] packetDropNoCarrier:vector(packetBytes):min inf
scalar SimpleRREQ2.sender.lo[0] packetDropNoCarrier:vector(packetBytes):max -inf
scalar SimpleRREQ2.sender.lo[0] packetDropNoCarrier:vector(packetBytes):starttime nan
scalar SimpleRREQ2.sender.lo[0] packetDropNoCarrier:vector(packetBytes):endtime nan
scalar SimpleRREQ2.sender.wlan[0].queue queueLength:vector:count 105
scalar SimpleRREQ2.sender.wlan[0].queue queueLength:vector:sum 0
scalar SimpleRREQ2.sender.wlan[0].queue queueLength:vector:sumweights 105
scalar SimpleRREQ2.sender.wlan[0].queue queueLength:vector:mean 0
scalar SimpleRREQ2.sender.wlan[0].queue queueLength:vector:stddev 0
scalar SimpleRREQ2.sender.wlan[0].queue queueLength:vector:min 0
scalar SimpleRREQ2.sender.wlan[0].queue queueLength:vector:max 0
scalar SimpleRREQ2.sender.wlan[0].queue queueLength:vector:starttime 0
scalar SimpleRREQ2.sender.wlan[0].queue queueLength:vector:endtime 99.195254009217
scalar SimpleRREQ2.sender.wlan[0].queue queueBitLength:vector:count 105
scalar SimpleRREQ2.sender.wlan[0].queue queueBitLength:vector:sum 0
scalar SimpleRREQ2.sender.wlan[0].queue queueBitLength:vector:sumweights 105
scalar SimpleRREQ2.sender.wlan[0].queue queueBitLength:vector:mean 0
scalar SimpleRREQ2.sender.wlan[0].queue queueBitLength:vector:stddev 0
scalar SimpleRREQ2.sender.wlan[0].queue queueBitLength:vector:min 0
scalar SimpleRREQ2.sender.wlan[0].queue queueBitLength:vector:max 0
scalar SimpleRREQ2.sender.wlan[0].queue queueBitLength:vector:starttime 0
scalar SimpleRREQ2.sender.wlan[0].queue queueBitLength:vector:endtime 99.195254009217
scalar SimpleRREQ2.sender.wlan[0].queue queueingTime:vector:count 100
scalar SimpleRREQ2.sender.wlan[0].queue queueingTime:vector:sum 0
scalar SimpleRREQ2.sender.wlan[0].queue queueingTime:vector:sumweights 100
scalar SimpleRREQ2.sender.wlan[0].queue queueingTime:vector:mean 0
scalar SimpleRREQ2.sender.wlan[0].queue queueingTime:vector:stddev 0
scalar SimpleRREQ2.sender.wlan[0].queue queueingTime:vector:min 0
scalar SimpleRREQ2.sender.wlan[0].queue queueingTime:vector:max 0
scalar SimpleRREQ2.sender.wlan[0].queue queueingTime:vector:starttime 3.198218232299
scalar SimpleRREQ2.sender.wlan[0].queue queueingTime:vector:endtime 99.195254009217
scalar SimpleRREQ2.sender.wlan[0].queue incomingPacketLengths:vector:count 100
scalar SimpleRREQ2.sender.wlan[0].queue incomingPacketLengths:vector:sum 66240
scalar SimpleRREQ2.sender.wlan[0].queue incomingPacketLengths:vector:sumweights 100
scalar SimpleRREQ2.sender.wlan[0].queue incomingPacketLengths:vector:mean 662.4
scalar SimpleRREQ2.sender.wlan[0].queue incomingPacketLengths:vector:stddev 57.080485441014
scalar SimpleRREQ2.sender.wlan[0].queue incomingPacketLengths:vector:min 224
scalar SimpleRREQ2.sender.wlan[0].queue incomingPacketLengths:vector:max 672
scalar SimpleRREQ2.sender.wlan[0].queue incomingPacketLengths:vector:starttime 3.198218232299
scalar SimpleRREQ2.sender.wlan[0].queue incomingPacketLengths:vector:endtime 99.195254009217
scalar SimpleRREQ2.sender.wlan[0].queue incomingDataRate:vector:count 1000
scalar SimpleRREQ2.sender.wlan[0].queue incomingDataRate:vector:sum 662400
scalar SimpleRREQ2.sender.wlan[0].queue incomingDataRate:vector:sumweights 1000
scalar SimpleRREQ2.sender.wlan[0].queue incomingDataRate:vector:mean 662.4
scalar SimpleRREQ2.sender.wlan[0].queue incomingDataRate:vector:stddev 2022.3655956831
scalar SimpleRREQ2.sender.wlan[0].queue incomingDataRate:vector:min 0
scalar SimpleRREQ2.sender.wlan[0].queue incomingDataRate:vector:max 13120
scalar SimpleRREQ2.sender.wlan[0].queue incomingDataRate:vector:starttime 0.1
scalar SimpleRREQ2.sender.wlan[0].queue incomingDataRate:vector:endtime 100
scalar SimpleRREQ2.sender.wlan[0].queue outgoingPacketLengths:vector:count 100
scalar SimpleRREQ2.sender.wlan[0].queue outgoingPacketLengths:vector:sum 66240
scalar SimpleRREQ2.sender.wlan[0].queue outgoingPacketLengths:vector:sumweights 100
scalar SimpleRREQ2.sender.wlan[0].queue outgoingPacketLengths:vector:mean 662.4
scalar SimpleRREQ2.sender.wlan[0].queue outgoingPacketLengths:vector:stddev 57.080485441014
scalar SimpleRREQ2.sender.wlan[0].queue outgoingPacketLengths:vector:min 224
[...]
scalar SimpleRREQ2.receiver.wlan[0].mac passedUpPk:vector(packetBytes):mean 80.8
scalar SimpleRREQ2.receiver.wlan[0].mac passedUpPk:vector(packetBytes):stddev 11.601060959439
scalar SimpleRREQ2.receiver.wlan[0].mac passedUpPk:vector(packetBytes):min 28
scalar SimpleRREQ2.receiver.wlan[0].mac passedUpPk:vector(packetBytes):max 84
scalar SimpleRREQ2.receiver.wlan[0].mac passedUpPk:vector(packetBytes):starttime 3.202491396656
scalar SimpleRREQ2.receiver.wlan[0].mac passedUpPk:vector(packetBytes):endtime 99.196207226749
scalar SimpleRREQ2.receiver.wlan[0].mac sentDownPk:vector(packetBytes):count 103
scalar SimpleRREQ2.receiver.wlan[0].mac sentDownPk:vector(packetBytes):sum 10777
scalar SimpleRREQ2.receiver.wlan[0].mac sentDownPk:vector(packetBytes):sumweights 103
scalar SimpleRREQ2.receiver.wlan[0].mac sentDownPk:vector(packetBytes):mean 104.63106796117
scalar SimpleRREQ2.receiver.wlan[0].mac sentDownPk:vector(packetBytes):stddev 9.9478939452689
scalar SimpleRREQ2.receiver.wlan[0].mac sentDownPk:vector(packetBytes):min 51
scalar SimpleRREQ2.receiver.wlan[0].mac sentDownPk:vector(packetBytes):max 107
scalar SimpleRREQ2.receiver.wlan[0].mac sentDownPk:vector(packetBytes):starttime 3.202491396656
scalar SimpleRREQ2.receiver.wlan[0].mac sentDownPk:vector(packetBytes):endtime 99.196207226749
scalar SimpleRREQ2.receiver.wlan[0].mac rcvdPkFromHl:vector(packetBytes):count 103
scalar SimpleRREQ2.receiver.wlan[0].mac rcvdPkFromHl:vector(packetBytes):sum 8408
scalar SimpleRREQ2.receiver.wlan[0].mac rcvdPkFromHl:vector(packetBytes):sumweights 103
scalar SimpleRREQ2.receiver.wlan[0].mac rcvdPkFromHl:vector(packetBytes):mean 81.631067961165
scalar SimpleRREQ2.receiver.wlan[0].mac rcvdPkFromHl:vector(packetBytes):stddev 9.9478939452689
scalar SimpleRREQ2.receiver.wlan[0].mac rcvdPkFromHl:vector(packetBytes):min 28
scalar SimpleRREQ2.receiver.wlan[0].mac rcvdPkFromHl:vector(packetBytes):max 84
scalar SimpleRREQ2.receiver.wlan[0].mac rcvdPkFromHl:vector(packetBytes):starttime 3.202491396656
scalar SimpleRREQ2.receiver.wlan[0].mac rcvdPkFromHl:vector(packetBytes):endtime 99.196207226749
scalar SimpleRREQ2.receiver.wlan[0].mac rcvdPkFromLl:vector(packetBytes):count 203
scalar SimpleRREQ2.receiver.wlan[0].mac rcvdPkFromLl:vector(packetBytes):sum 21349
scalar SimpleRREQ2.receiver.wlan[0].mac rcvdPkFromLl:vector(packetBytes):sumweights 203
scalar SimpleRREQ2.receiver.wlan[0].mac rcvdPkFromLl:vector(packetBytes):mean 105.16748768473
scalar SimpleRREQ2.receiver.wlan[0].mac rcvdPkFromLl:vector(packetBytes):stddev 8.8122061551232
scalar SimpleRREQ2.receiver.wlan[0].mac rcvdPkFromLl:vector(packetBytes):min 51
scalar SimpleRREQ2.receiver.wlan[0].mac rcvdPkFromLl:vector(packetBytes):max 107
scalar SimpleRREQ2.receiver.wlan[0].mac rcvdPkFromLl:vector(packetBytes):starttime 3.202491396656
scalar SimpleRREQ2.receiver.wlan[0].mac rcvdPkFromLl:vector(packetBytes):endtime 99.197160495083
scalar SimpleRREQ2.receiver.wlan[0].mac packetDropIncorrectlyReceived:vector(packetBytes):count 0
scalar SimpleRREQ2.receiver.wlan[0].mac packetDropIncorrectlyReceived:vector(packetBytes):sum 0
scalar SimpleRREQ2.receiver.wlan[0].mac packetDropIncorrectlyReceived:vector(packetBytes):sumweights 0
scalar SimpleRREQ2.receiver.wlan[0].mac packetDropIncorrectlyReceived:vector(packetBytes):mean -nan
scalar SimpleRREQ2.receiver.wlan[0].mac packetDropIncorrectlyReceived:vector(packetBytes):stddev nan
scalar SimpleRREQ2.receiver.wlan[0].mac packetDropIncorrectlyReceived:vector(packetBytes):min inf
scalar SimpleRREQ2.receiver.wlan[0].mac packetDropIncorrectlyReceived:vector(packetBytes):max -inf
scalar SimpleRREQ2.receiver.wlan[0].mac packetDropIncorrectlyReceived:vector(packetBytes):starttime nan
scalar SimpleRREQ2.receiver.wlan[0].mac packetDropIncorrectlyReceived:vector(packetBytes):endtime nan
scalar SimpleRREQ2.receiver.wlan[0].mac packetDropInterfaceDown:vector(packetBytes):count 0
scalar SimpleRREQ2.receiver.wlan[0].mac packetDropInterfaceDown:vector(packetBytes):sum 0
scalar SimpleRREQ2.receiver.wlan[0].mac packetDropInterfaceDown:vector(packetBytes):sumweights 0
scalar SimpleRREQ2.receiver.wlan[0].mac packetDropInterfaceDown:vector(packetBytes):mean -nan
scalar SimpleRREQ2.receiver.wlan[0].mac packetDropInterfaceDown:vector(packetBytes):stddev nan
scalar SimpleRREQ2.receiver.wlan[0].mac packetDropInterfaceDown:vector(packetBytes):min inf
scalar SimpleRREQ2.receiver.wlan[0].mac packetDropInterfaceDown:vector(packetBytes):max -inf
scalar SimpleRREQ2.receiver.wlan[0].mac packetDropInterfaceDown:vector(packetBytes):starttime nan
scalar SimpleRREQ2.receiver.wlan[0].mac packetDropInterfaceDown:vector(packetBytes):endtime nan
scalar SimpleRREQ2.receiver.wlan[0].mac packetDropNotAddressedToUs:vector(packetBytes):count 98
scalar SimpleRREQ2.receiver.wlan[0].mac packetDropNotAddressedToUs:vector(packetBytes):sum 10450
scalar SimpleRREQ2.receiver.wlan[0].mac packetDropNotAddressedToUs:vector(packetBytes):sumweights 98
scalar SimpleRREQ2.receiver.wlan[0].mac packetDropNotAddressedToUs:vector(packetBytes):mean 106.63265306122
scalar SimpleRREQ2.receiver.wlan[0].mac packetDropNotAddressedToUs:vector(packetBytes):stddev 3.6365491603879
scalar SimpleRREQ2.receiver.wlan[0].mac packetDropNotAddressedToUs:vector(packetBytes):min 71
scalar SimpleRREQ2.receiver.wlan[0].mac packetDropNotAddressedToUs:vector(packetBytes):max 107
scalar SimpleRREQ2.receiver.wlan[0].mac packetDropNotAddressedToUs:vector(packetBytes):starttime 3.526254079783
scalar SimpleRREQ2.receiver.wlan[0].mac packetDropNotAddressedToUs:vector(packetBytes):endtime 99.197160495083
scalar SimpleRREQ2.receiver.wlan[0].radio radioMode:vector:count 3
scalar SimpleRREQ2.receiver.wlan[0].radio radioMode:vector:sum 4
scalar SimpleRREQ2.receiver.wlan[0].radio radioMode:vector:sumweights 3
scalar SimpleRREQ2.receiver.wlan[0].radio radioMode:vector:mean 1.3333333333333
scalar SimpleRREQ2.receiver.wlan[0].radio radioMode:vector:stddev 2.3094010767585
scalar SimpleRREQ2.receiver.wlan[0].radio radioMode:vector:min 0
scalar SimpleRREQ2.receiver.wlan[0].radio radioMode:vector:max 4
scalar SimpleRREQ2.receiver.wlan[0].radio radioMode:vector:starttime 0
scalar SimpleRREQ2.receiver.wlan[0].radio radioMode:vector:endtime 0
scalar SimpleRREQ2.receiver.wlan[0].radio receptionState:vector:count 408
scalar SimpleRREQ2.receiver.wlan[0].radio receptionState:vector:sum 815
scalar SimpleRREQ2.receiver.wlan[0].radio receptionState:vector:sumweights 408
scalar SimpleRREQ2.receiver.wlan[0].radio receptionState:vector:mean 1.9975490196078
scalar SimpleRREQ2.receiver.wlan[0].radio receptionState:vector:stddev 0.99999698896304
scalar SimpleRREQ2.receiver.wlan[0].radio receptionState:vector:min 1
scalar SimpleRREQ2.receiver.wlan[0].radio receptionState:vector:max 3
scalar SimpleRREQ2.receiver.wlan[0].radio receptionState:vector:starttime 0
scalar SimpleRREQ2.receiver.wlan[0].radio receptionState:vector:endtime 99.197160495083
scalar SimpleRREQ2.receiver.wlan[0].radio transmissionState:vector:count 207
scalar SimpleRREQ2.receiver.wlan[0].radio transmissionState:vector:sum 310
scalar SimpleRREQ2.receiver.wlan[0].radio transmissionState:vector:sumweights 207
scalar SimpleRREQ2.receiver.wlan[0].radio transmissionState:vector:mean 1.4975845410628
scalar SimpleRREQ2.receiver.wlan[0].radio transmissionState:vector:stddev 0.50120627437074
scalar SimpleRREQ2.receiver.wlan[0].radio transmissionState:vector:min 1
scalar SimpleRREQ2.receiver.wlan[0].radio transmissionState:vector:max 2
scalar SimpleRREQ2.receiver.wlan[0].radio transmissionState:vector:starttime 0
scalar SimpleRREQ2.receiver.wlan[0].radio transmissionState:vector:endtime 99.196683226749
scalar SimpleRREQ2.receiver.wlan[0] packetDropInterfaceDown:vector(packetBytes):count 0
scalar SimpleRREQ2.receiver.wlan[0] packetDropInterfaceDown:vector(packetBytes):sum 0
scalar SimpleRREQ2.receiver.wlan[0] packetDropInterfaceDown:vector(packetBytes):sumweights 0
scalar SimpleRREQ2.receiver.wlan[0] packetDropInterfaceDown:vector(packetBytes):mean -nan
scalar SimpleRREQ2.receiver.wlan[0] packetDropInterfaceDown:vector(packetBytes):stddev nan
scalar SimpleRREQ2.receiver.wlan[0] packetDropInterfaceDown:vector(packetBytes):min inf
scalar SimpleRREQ2.receiver.wlan[0] packetDropInterfaceDown:vector(packetBytes):max -inf
scalar SimpleRREQ2.receiver.wlan[0] packetDropInterfaceDown:vector(packetBytes):starttime nan
scalar SimpleRREQ2.receiver.wlan[0] packetDropInterfaceDown:vector(packetBytes):endtime nan
scalar SimpleRREQ2.receiver.wlan[0] packetDropNoCarrier:vector(packetBytes):count 0
scalar SimpleRREQ2.receiver.wlan[0] packetDropNoCarrier:vector(packetBytes):sum 0
scalar SimpleRREQ2.receiver.wlan[0] packetDropNoCarrier:vector(packetBytes):sumweights 0
scalar SimpleRREQ2.receiver.wlan[0] packetDropNoCarrier:vector(packetBytes):mean -nan
scalar SimpleRREQ2.receiver.wlan[0] packetDropNoCarrier:vector(packetBytes):stddev nan
scalar SimpleRREQ2.receiver.wlan[0] packetDropNoCarrier:vector(packetBytes):min inf
scalar SimpleRREQ2.receiver.wlan[0] packetDropNoCarrier:vector(packetBytes):max -inf
scalar SimpleRREQ2.receiver.wlan[0] packetDropNoCarrier:vector(packetBytes):starttime nan
scalar SimpleRREQ2.receiver.wlan[0] packetDropNoCarrier:vector(packetBytes):endtime nan
scalar SimpleRREQ2.receiver.ipv4.ip packetDropAddressResolutionFailed:vector(packetBytes):count 0
scalar SimpleRREQ2.receiver.ipv4.ip packetDropAddressResolutionFailed:vector(packetBytes):sum 0
scalar SimpleRREQ2.receiver.ipv4.ip packetDropAddressResolutionFailed:vector(packetBytes):sumweights 0
scalar SimpleRREQ2.receiver.ipv4.ip packetDropAddressResolutionFailed:vector(packetBytes):mean -nan
scalar SimpleRREQ2.receiver.ipv4.ip packetDropAddressResolutionFailed:vector(packetBytes):stddev nan
scalar SimpleRREQ2.receiver.ipv4.ip packetDropAddressResolutionFailed:vector(packetBytes):min inf
scalar SimpleRREQ2.receiver.ipv4.ip packetDropAddressResolutionFailed:vector(packetBytes):max -inf
scalar SimpleRREQ2.receiver.ipv4.ip packetDropAddressResolutionFailed:vector(packetBytes):starttime nan
scalar SimpleRREQ2.receiver.ipv4.ip packetDropAddressResolutionFailed:vector(packetBytes):endtime nan
scalar SimpleRREQ2.receiver.ipv4.ip packetDropHopLimitReached:vector(packetBytes):count 0
scalar SimpleRREQ2.receiver.ipv4.ip packetDropHopLimitReached:vector(packetBytes):sum 0
scalar SimpleRREQ2.receiver.ipv4.ip packetDropHopLimitReached:vector(packetBytes):sumweights 0
scalar SimpleRREQ2.receiver.ipv4.ip packetDropHopLimitReached:vector(packetBytes):mean -nan
scalar SimpleRREQ2.receiver.ipv4.ip packetDropHopLimitReached:vector(packetBytes):stddev nan
scalar SimpleRREQ2.receiver.ipv4.ip packetDropHopLimitReached:vector(packetBytes):min inf
scalar SimpleRREQ2.receiver.ipv4.ip packetDropHopLimitReached:vector(packetBytes):max -inf
scalar SimpleRREQ2.receiver.ipv4.ip packetDropHopLimitReached:vector(packetBytes):starttime nan
scalar SimpleRREQ2.receiver.ipv4.ip packetDropHopLimitReached:vector(packetBytes):endtime nan
scalar SimpleRREQ2.receiver.ipv4.ip packetDropForwardingDisabled:vector(packetBytes):count 0
scalar SimpleRREQ2.receiver.ipv4.ip packetDropForwardingDisabled:vector(packetBytes):sum 0
scalar SimpleRREQ2.receiver.ipv4.ip packetDropForwardingDisabled:vector(packetBytes):sumweights 0
scalar SimpleRREQ2.receiver.ipv4.ip packetDropForwardingDisabled:vector(packetBytes):mean -nan
scalar SimpleRREQ2.receiver.ipv4.ip packetDropForwardingDisabled:vector(packetBytes):stddev nan
scalar SimpleRREQ2.receiver.ipv4.ip packetDropForwardingDisabled:vector(packetBytes):min inf
scalar SimpleRREQ2.receiver.ipv4.ip packetDropForwardingDisabled:vector(packetBytes):max -inf
scalar SimpleRREQ2.receiver.ipv4.ip packetDropForwardingDisabled:vector(packetBytes):starttime nan
scalar SimpleRREQ2.receiver.ipv4.ip packetDropForwardingDisabled:vector(packetBytes):endtime nan
scalar SimpleRREQ2.receiver.ipv4.ip packetDropLifetimeExpired:vector(packetBytes):count 0
scalar SimpleRREQ2.receiver.ipv4.ip packetDropLifetimeExpired:vector(packetBytes):sum 0
scalar SimpleRREQ2.receiver.ipv4.ip packetDropLifetimeExpired:vector(packetBytes):sumweights 0
scalar SimpleRREQ2.receiver.ipv4.ip packetDropLifetimeExpired:vector(packetBytes):mean -nan
scalar SimpleRREQ2.receiver.ipv4.ip packetDropLifetimeExpired:vector(packetBytes):stddev nan
scalar SimpleRREQ2.receiver.ipv4.ip packetDropLifetimeExpired:vector(packetBytes):min inf
scalar SimpleRREQ2.receiver.ipv4.ip packetDropLifetimeExpired:vector(packetBytes):max -inf
scalar SimpleRREQ2.receiver.ipv4.ip packetDropLifetimeExpired:vector(packetBytes):starttime nan
scalar SimpleRREQ2.receiver.ipv4.ip packetDropLifetimeExpired:vector(packetBytes):endtime nan
scalar SimpleRREQ2.receiver.ipv4.ip packetDropNoInterfaceFound:vector(packetBytes):count 0
scalar SimpleRREQ2.receiver.ipv4.ip packetDropNoInterfaceFound:vector(packetBytes):sum 0
scalar SimpleRREQ2.receiver.ipv4.ip packetDropNoInterfaceFound:vector(packetBytes):sumweights 0
scalar SimpleRREQ2.receiver.ipv4.ip packetDropNoInterfaceFound:vector(packetBytes):mean -nan
scalar SimpleRREQ2.receiver.ipv4.ip packetDropNoInterfaceFound:vector(packetBytes):stddev nan
scalar SimpleRREQ2.receiver.ipv4.ip packetDropNoInterfaceFound:vector(packetBytes):min inf
scalar SimpleRREQ2.receiver.ipv4.ip packetDropNoInterfaceFound:vector(packetBytes):max -inf
scalar SimpleRREQ2.receiver.ipv4.ip packetDropNoInterfaceFound:vector(packetBytes):starttime nan
scalar SimpleRREQ2.receiver.ipv4.ip packetDropNoInterfaceFound:vector(packetBytes):endtime nan
scalar SimpleRREQ2.receiver.ipv4.ip packetDropNoRouteFound:vector(packetBytes):count 0
scalar SimpleRREQ2.receiver.ipv4.ip packetDropNoRouteFound:vector(packetBytes):sum 0
scalar SimpleRREQ2.receiver.ipv4.ip packetDropNoRouteFound:vector(packetBytes):sumweights 0
scalar SimpleRREQ2.receiver.ipv4.ip packetDropNoRouteFound:vector(packetBytes):mean -nan
scalar SimpleRREQ2.receiver.ipv4.ip packetDropNoRouteFound:vector(packetBytes):stddev nan
scalar SimpleRREQ2.receiver.ipv4.ip packetDropNoRouteFound:vector(packetBytes):min inf
scalar SimpleRREQ2.receiver.ipv4.ip packetDropNoRouteFound:vector(packetBytes):max -inf
scalar SimpleRREQ2.receiver.ipv4.ip packetDropNoRouteFound:vector(packetBytes):starttime nan
scalar SimpleRREQ2.receiver.ipv4.ip packetDropNoRouteFound:vector(packetBytes):endtime nan
scalar SimpleRREQ2.receiver.ipv4.ip packetDropUndefined:vector(packetBytes):count 0
scalar SimpleRREQ2.receiver.ipv4.ip packetDropUndefined:vector(packetBytes):sum 0
scalar SimpleRREQ2.receiver.ipv4.ip packetDropUndefined:vector(packetBytes):sumweights 0
scalar SimpleRREQ2.receiver.ipv4.ip packetDropUndefined:vector(packetBytes):mean -nan
scalar SimpleRREQ2.receiver.ipv4.ip packetDropUndefined:vector(packetBytes):stddev nan
scalar SimpleRREQ2.receiver.ipv4.ip packetDropUndefined:vector(packetBytes):min inf
scalar SimpleRREQ2.receiver.ipv4.ip packetDropUndefined:vector(packetBytes):max -inf
scalar SimpleRREQ2.receiver.ipv4.ip packetDropUndefined:vector(packetBytes):starttime nan
scalar SimpleRREQ2.receiver.ipv4.ip packetDropUndefined:vector(packetBytes):endtime nan
scalar SimpleRREQ2.receiver.ipv4.arp arpRequestSent:vector(packetBytes):count 1
scalar SimpleRREQ2.receiver.ipv4.arp arpRequestSent:vector(packetBytes):sum 28
scalar SimpleRREQ2.receiver.ipv4.arp arpRequestSent:vector(packetBytes):sumweights 1
scalar SimpleRREQ2.receiver.ipv4.arp arpRequestSent:vector(packetBytes):mean 28
scalar SimpleRREQ2.receiver.ipv4.arp arpRequestSent:vector(packetBytes):stddev nan
scalar SimpleRREQ2.receiver.ipv4.arp arpRequestSent:vector(packetBytes):min 28
scalar SimpleRREQ2.receiver.ipv4.arp arpRequestSent:vector(packetBytes):max 28
scalar SimpleRREQ2.receiver.ipv4.arp arpRequestSent:vector(packetBytes):starttime 3.202491396656
scalar SimpleRREQ2.receiver.ipv4.arp arpRequestSent:vector(packetBytes):endtime 3.202491396656
scalar SimpleRREQ2.receiver.ipv4.arp arpReplySent:vector(packetBytes):count 1
scalar SimpleRREQ2.receiver.ipv4.arp arpReplySent:vector(packetBytes):sum 28
scalar SimpleRREQ2.receiver.ipv4.arp arpReplySent:vector(packetBytes):sumweights 1
scalar SimpleRREQ2.receiver.ipv4.arp arpReplySent:vector(packetBytes):mean 28
scalar SimpleRREQ2.receiver.ipv4.arp arpReplySent:vector(packetBytes):stddev nan
scalar SimpleRREQ2.receiver.ipv4.arp arpReplySent:vector(packetBytes):min 28
scalar SimpleRREQ2.receiver.ipv4.arp arpReplySent:vector(packetBytes):max 28
scalar SimpleRREQ2.receiver.ipv4.arp arpReplySent:vector(packetBytes):starttime 4.530926399051
scalar SimpleRREQ2.receiver.ipv4.arp arpReplySent:vector(packetBytes):endtime 4.530926399051
scalar SimpleRREQ2.receiver.udp packetSent:vector(packetBytes):count 4
scalar SimpleRREQ2.receiver.udp packetSent:vector(packetBytes):sum 124
scalar SimpleRREQ2.receiver.udp packetSent:vector(packetBytes):sumweights 4
scalar SimpleRREQ2.receiver.udp packetSent:vector(packetBytes):mean 31
scalar SimpleRREQ2.receiver.udp packetSent:vector(packetBytes):stddev 3.8297084310254
scalar SimpleRREQ2.receiver.udp packetSent:vector(packetBytes):min 28
scalar SimpleRREQ2.receiver.udp packetSent:vector(packetBytes):max 36
scalar SimpleRREQ2.receiver.udp packetSent:vector(packetBytes):starttime 3.202491396656
scalar SimpleRREQ2.receiver.udp packetSent:vector(packetBytes):endtime 3.530325064995
scalar SimpleRREQ2.receiver.udp packetReceived:vector(packetBytes):count 5
scalar SimpleRREQ2.receiver.udp packetReceived:vector(packetBytes):sum 152
scalar SimpleRREQ2.receiver.udp packetReceived:vector(packetBytes):sumweights 5
scalar SimpleRREQ2.receiver.udp packetReceived:vector(packetBytes):mean 30.4
scalar SimpleRREQ2.receiver.udp packetReceived:vector(packetBytes):stddev 2.1908902300207
scalar SimpleRREQ2.receiver.udp packetReceived:vector(packetBytes):min 28
scalar SimpleRREQ2.receiver.udp packetReceived:vector(packetBytes):max 32
scalar SimpleRREQ2.receiver.udp packetReceived:vector(packetBytes):starttime 3.202491396656
scalar SimpleRREQ2.receiver.udp packetReceived:vector(packetBytes):endtime 4.531511733107
scalar SimpleRREQ2.receiver.udp passedUpPk:vector(count):count 6
scalar SimpleRREQ2.receiver.udp passedUpPk:vector(count):sum 15
scalar SimpleRREQ2.receiver.udp passedUpPk:vector(count):sumweights 6
scalar SimpleRREQ2.receiver.udp passedUpPk:vector(count):mean 2.5
scalar SimpleRREQ2.receiver.udp passedUpPk:vector(count):stddev 1.870828693387
scalar SimpleRREQ2.receiver.udp passedUpPk:vector(count):min 0
scalar SimpleRREQ2.receiver.udp passedUpPk:vector(count):max 5
scalar SimpleRREQ2.receiver.udp passedUpPk:vector(count):starttime 0
scalar SimpleRREQ2.receiver.udp passedUpPk:vector(count):endtime 4.531511733107
scalar SimpleRREQ2.receiver.udp droppedPkWrongPort:vector(count):count 1
scalar SimpleRREQ2.receiver.udp droppedPkWrongPort:vector(count):sum 0
scalar SimpleRREQ2.receiver.udp droppedPkWrongPort:vector(count):sumweights 1
scalar SimpleRREQ2.receiver.udp droppedPkWrongPort:vector(count):mean 0
scalar SimpleRREQ2.receiver.udp droppedPkWrongPort:vector(count):stddev nan
scalar SimpleRREQ2.receiver.udp droppedPkWrongPort:vector(count):min 0
scalar SimpleRREQ2.receiver.udp droppedPkWrongPort:vector(count):max 0
scalar SimpleRREQ2.receiver.udp droppedPkWrongPort:vector(count):starttime 0
scalar SimpleRREQ2.receiver.udp droppedPkWrongPort:vector(count):endtime 0
scalar SimpleRREQ2.receiver.udp droppedPkBadChecksum:vector(count):count 1
scalar SimpleRREQ2.receiver.udp droppedPkBadChecksum:vector(count):sum 0
scalar SimpleRREQ2.receiver.udp droppedPkBadChecksum:vector(count):sumweights 1
scalar SimpleRREQ2.receiver.udp droppedPkBadChecksum:vector(count):mean 0
scalar SimpleRREQ2.receiver.udp droppedPkBadChecksum:vector(count):stddev nan
scalar SimpleRREQ2.receiver.udp droppedPkBadChecksum:vector(count):min 0
scalar SimpleRREQ2.receiver.udp droppedPkBadChecksum:vector(count):max 0
scalar SimpleRREQ2.receiver.udp droppedPkBadChecksum:vector(count):starttime 0
scalar SimpleRREQ2.receiver.udp droppedPkBadChecksum:vector(count):endtime 0

