version 3
run Dynamic-0-20250108-11:18:14-8866
attr configname Dynamic
attr datetime 20250108-11:18:14
attr datetimef 20250108-111814
attr experiment Dynamic
attr inifile omnetpp.ini
attr iterationvars ""
attr iterationvarsd ""
attr iterationvarsf ""
attr measurement ""
attr network AODVNetwork
attr processid 8866
attr repetition 0
attr replication #0
attr resultdir results
attr runnumber 0
attr seedset 0
config **.param-recording false
config image-path /home/levy/workspace/inet/images
config output-scalar-file results/omnetpp.ini-Dynamic-#0.sca
config output-vector-file results/omnetpp.ini-Dynamic-#0.vec
config sim-time-limit 60s
config sim-time-limit 60s
config description "one node is shut down and restarted trigger route changes"
config extends Static
config *.scenarioManager.script "xmldoc(\"dynamic.xml\")"
config sim-time-limit 50s
config description "routing without mobility"
config *.numHosts 20
config *.host[*].wlan[*].radio.transmitter.analogModel.communicationRange 250m
config *.host[0].app[0].destAddr "\"host[1](ipv4)\""
config **.host[*].mobility.typename StationaryMobility
config *.host[0].numApps 1
config *.host[0].app[0].typename PingApp
config *.host[0].app[0].startTime uniform(1s,5s)
config *.host[0].app[0].printPing true
config network AODVNetwork
config num-rngs 3
config **.mobility.rng-0 1
config **.wlan[*].mac.rng-0 2
config *.radioMedium.sameTransmissionStartTimeCheck "\"ignore\""
config **.wlan[*].typename AckingWirelessInterface
config **.wlan[*].bitrate 2Mbps
config **.wlan[*].mac.headerLength 23B
config **.wlan[*].radio.typename GenericRadio
config **.wlan[*].radio.signalAnalogRepresentation "\"unitDisk\""
config **.wlan[*].radio.transmitter.headerLength 96b
config **.wlan[*].radio.transmitter.analogModel.communicationRange 250m
config **.wlan[*].radio.transmitter.analogModel.interferenceRange 0m
config **.wlan[*].radio.transmitter.analogModel.detectionRange 0m
config **.wlan[*].radio.receiver.ignoreInterference true
config **.mobility.constraintAreaMinZ 0m
config **.mobility.constraintAreaMaxZ 0m
config **.mobility.constraintAreaMinX 0m
config **.mobility.constraintAreaMinY 0m
config **.mobility.constraintAreaMaxX 600m
config **.mobility.constraintAreaMaxY 600m
config **.hasStatus true

scalar AODVNetwork.radioMedium.propagation "Arrival computation count" 7125
scalar AODVNetwork.radioMedium "transmission count" 375
scalar AODVNetwork.radioMedium "signal send count" 7125
scalar AODVNetwork.radioMedium "reception computation count" 6976
scalar AODVNetwork.radioMedium "interference computation count" 20848
scalar AODVNetwork.radioMedium "reception decision computation count" 3039
scalar AODVNetwork.radioMedium "listening decision computation count" 10953
scalar AODVNetwork.radioMedium "reception cache hit" 81.945702528533
scalar AODVNetwork.radioMedium "interference cache hit" 66.666666666667
scalar AODVNetwork.radioMedium "noise cache hit" 0
scalar AODVNetwork.radioMedium "snir cache hit" 50
scalar AODVNetwork.radioMedium "reception decision cache hit" 50
scalar AODVNetwork.radioMedium "reception result cache hit" 0
scalar AODVNetwork.host[0].lo[0].lo rcvdPkFromHl:count 0
scalar AODVNetwork.host[0].lo[0].lo rcvdPkFromHl:sum(packetBytes) 0
scalar AODVNetwork.host[0].lo[0].lo passedUpPk:count 0
scalar AODVNetwork.host[0].lo[0].lo passedUpPk:sum(packetBytes) 0
scalar AODVNetwork.host[0].lo[0] packetDropInterfaceDown:count 0
scalar AODVNetwork.host[0].lo[0] packetDropInterfaceDown:sum(packetBytes) 0
scalar AODVNetwork.host[0].lo[0] packetDropNoCarrier:count 0
scalar AODVNetwork.host[0].lo[0] packetDropNoCarrier:sum(packetBytes) 0
scalar AODVNetwork.host[0].wlan[0].queue queueLength:last 0
scalar AODVNetwork.host[0].wlan[0].queue queueLength:max 1
scalar AODVNetwork.host[0].wlan[0].queue queueLength:timeavg 7.9457029333333e-06
scalar AODVNetwork.host[0].wlan[0].queue queueBitLength:last 0
scalar AODVNetwork.host[0].wlan[0].queue queueBitLength:max 672
scalar AODVNetwork.host[0].wlan[0].queue queueBitLength:timeavg 0.0053395123712
scalar AODVNetwork.host[0].wlan[0].queue outgoingPackets:count 66
scalar AODVNetwork.host[0].wlan[0].queue outgoingPacketLengths:sum 41312
scalar AODVNetwork.host[0].wlan[0].queue incomingPackets:count 66
scalar AODVNetwork.host[0].wlan[0].queue incomingPacketLengths:sum 41312
scalar AODVNetwork.host[0].wlan[0].queue droppedPacketsQueueOverflow:count 0
scalar AODVNetwork.host[0].wlan[0].queue droppedPacketLengthsQueueOverflow:sum 0
scalar AODVNetwork.host[0].wlan[0].mac rcvdPkFromLl:count 141
scalar AODVNetwork.host[0].wlan[0].mac rcvdPkFromLl:sum(packetBytes) 13927
scalar AODVNetwork.host[0].wlan[0].mac sentDownPk:count 66
scalar AODVNetwork.host[0].wlan[0].mac sentDownPk:sum(packetBytes) 6682
scalar AODVNetwork.host[0].wlan[0].mac rcvdPkFromHl:count 66
scalar AODVNetwork.host[0].wlan[0].mac rcvdPkFromHl:sum(packetBytes) 5164
scalar AODVNetwork.host[0].wlan[0].mac passedUpPk:count 80
scalar AODVNetwork.host[0].wlan[0].mac passedUpPk:sum(packetBytes) 5840
scalar AODVNetwork.host[0].wlan[0].mac packetDropIncorrectlyReceived:count 0
scalar AODVNetwork.host[0].wlan[0].mac packetDropIncorrectlyReceived:sum(packetBytes) 0
scalar AODVNetwork.host[0].wlan[0].mac packetDropInterfaceDown:count 0
scalar AODVNetwork.host[0].wlan[0].mac packetDropInterfaceDown:sum(packetBytes) 0
scalar AODVNetwork.host[0].wlan[0].mac packetDropNotAddressedToUs:count 61
scalar AODVNetwork.host[0].wlan[0].mac packetDropNotAddressedToUs:sum(packetBytes) 6247
scalar AODVNetwork.host[0].wlan[0].mac linkBroken:count 2
scalar AODVNetwork.host[0].wlan[0].radio radioMode:count 3
scalar AODVNetwork.host[0].wlan[0].radio receptionState:count 287
scalar AODVNetwork.host[0].wlan[0].radio transmissionState:count 133
scalar AODVNetwork.host[0].wlan[0] packetDropInterfaceDown:count 0
scalar AODVNetwork.host[0].wlan[0] packetDropInterfaceDown:sum(packetBytes) 0
scalar AODVNetwork.host[0].wlan[0] packetDropNoCarrier:count 0
scalar AODVNetwork.host[0].wlan[0] packetDropNoCarrier:sum(packetBytes) 0
scalar AODVNetwork.host[0].ipv4.ip packetDropAddressResolutionFailed:count 0
scalar AODVNetwork.host[0].ipv4.ip packetDropAddressResolutionFailed:sum(packetBytes) 0
scalar AODVNetwork.host[0].ipv4.ip packetDropHopLimitReached:count 0
scalar AODVNetwork.host[0].ipv4.ip packetDropHopLimitReached:sum(packetBytes) 0
scalar AODVNetwork.host[0].ipv4.ip packetDropForwardingDisabled:count 0
scalar AODVNetwork.host[0].ipv4.ip packetDropForwardingDisabled:sum(packetBytes) 0
scalar AODVNetwork.host[0].ipv4.ip packetDropLifetimeExpired:count 0
scalar AODVNetwork.host[0].ipv4.ip packetDropLifetimeExpired:sum(packetBytes) 0
scalar AODVNetwork.host[0].ipv4.ip packetDropNoInterfaceFound:count 0
scalar AODVNetwork.host[0].ipv4.ip packetDropNoInterfaceFound:sum(packetBytes) 0
scalar AODVNetwork.host[0].ipv4.ip packetDropNoRouteFound:count 0
scalar AODVNetwork.host[0].ipv4.ip packetDropNoRouteFound:sum(packetBytes) 0
scalar AODVNetwork.host[0].ipv4.ip packetDropUndefined:count 0
scalar AODVNetwork.host[0].ipv4.ip packetDropUndefined:sum(packetBytes) 0
scalar AODVNetwork.host[0].ipv4.arp arpResolutionFailed:count 0
scalar AODVNetwork.host[0].ipv4.arp arpResolutionCompleted:count 4
scalar AODVNetwork.host[0].ipv4.arp arpResolutionInitiated:count 0
scalar AODVNetwork.host[0].ipv4.arp arpReplySent:count 4
scalar AODVNetwork.host[0].ipv4.arp arpReplySent:sum(packetBytes) 112
scalar AODVNetwork.host[0].ipv4.arp arpRequestSent:count 0
scalar AODVNetwork.host[0].ipv4.arp arpRequestSent:sum(packetBytes) 0
scalar AODVNetwork.host[0].udp packetReceived:count 20
scalar AODVNetwork.host[0].udp packetReceived:sum(packetBytes) 624
scalar AODVNetwork.host[0].udp packetSent:count 5
scalar AODVNetwork.host[0].udp packetSent:sum(packetBytes) 164
scalar AODVNetwork.host[0].udp passedUpPk:count 20
scalar AODVNetwork.host[0].udp droppedPkWrongPort:count 0
scalar AODVNetwork.host[0].udp droppedPkBadChecksum:count 0
scalar AODVNetwork.host[0].app[0] "Pings sent" 57
scalar AODVNetwork.host[0].app[0] "ping loss rate (%)" 1.7543859649123
scalar AODVNetwork.host[0].app[0] "ping out-of-order rate (%)" 0
scalar AODVNetwork.host[0].app[0] pingRxSeq:count 56
scalar AODVNetwork.host[0].app[0] pingTxSeq:count 57
scalar AODVNetwork.host[0].app[0] numOutOfOrderArrivals:last nan
scalar AODVNetwork.host[0].app[0] numLost:last 1
scalar AODVNetwork.host[1].lo[0].lo rcvdPkFromHl:count 0
scalar AODVNetwork.host[1].lo[0].lo rcvdPkFromHl:sum(packetBytes) 0
scalar AODVNetwork.host[1].lo[0].lo passedUpPk:count 0
scalar AODVNetwork.host[1].lo[0].lo passedUpPk:sum(packetBytes) 0
scalar AODVNetwork.host[1].lo[0] packetDropInterfaceDown:count 0
scalar AODVNetwork.host[1].lo[0] packetDropInterfaceDown:sum(packetBytes) 0
scalar AODVNetwork.host[1].lo[0] packetDropNoCarrier:count 0
scalar AODVNetwork.host[1].lo[0] packetDropNoCarrier:sum(packetBytes) 0
scalar AODVNetwork.host[1].wlan[0].queue queueLength:last 0
scalar AODVNetwork.host[1].wlan[0].queue queueLength:max 2
scalar AODVNetwork.host[1].wlan[0].queue queueLength:timeavg 1.90398349e-05
scalar AODVNetwork.host[1].wlan[0].queue queueBitLength:last 0
scalar AODVNetwork.host[1].wlan[0].queue queueBitLength:max 1344
scalar AODVNetwork.host[1].wlan[0].queue queueBitLength:timeavg 0.0127947690528
scalar AODVNetwork.host[1].wlan[0].queue outgoingPackets:count 63
scalar AODVNetwork.host[1].wlan[0].queue outgoingPacketLengths:sum 39680
scalar AODVNetwork.host[1].wlan[0].queue incomingPackets:count 63
scalar AODVNetwork.host[1].wlan[0].queue incomingPacketLengths:sum 39680
scalar AODVNetwork.host[1].wlan[0].queue droppedPacketsQueueOverflow:count 0
scalar AODVNetwork.host[1].wlan[0].queue droppedPacketLengthsQueueOverflow:sum 0
scalar AODVNetwork.host[1].wlan[0].mac rcvdPkFromLl:count 131
scalar AODVNetwork.host[1].wlan[0].mac rcvdPkFromLl:sum(packetBytes) 13201
scalar AODVNetwork.host[1].wlan[0].mac sentDownPk:count 63
scalar AODVNetwork.host[1].wlan[0].mac sentDownPk:sum(packetBytes) 6409
scalar AODVNetwork.host[1].wlan[0].mac rcvdPkFromHl:count 63
scalar AODVNetwork.host[1].wlan[0].mac rcvdPkFromHl:sum(packetBytes) 4960
scalar AODVNetwork.host[1].wlan[0].mac passedUpPk:count 71
scalar AODVNetwork.host[1].wlan[0].mac passedUpPk:sum(packetBytes) 5292
scalar AODVNetwork.host[1].wlan[0].mac packetDropIncorrectlyReceived:count 0
scalar AODVNetwork.host[1].wlan[0].mac packetDropIncorrectlyReceived:sum(packetBytes) 0
scalar AODVNetwork.host[1].wlan[0].mac packetDropInterfaceDown:count 0
scalar AODVNetwork.host[1].wlan[0].mac packetDropInterfaceDown:sum(packetBytes) 0
scalar AODVNetwork.host[1].wlan[0].mac packetDropNotAddressedToUs:count 60
scalar AODVNetwork.host[1].wlan[0].mac packetDropNotAddressedToUs:sum(packetBytes) 6276
scalar AODVNetwork.host[1].wlan[0].mac linkBroken:count 0
scalar AODVNetwork.host[1].wlan[0].radio radioMode:count 3
scalar AODVNetwork.host[1].wlan[0].radio receptionState:count 265
scalar AODVNetwork.host[1].wlan[0].radio transmissionState:count 127
scalar AODVNetwork.host[1].wlan[0] packetDropInterfaceDown:count 0
scalar AODVNetwork.host[1].wlan[0] packetDropInterfaceDown:sum(packetBytes) 0
scalar AODVNetwork.host[1].wlan[0] packetDropNoCarrier:count 0
scalar AODVNetwork.host[1].wlan[0] packetDropNoCarrier:sum(packetBytes) 0
scalar AODVNetwork.host[1].ipv4.ip packetDropAddressResolutionFailed:count 0
scalar AODVNetwork.host[1].ipv4.ip packetDropAddressResolutionFailed:sum(packetBytes) 0
scalar AODVNetwork.host[1].ipv4.ip packetDropHopLimitReached:count 0
scalar AODVNetwork.host[1].ipv4.ip packetDropHopLimitReached:sum(packetBytes) 0
scalar AODVNetwork.host[1].ipv4.ip packetDropForwardingDisabled:count 0
scalar AODVNetwork.host[1].ipv4.ip packetDropForwardingDisabled:sum(packetBytes) 0
scalar AODVNetwork.host[1].ipv4.ip packetDropLifetimeExpired:count 0
scalar AODVNetwork.host[1].ipv4.ip packetDropLifetimeExpired:sum(packetBytes) 0
scalar AODVNetwork.host[1].ipv4.ip packetDropNoInterfaceFound:count 0
scalar AODVNetwork.host[1].ipv4.ip packetDropNoInterfaceFound:sum(packetBytes) 0
scalar AODVNetwork.host[1].ipv4.ip packetDropNoRouteFound:count 0
scalar AODVNetwork.host[1].ipv4.ip packetDropNoRouteFound:sum(packetBytes) 0
scalar AODVNetwork.host[1].ipv4.ip packetDropUndefined:count 0
scalar AODVNetwork.host[1].ipv4.ip packetDropUndefined:sum(packetBytes) 0
scalar AODVNetwork.host[1].ipv4.arp arpResolutionFailed:count 0
scalar AODVNetwork.host[1].ipv4.arp arpResolutionCompleted:count 8
scalar AODVNetwork.host[1].ipv4.arp arpResolutionInitiated:count 3
scalar AODVNetwork.host[1].ipv4.arp arpReplySent:count 0
scalar AODVNetwork.host[1].ipv4.arp arpReplySent:sum(packetBytes) 0
scalar AODVNetwork.host[1].ipv4.arp arpRequestSent:count 4
scalar AODVNetwork.host[1].ipv4.arp arpRequestSent:sum(packetBytes) 112
scalar AODVNetwork.host[1].udp packetReceived:count 7
scalar AODVNetwork.host[1].udp packetReceived:sum(packetBytes) 224
scalar AODVNetwork.host[1].udp packetSent:count 3
scalar AODVNetwork.host[1].udp packetSent:sum(packetBytes) 84
scalar AODVNetwork.host[1].udp passedUpPk:count 7
scalar AODVNetwork.host[1].udp droppedPkWrongPort:count 0
scalar AODVNetwork.host[1].udp droppedPkBadChecksum:count 0
scalar AODVNetwork.host[2].lo[0].lo rcvdPkFromHl:count 0
scalar AODVNetwork.host[2].lo[0].lo rcvdPkFromHl:sum(packetBytes) 0
scalar AODVNetwork.host[2].lo[0].lo passedUpPk:count 0
scalar AODVNetwork.host[2].lo[0].lo passedUpPk:sum(packetBytes) 0
scalar AODVNetwork.host[2].lo[0] packetDropInterfaceDown:count 0
scalar AODVNetwork.host[2].lo[0] packetDropInterfaceDown:sum(packetBytes) 0
scalar AODVNetwork.host[2].lo[0] packetDropNoCarrier:count 0
scalar AODVNetwork.host[2].lo[0] packetDropNoCarrier:sum(packetBytes) 0
scalar AODVNetwork.host[2].wlan[0].queue queueLength:last 0
scalar AODVNetwork.host[2].wlan[0].queue queueLength:max 0
scalar AODVNetwork.host[2].wlan[0].queue queueLength:timeavg 0
scalar AODVNetwork.host[2].wlan[0].queue queueBitLength:last 0
scalar AODVNetwork.host[2].wlan[0].queue queueBitLength:max 0
scalar AODVNetwork.host[2].wlan[0].queue queueBitLength:timeavg 0
scalar AODVNetwork.host[2].wlan[0].queue outgoingPackets:count 2
scalar AODVNetwork.host[2].wlan[0].queue outgoingPacketLengths:sum 832
scalar AODVNetwork.host[2].wlan[0].queue incomingPackets:count 2
scalar AODVNetwork.host[2].wlan[0].queue incomingPacketLengths:sum 832
scalar AODVNetwork.host[2].wlan[0].queue droppedPacketsQueueOverflow:count 0
scalar AODVNetwork.host[2].wlan[0].queue droppedPacketLengthsQueueOverflow:sum 0
scalar AODVNetwork.host[2].wlan[0].mac rcvdPkFromLl:count 177
scalar AODVNetwork.host[2].wlan[0].mac rcvdPkFromLl:sum(packetBytes) 17599
scalar AODVNetwork.host[2].wlan[0].mac sentDownPk:count 2
scalar AODVNetwork.host[2].wlan[0].mac sentDownPk:sum(packetBytes) 150
scalar AODVNetwork.host[2].wlan[0].mac rcvdPkFromHl:count 2
scalar AODVNetwork.host[2].wlan[0].mac rcvdPkFromHl:sum(packetBytes) 104
scalar AODVNetwork.host[2].wlan[0].mac passedUpPk:count 23
scalar AODVNetwork.host[2].wlan[0].mac passedUpPk:sum(packetBytes) 1052
scalar AODVNetwork.host[2].wlan[0].mac packetDropIncorrectlyReceived:count 0
scalar AODVNetwork.host[2].wlan[0].mac packetDropIncorrectlyReceived:sum(packetBytes) 0
scalar AODVNetwork.host[2].wlan[0].mac packetDropInterfaceDown:count 0
scalar AODVNetwork.host[2].wlan[0].mac packetDropInterfaceDown:sum(packetBytes) 0
scalar AODVNetwork.host[2].wlan[0].mac packetDropNotAddressedToUs:count 154
scalar AODVNetwork.host[2].wlan[0].mac packetDropNotAddressedToUs:sum(packetBytes) 16018
scalar AODVNetwork.host[2].wlan[0].mac linkBroken:count 0
scalar AODVNetwork.host[2].wlan[0].radio radioMode:count 3
scalar AODVNetwork.host[2].wlan[0].radio receptionState:count 364
scalar AODVNetwork.host[2].wlan[0].radio transmissionState:count 5
scalar AODVNetwork.host[2].wlan[0] packetDropInterfaceDown:count 0
scalar AODVNetwork.host[2].wlan[0] packetDropInterfaceDown:sum(packetBytes) 0
scalar AODVNetwork.host[2].wlan[0] packetDropNoCarrier:count 0
scalar AODVNetwork.host[2].wlan[0] packetDropNoCarrier:sum(packetBytes) 0
scalar AODVNetwork.host[2].ipv4.ip packetDropAddressResolutionFailed:count 0
scalar AODVNetwork.host[2].ipv4.ip packetDropAddressResolutionFailed:sum(packetBytes) 0
scalar AODVNetwork.host[2].ipv4.ip packetDropHopLimitReached:count 0
scalar AODVNetwork.host[2].ipv4.ip packetDropHopLimitReached:sum(packetBytes) 0
scalar AODVNetwork.host[2].ipv4.ip packetDropForwardingDisabled:count 0
scalar AODVNetwork.host[2].ipv4.ip packetDropForwardingDisabled:sum(packetBytes) 0
scalar AODVNetwork.host[2].ipv4.ip packetDropLifetimeExpired:count 0
scalar AODVNetwork.host[2].ipv4.ip packetDropLifetimeExpired:sum(packetBytes) 0
scalar AODVNetwork.host[2].ipv4.ip packetDropNoInterfaceFound:count 0
scalar AODVNetwork.host[2].ipv4.ip packetDropNoInterfaceFound:sum(packetBytes) 0
scalar AODVNetwork.host[2].ipv4.ip packetDropNoRouteFound:count 0
scalar AODVNetwork.host[2].ipv4.ip packetDropNoRouteFound:sum(packetBytes) 0
scalar AODVNetwork.host[2].ipv4.ip packetDropUndefined:count 0
scalar AODVNetwork.host[2].ipv4.ip packetDropUndefined:sum(packetBytes) 0
scalar AODVNetwork.host[2].ipv4.arp arpResolutionFailed:count 0
scalar AODVNetwork.host[2].ipv4.arp arpResolutionCompleted:count 0
scalar AODVNetwork.host[2].ipv4.arp arpResolutionInitiated:count 0
scalar AODVNetwork.host[2].ipv4.arp arpReplySent:count 0
scalar AODVNetwork.host[2].ipv4.arp arpReplySent:sum(packetBytes) 0
scalar AODVNetwork.host[2].ipv4.arp arpRequestSent:count 0
scalar AODVNetwork.host[2].ipv4.arp arpRequestSent:sum(packetBytes) 0
scalar AODVNetwork.host[2].udp packetReceived:count 17
scalar AODVNetwork.host[2].udp packetReceived:sum(packetBytes) 544
scalar AODVNetwork.host[2].udp packetSent:count 2
scalar AODVNetwork.host[2].udp packetSent:sum(packetBytes) 64
scalar AODVNetwork.host[2].udp passedUpPk:count 17
scalar AODVNetwork.host[2].udp droppedPkWrongPort:count 0
scalar AODVNetwork.host[2].udp droppedPkBadChecksum:count 0
scalar AODVNetwork.host[3].lo[0].lo rcvdPkFromHl:count 0
scalar AODVNetwork.host[3].lo[0].lo rcvdPkFromHl:sum(packetBytes) 0
scalar AODVNetwork.host[3].lo[0].lo passedUpPk:count 0
scalar AODVNetwork.host[3].lo[0].lo passedUpPk:sum(packetBytes) 0
scalar AODVNetwork.host[3].lo[0] packetDropInterfaceDown:count 0
scalar AODVNetwork.host[3].lo[0] packetDropInterfaceDown:sum(packetBytes) 0
scalar AODVNetwork.host[3].lo[0] packetDropNoCarrier:count 0
scalar AODVNetwork.host[3].lo[0] packetDropNoCarrier:sum(packetBytes) 0
scalar AODVNetwork.host[3].wlan[0].queue queueLength:last 0
scalar AODVNetwork.host[3].wlan[0].queue queueLength:max 4
scalar AODVNetwork.host[3].wlan[0].queue queueLength:timeavg 7.7045771166667e-05
scalar AODVNetwork.host[3].wlan[0].queue queueBitLength:last 0
scalar AODVNetwork.host[3].wlan[0].queue queueBitLength:max 2400
scalar AODVNetwork.host[3].wlan[0].queue queueBitLength:timeavg 0.0449106435952
scalar AODVNetwork.host[3].wlan[0].queue outgoingPackets:count 42
scalar AODVNetwork.host[3].wlan[0].queue outgoingPacketLengths:sum 25120
scalar AODVNetwork.host[3].wlan[0].queue incomingPackets:count 42
scalar AODVNetwork.host[3].wlan[0].queue incomingPacketLengths:sum 25120
scalar AODVNetwork.host[3].wlan[0].queue droppedPacketsQueueOverflow:count 0
scalar AODVNetwork.host[3].wlan[0].queue droppedPacketLengthsQueueOverflow:sum 0
scalar AODVNetwork.host[3].wlan[0].mac rcvdPkFromLl:count 207
scalar AODVNetwork.host[3].wlan[0].mac rcvdPkFromLl:sum(packetBytes) 20593
scalar AODVNetwork.host[3].wlan[0].mac sentDownPk:count 42
scalar AODVNetwork.host[3].wlan[0].mac sentDownPk:sum(packetBytes) 4106
scalar AODVNetwork.host[3].wlan[0].mac rcvdPkFromHl:count 42
scalar AODVNetwork.host[3].wlan[0].mac rcvdPkFromHl:sum(packetBytes) 3140
scalar AODVNetwork.host[3].wlan[0].mac passedUpPk:count 64
scalar AODVNetwork.host[3].wlan[0].mac passedUpPk:sum(packetBytes) 4264
scalar AODVNetwork.host[3].wlan[0].mac packetDropIncorrectlyReceived:count 0
scalar AODVNetwork.host[3].wlan[0].mac packetDropIncorrectlyReceived:sum(packetBytes) 0
scalar AODVNetwork.host[3].wlan[0].mac packetDropInterfaceDown:count 0
scalar AODVNetwork.host[3].wlan[0].mac packetDropInterfaceDown:sum(packetBytes) 0
scalar AODVNetwork.host[3].wlan[0].mac packetDropNotAddressedToUs:count 143
scalar AODVNetwork.host[3].wlan[0].mac packetDropNotAddressedToUs:sum(packetBytes) 14857
scalar AODVNetwork.host[3].wlan[0].mac linkBroken:count 1
scalar AODVNetwork.host[3].wlan[0].radio radioMode:count 3
scalar AODVNetwork.host[3].wlan[0].radio receptionState:count 423
scalar AODVNetwork.host[3].wlan[0].radio transmissionState:count 85
scalar AODVNetwork.host[3].wlan[0] packetDropInterfaceDown:count 0
scalar AODVNetwork.host[3].wlan[0] packetDropInterfaceDown:sum(packetBytes) 0
scalar AODVNetwork.host[3].wlan[0] packetDropNoCarrier:count 0
scalar AODVNetwork.host[3].wlan[0] packetDropNoCarrier:sum(packetBytes) 0
scalar AODVNetwork.host[3].ipv4.ip packetDropAddressResolutionFailed:count 0
scalar AODVNetwork.host[3].ipv4.ip packetDropAddressResolutionFailed:sum(packetBytes) 0
scalar AODVNetwork.host[3].ipv4.ip packetDropHopLimitReached:count 0
scalar AODVNetwork.host[3].ipv4.ip packetDropHopLimitReached:sum(packetBytes) 0
scalar AODVNetwork.host[3].ipv4.ip packetDropForwardingDisabled:count 0
scalar AODVNetwork.host[3].ipv4.ip packetDropForwardingDisabled:sum(packetBytes) 0
scalar AODVNetwork.host[3].ipv4.ip packetDropLifetimeExpired:count 0
scalar AODVNetwork.host[3].ipv4.ip packetDropLifetimeExpired:sum(packetBytes) 0
scalar AODVNetwork.host[3].ipv4.ip packetDropNoInterfaceFound:count 0
scalar AODVNetwork.host[3].ipv4.ip packetDropNoInterfaceFound:sum(packetBytes) 0
scalar AODVNetwork.host[3].ipv4.ip packetDropNoRouteFound:count 0
scalar AODVNetwork.host[3].ipv4.ip packetDropNoRouteFound:sum(packetBytes) 0
scalar AODVNetwork.host[3].ipv4.ip packetDropUndefined:count 0
scalar AODVNetwork.host[3].ipv4.ip packetDropUndefined:sum(packetBytes) 0
scalar AODVNetwork.host[3].ipv4.arp arpResolutionFailed:count 0
scalar AODVNetwork.host[3].ipv4.arp arpResolutionCompleted:count 3
scalar AODVNetwork.host[3].ipv4.arp arpResolutionInitiated:count 1
scalar AODVNetwork.host[3].ipv4.arp arpReplySent:count 2
scalar AODVNetwork.host[3].ipv4.arp arpReplySent:sum(packetBytes) 56
scalar AODVNetwork.host[3].ipv4.arp arpRequestSent:count 2
scalar AODVNetwork.host[3].ipv4.arp arpRequestSent:sum(packetBytes) 56
scalar AODVNetwork.host[3].udp packetReceived:count 26
scalar AODVNetwork.host[3].udp packetReceived:sum(packetBytes) 832
scalar AODVNetwork.host[3].udp packetSent:count 5
scalar AODVNetwork.host[3].udp packetSent:sum(packetBytes) 156
scalar AODVNetwork.host[3].udp passedUpPk:count 26
scalar AODVNetwork.host[3].udp droppedPkWrongPort:count 0
scalar AODVNetwork.host[3].udp droppedPkBadChecksum:count 0
scalar AODVNetwork.host[4].lo[0].lo rcvdPkFromHl:count 0
scalar AODVNetwork.host[4].lo[0].lo rcvdPkFromHl:sum(packetBytes) 0
scalar AODVNetwork.host[4].lo[0].lo passedUpPk:count 0
scalar AODVNetwork.host[4].lo[0].lo passedUpPk:sum(packetBytes) 0
scalar AODVNetwork.host[4].lo[0] packetDropInterfaceDown:count 0
scalar AODVNetwork.host[4].lo[0] packetDropInterfaceDown:sum(packetBytes) 0
scalar AODVNetwork.host[4].lo[0] packetDropNoCarrier:count 0
scalar AODVNetwork.host[4].lo[0] packetDropNoCarrier:sum(packetBytes) 0
scalar AODVNetwork.host[4].wlan[0].queue queueLength:last 0
scalar AODVNetwork.host[4].wlan[0].queue queueLength:max 0
scalar AODVNetwork.host[4].wlan[0].queue queueLength:timeavg 0
scalar AODVNetwork.host[4].wlan[0].queue queueBitLength:last 0
scalar AODVNetwork.host[4].wlan[0].queue queueBitLength:max 0
scalar AODVNetwork.host[4].wlan[0].queue queueBitLength:timeavg 0
scalar AODVNetwork.host[4].wlan[0].queue outgoingPackets:count 2
scalar AODVNetwork.host[4].wlan[0].queue outgoingPacketLengths:sum 832
scalar AODVNetwork.host[4].wlan[0].queue incomingPackets:count 2
scalar AODVNetwork.host[4].wlan[0].queue incomingPacketLengths:sum 832
scalar AODVNetwork.host[4].wlan[0].queue droppedPacketsQueueOverflow:count 0
scalar AODVNetwork.host[4].wlan[0].queue droppedPacketLengthsQueueOverflow:sum 0
scalar AODVNetwork.host[4].wlan[0].mac rcvdPkFromLl:count 234
scalar AODVNetwork.host[4].wlan[0].mac rcvdPkFromLl:sum(packetBytes) 23578
scalar AODVNetwork.host[4].wlan[0].mac sentDownPk:count 2
scalar AODVNetwork.host[4].wlan[0].mac sentDownPk:sum(packetBytes) 150
scalar AODVNetwork.host[4].wlan[0].mac rcvdPkFromHl:count 2
scalar AODVNetwork.host[4].wlan[0].mac rcvdPkFromHl:sum(packetBytes) 104
scalar AODVNetwork.host[4].wlan[0].mac passedUpPk:count 20
scalar AODVNetwork.host[4].wlan[0].mac passedUpPk:sum(packetBytes) 824
scalar AODVNetwork.host[4].wlan[0].mac packetDropIncorrectlyReceived:count 0
scalar AODVNetwork.host[4].wlan[0].mac packetDropIncorrectlyReceived:sum(packetBytes) 0
scalar AODVNetwork.host[4].wlan[0].mac packetDropInterfaceDown:count 0
scalar AODVNetwork.host[4].wlan[0].mac packetDropInterfaceDown:sum(packetBytes) 0
scalar AODVNetwork.host[4].wlan[0].mac packetDropNotAddressedToUs:count 214
scalar AODVNetwork.host[4].wlan[0].mac packetDropNotAddressedToUs:sum(packetBytes) 22294
scalar AODVNetwork.host[4].wlan[0].mac linkBroken:count 0
scalar AODVNetwork.host[4].wlan[0].radio radioMode:count 3
scalar AODVNetwork.host[4].wlan[0].radio receptionState:count 471
scalar AODVNetwork.host[4].wlan[0].radio transmissionState:count 5
scalar AODVNetwork.host[4].wlan[0] packetDropInterfaceDown:count 0
scalar AODVNetwork.host[4].wlan[0] packetDropInterfaceDown:sum(packetBytes) 0
scalar AODVNetwork.host[4].wlan[0] packetDropNoCarrier:count 0
scalar AODVNetwork.host[4].wlan[0] packetDropNoCarrier:sum(packetBytes) 0
scalar AODVNetwork.host[4].ipv4.ip packetDropAddressResolutionFailed:count 0
scalar AODVNetwork.host[4].ipv4.ip packetDropAddressResolutionFailed:sum(packetBytes) 0
scalar AODVNetwork.host[4].ipv4.ip packetDropHopLimitReached:count 0
scalar AODVNetwork.host[4].ipv4.ip packetDropHopLimitReached:sum(packetBytes) 0
scalar AODVNetwork.host[4].ipv4.ip packetDropForwardingDisabled:count 0
scalar AODVNetwork.host[4].ipv4.ip packetDropForwardingDisabled:sum(packetBytes) 0
scalar AODVNetwork.host[4].ipv4.ip packetDropLifetimeExpired:count 0
scalar AODVNetwork.host[4].ipv4.ip packetDropLifetimeExpired:sum(packetBytes) 0
scalar AODVNetwork.host[4].ipv4.ip packetDropNoInterfaceFound:count 0
scalar AODVNetwork.host[4].ipv4.ip packetDropNoInterfaceFound:sum(packetBytes) 0
scalar AODVNetwork.host[4].ipv4.ip packetDropNoRouteFound:count 0
scalar AODVNetwork.host[4].ipv4.ip packetDropNoRouteFound:sum(packetBytes) 0
scalar AODVNetwork.host[4].ipv4.ip packetDropUndefined:count 0
scalar AODVNetwork.host[4].ipv4.ip packetDropUndefined:sum(packetBytes) 0
scalar AODVNetwork.host[4].ipv4.arp arpResolutionFailed:count 0
scalar AODVNetwork.host[4].ipv4.arp arpResolutionCompleted:count 0
scalar AODVNetwork.host[4].ipv4.arp arpResolutionInitiated:count 0
scalar AODVNetwork.host[4].ipv4.arp arpReplySent:count 0
scalar AODVNetwork.host[4].ipv4.arp arpReplySent:sum(packetBytes) 0
scalar AODVNetwork.host[4].ipv4.arp arpRequestSent:count 0
scalar AODVNetwork.host[4].ipv4.arp arpRequestSent:sum(packetBytes) 0
scalar AODVNetwork.host[4].udp packetReceived:count 11
scalar AODVNetwork.host[4].udp packetReceived:sum(packetBytes) 352
scalar AODVNetwork.host[4].udp packetSent:count 2
scalar AODVNetwork.host[4].udp packetSent:sum(packetBytes) 64
scalar AODVNetwork.host[4].udp passedUpPk:count 11
scalar AODVNetwork.host[4].udp droppedPkWrongPort:count 0
scalar AODVNetwork.host[4].udp droppedPkBadChecksum:count 0
scalar AODVNetwork.host[5].lo[0].lo rcvdPkFromHl:count 0
scalar AODVNetwork.host[5].lo[0].lo rcvdPkFromHl:sum(packetBytes) 0
scalar AODVNetwork.host[5].lo[0].lo passedUpPk:count 0
scalar AODVNetwork.host[5].lo[0].lo passedUpPk:sum(packetBytes) 0
scalar AODVNetwork.host[5].lo[0] packetDropInterfaceDown:count 0
scalar AODVNetwork.host[5].lo[0] packetDropInterfaceDown:sum(packetBytes) 0
scalar AODVNetwork.host[5].lo[0] packetDropNoCarrier:count 0
scalar AODVNetwork.host[5].lo[0] packetDropNoCarrier:sum(packetBytes) 0
scalar AODVNetwork.host[5].wlan[0].queue queueLength:last 0
scalar AODVNetwork.host[5].wlan[0].queue queueLength:max 0
scalar AODVNetwork.host[5].wlan[0].queue queueLength:timeavg 0
scalar AODVNetwork.host[5].wlan[0].queue queueBitLength:last 0
scalar AODVNetwork.host[5].wlan[0].queue queueBitLength:max 0
scalar AODVNetwork.host[5].wlan[0].queue queueBitLength:timeavg 0
scalar AODVNetwork.host[5].wlan[0].queue outgoingPackets:count 2
scalar AODVNetwork.host[5].wlan[0].queue outgoingPacketLengths:sum 832
scalar AODVNetwork.host[5].wlan[0].queue incomingPackets:count 2
scalar AODVNetwork.host[5].wlan[0].queue incomingPacketLengths:sum 832
scalar AODVNetwork.host[5].wlan[0].queue droppedPacketsQueueOverflow:count 0
scalar AODVNetwork.host[5].wlan[0].queue droppedPacketLengthsQueueOverflow:sum 0
scalar AODVNetwork.host[5].wlan[0].mac rcvdPkFromLl:count 49
scalar AODVNetwork.host[5].wlan[0].mac rcvdPkFromLl:sum(packetBytes) 4631
scalar AODVNetwork.host[5].wlan[0].mac sentDownPk:count 2
scalar AODVNetwork.host[5].wlan[0].mac sentDownPk:sum(packetBytes) 150
scalar AODVNetwork.host[5].wlan[0].mac rcvdPkFromHl:count 2
scalar AODVNetwork.host[5].wlan[0].mac rcvdPkFromHl:sum(packetBytes) 104
scalar AODVNetwork.host[5].wlan[0].mac passedUpPk:count 13
scalar AODVNetwork.host[5].wlan[0].mac passedUpPk:sum(packetBytes) 628
scalar AODVNetwork.host[5].wlan[0].mac packetDropIncorrectlyReceived:count 0
scalar AODVNetwork.host[5].wlan[0].mac packetDropIncorrectlyReceived:sum(packetBytes) 0
scalar AODVNetwork.host[5].wlan[0].mac packetDropInterfaceDown:count 0
scalar AODVNetwork.host[5].wlan[0].mac packetDropInterfaceDown:sum(packetBytes) 0
scalar AODVNetwork.host[5].wlan[0].mac packetDropNotAddressedToUs:count 36
scalar AODVNetwork.host[5].wlan[0].mac packetDropNotAddressedToUs:sum(packetBytes) 3704
scalar AODVNetwork.host[5].wlan[0].mac linkBroken:count 0
scalar AODVNetwork.host[5].wlan[0].radio radioMode:count 3
scalar AODVNetwork.host[5].wlan[0].radio receptionState:count 100
scalar AODVNetwork.host[5].wlan[0].radio transmissionState:count 5
scalar AODVNetwork.host[5].wlan[0] packetDropInterfaceDown:count 0
scalar AODVNetwork.host[5].wlan[0] packetDropInterfaceDown:sum(packetBytes) 0
scalar AODVNetwork.host[5].wlan[0] packetDropNoCarrier:count 0
scalar AODVNetwork.host[5].wlan[0] packetDropNoCarrier:sum(packetBytes) 0
scalar AODVNetwork.host[5].ipv4.ip packetDropAddressResolutionFailed:count 0
scalar AODVNetwork.host[5].ipv4.ip packetDropAddressResolutionFailed:sum(packetBytes) 0
scalar AODVNetwork.host[5].ipv4.ip packetDropHopLimitReached:count 0
scalar AODVNetwork.host[5].ipv4.ip packetDropHopLimitReached:sum(packetBytes) 0
scalar AODVNetwork.host[5].ipv4.ip packetDropForwardingDisabled:count 0
scalar AODVNetwork.host[5].ipv4.ip packetDropForwardingDisabled:sum(packetBytes) 0
scalar AODVNetwork.host[5].ipv4.ip packetDropLifetimeExpired:count 0
scalar AODVNetwork.host[5].ipv4.ip packetDropLifetimeExpired:sum(packetBytes) 0
scalar AODVNetwork.host[5].ipv4.ip packetDropNoInterfaceFound:count 0
scalar AODVNetwork.host[5].ipv4.ip packetDropNoInterfaceFound:sum(packetBytes) 0
scalar AODVNetwork.host[5].ipv4.ip packetDropNoRouteFound:count 0
scalar AODVNetwork.host[5].ipv4.ip packetDropNoRouteFound:sum(packetBytes) 0
scalar AODVNetwork.host[5].ipv4.ip packetDropUndefined:count 0
scalar AODVNetwork.host[5].ipv4.ip packetDropUndefined:sum(packetBytes) 0
scalar AODVNetwork.host[5].ipv4.arp arpResolutionFailed:count 0
scalar AODVNetwork.host[5].ipv4.arp arpResolutionCompleted:count 0
scalar AODVNetwork.host[5].ipv4.arp arpResolutionInitiated:count 0
scalar AODVNetwork.host[5].ipv4.arp arpReplySent:count 0
scalar AODVNetwork.host[5].ipv4.arp arpReplySent:sum(packetBytes) 0
scalar AODVNetwork.host[5].ipv4.arp arpRequestSent:count 0
scalar AODVNetwork.host[5].ipv4.arp arpRequestSent:sum(packetBytes) 0
scalar AODVNetwork.host[5].udp packetReceived:count 11
scalar AODVNetwork.host[5].udp packetReceived:sum(packetBytes) 352
scalar AODVNetwork.host[5].udp packetSent:count 2
scalar AODVNetwork.host[5].udp packetSent:sum(packetBytes) 64
scalar AODVNetwork.host[5].udp passedUpPk:count 11
scalar AODVNetwork.host[5].udp droppedPkWrongPort:count 0
scalar AODVNetwork.host[5].udp droppedPkBadChecksum:count 0
scalar AODVNetwork.host[6].lo[0].lo rcvdPkFromHl:count 0
scalar AODVNetwork.host[6].lo[0].lo rcvdPkFromHl:sum(packetBytes) 0
scalar AODVNetwork.host[6].lo[0].lo passedUpPk:count 0
scalar AODVNetwork.host[6].lo[0].lo passedUpPk:sum(packetBytes) 0
scalar AODVNetwork.host[6].lo[0] packetDropInterfaceDown:count 0
scalar AODVNetwork.host[6].lo[0] packetDropInterfaceDown:sum(packetBytes) 0
scalar AODVNetwork.host[6].lo[0] packetDropNoCarrier:count 0
scalar AODVNetwork.host[6].lo[0] packetDropNoCarrier:sum(packetBytes) 0
scalar AODVNetwork.host[6].wlan[0].queue queueLength:last 0
scalar AODVNetwork.host[6].wlan[0].queue queueLength:max 1
scalar AODVNetwork.host[6].wlan[0].queue queueLength:timeavg 5.5446605666667e-06
scalar AODVNetwork.host[6].wlan[0].queue queueBitLength:last 0
scalar AODVNetwork.host[6].wlan[0].queue queueBitLength:max 384
scalar AODVNetwork.host[6].wlan[0].queue queueBitLength:timeavg 0.0021291496576
scalar AODVNetwork.host[6].wlan[0].queue outgoingPackets:count 39
scalar AODVNetwork.host[6].wlan[0].queue outgoingPacketLengths:sum 24032
scalar AODVNetwork.host[6].wlan[0].queue incomingPackets:count 39
scalar AODVNetwork.host[6].wlan[0].queue incomingPacketLengths:sum 24032
scalar AODVNetwork.host[6].wlan[0].queue droppedPacketsQueueOverflow:count 0
scalar AODVNetwork.host[6].wlan[0].queue droppedPacketLengthsQueueOverflow:sum 0
scalar AODVNetwork.host[6].wlan[0].mac rcvdPkFromLl:count 197
scalar AODVNetwork.host[6].wlan[0].mac rcvdPkFromLl:sum(packetBytes) 19827
scalar AODVNetwork.host[6].wlan[0].mac sentDownPk:count 39
scalar AODVNetwork.host[6].wlan[0].mac sentDownPk:sum(packetBytes) 3901
scalar AODVNetwork.host[6].wlan[0].mac rcvdPkFromHl:count 39
scalar AODVNetwork.host[6].wlan[0].mac rcvdPkFromHl:sum(packetBytes) 3004
scalar AODVNetwork.host[6].wlan[0].mac passedUpPk:count 55
scalar AODVNetwork.host[6].wlan[0].mac passedUpPk:sum(packetBytes) 3696
scalar AODVNetwork.host[6].wlan[0].mac packetDropIncorrectlyReceived:count 0
scalar AODVNetwork.host[6].wlan[0].mac packetDropIncorrectlyReceived:sum(packetBytes) 0
scalar AODVNetwork.host[6].wlan[0].mac packetDropInterfaceDown:count 0
scalar AODVNetwork.host[6].wlan[0].mac packetDropInterfaceDown:sum(packetBytes) 0
scalar AODVNetwork.host[6].wlan[0].mac packetDropNotAddressedToUs:count 142
scalar AODVNetwork.host[6].wlan[0].mac packetDropNotAddressedToUs:sum(packetBytes) 14866
scalar AODVNetwork.host[6].wlan[0].mac linkBroken:count 0
scalar AODVNetwork.host[6].wlan[0].radio radioMode:count 3
scalar AODVNetwork.host[6].wlan[0].radio receptionState:count 399
scalar AODVNetwork.host[6].wlan[0].radio transmissionState:count 79
scalar AODVNetwork.host[6].wlan[0] packetDropInterfaceDown:count 0
scalar AODVNetwork.host[6].wlan[0] packetDropInterfaceDown:sum(packetBytes) 0
scalar AODVNetwork.host[6].wlan[0] packetDropNoCarrier:count 0
scalar AODVNetwork.host[6].wlan[0] packetDropNoCarrier:sum(packetBytes) 0
scalar AODVNetwork.host[6].ipv4.ip packetDropAddressResolutionFailed:count 0
scalar AODVNetwork.host[6].ipv4.ip packetDropAddressResolutionFailed:sum(packetBytes) 0
scalar AODVNetwork.host[6].ipv4.ip packetDropHopLimitReached:count 0
scalar AODVNetwork.host[6].ipv4.ip packetDropHopLimitReached:sum(packetBytes) 0
scalar AODVNetwork.host[6].ipv4.ip packetDropForwardingDisabled:count 0
scalar AODVNetwork.host[6].ipv4.ip packetDropForwardingDisabled:sum(packetBytes) 0
scalar AODVNetwork.host[6].ipv4.ip packetDropLifetimeExpired:count 0
scalar AODVNetwork.host[6].ipv4.ip packetDropLifetimeExpired:sum(packetBytes) 0
scalar AODVNetwork.host[6].ipv4.ip packetDropNoInterfaceFound:count 0
scalar AODVNetwork.host[6].ipv4.ip packetDropNoInterfaceFound:sum(packetBytes) 0
scalar AODVNetwork.host[6].ipv4.ip packetDropNoRouteFound:count 0
scalar AODVNetwork.host[6].ipv4.ip packetDropNoRouteFound:sum(packetBytes) 0
scalar AODVNetwork.host[6].ipv4.ip packetDropUndefined:count 0
scalar AODVNetwork.host[6].ipv4.ip packetDropUndefined:sum(packetBytes) 0
scalar AODVNetwork.host[6].ipv4.arp arpResolutionFailed:count 0
scalar AODVNetwork.host[6].ipv4.arp arpResolutionCompleted:count 5
scalar AODVNetwork.host[6].ipv4.arp arpResolutionInitiated:count 1
scalar AODVNetwork.host[6].ipv4.arp arpReplySent:count 1
scalar AODVNetwork.host[6].ipv4.arp arpReplySent:sum(packetBytes) 28
scalar AODVNetwork.host[6].ipv4.arp arpRequestSent:count 2
scalar AODVNetwork.host[6].ipv4.arp arpRequestSent:sum(packetBytes) 56
scalar AODVNetwork.host[6].udp packetReceived:count 13
scalar AODVNetwork.host[6].udp packetReceived:sum(packetBytes) 412
scalar AODVNetwork.host[6].udp packetSent:count 3
scalar AODVNetwork.host[6].udp packetSent:sum(packetBytes) 88
scalar AODVNetwork.host[6].udp passedUpPk:count 13
scalar AODVNetwork.host[6].udp droppedPkWrongPort:count 0
scalar AODVNetwork.host[6].udp droppedPkBadChecksum:count 0
scalar AODVNetwork.host[7].lo[0].lo rcvdPkFromHl:count 0
scalar AODVNetwork.host[7].lo[0].lo rcvdPkFromHl:sum(packetBytes) 0
scalar AODVNetwork.host[7].lo[0].lo passedUpPk:count 0
scalar AODVNetwork.host[7].lo[0].lo passedUpPk:sum(packetBytes) 0
scalar AODVNetwork.host[7].lo[0] packetDropInterfaceDown:count 0
scalar AODVNetwork.host[7].lo[0] packetDropInterfaceDown:sum(packetBytes) 0
scalar AODVNetwork.host[7].lo[0] packetDropNoCarrier:count 0
scalar AODVNetwork.host[7].lo[0] packetDropNoCarrier:sum(packetBytes) 0
scalar AODVNetwork.host[7].wlan[0].queue queueLength:last 0
scalar AODVNetwork.host[7].wlan[0].queue queueLength:max 0
scalar AODVNetwork.host[7].wlan[0].queue queueLength:timeavg 0
scalar AODVNetwork.host[7].wlan[0].queue queueBitLength:last 0
scalar AODVNetwork.host[7].wlan[0].queue queueBitLength:max 0
scalar AODVNetwork.host[7].wlan[0].queue queueBitLength:timeavg 0
scalar AODVNetwork.host[7].wlan[0].queue outgoingPackets:count 2
scalar AODVNetwork.host[7].wlan[0].queue outgoingPacketLengths:sum 832
scalar AODVNetwork.host[7].wlan[0].queue incomingPackets:count 2
scalar AODVNetwork.host[7].wlan[0].queue incomingPacketLengths:sum 832
scalar AODVNetwork.host[7].wlan[0].queue droppedPacketsQueueOverflow:count 0
scalar AODVNetwork.host[7].wlan[0].queue droppedPacketLengthsQueueOverflow:sum 0
scalar AODVNetwork.host[7].wlan[0].mac rcvdPkFromLl:count 236
scalar AODVNetwork.host[7].wlan[0].mac rcvdPkFromLl:sum(packetBytes) 23672
scalar AODVNetwork.host[7].wlan[0].mac sentDownPk:count 2
scalar AODVNetwork.host[7].wlan[0].mac sentDownPk:sum(packetBytes) 150
scalar AODVNetwork.host[7].wlan[0].mac rcvdPkFromHl:count 2
scalar AODVNetwork.host[7].wlan[0].mac rcvdPkFromHl:sum(packetBytes) 104
scalar AODVNetwork.host[7].wlan[0].mac passedUpPk:count 23
scalar AODVNetwork.host[7].wlan[0].mac passedUpPk:sum(packetBytes) 956
scalar AODVNetwork.host[7].wlan[0].mac packetDropIncorrectlyReceived:count 0
scalar AODVNetwork.host[7].wlan[0].mac packetDropIncorrectlyReceived:sum(packetBytes) 0
scalar AODVNetwork.host[7].wlan[0].mac packetDropInterfaceDown:count 0
scalar AODVNetwork.host[7].wlan[0].mac packetDropInterfaceDown:sum(packetBytes) 0
scalar AODVNetwork.host[7].wlan[0].mac packetDropNotAddressedToUs:count 213
scalar AODVNetwork.host[7].wlan[0].mac packetDropNotAddressedToUs:sum(packetBytes) 22187
scalar AODVNetwork.host[7].wlan[0].mac linkBroken:count 0
scalar AODVNetwork.host[7].wlan[0].radio radioMode:count 3
scalar AODVNetwork.host[7].wlan[0].radio receptionState:count 478
scalar AODVNetwork.host[7].wlan[0].radio transmissionState:count 5
scalar AODVNetwork.host[7].wlan[0] packetDropInterfaceDown:count 0
scalar AODVNetwork.host[7].wlan[0] packetDropInterfaceDown:sum(packetBytes) 0
scalar AODVNetwork.host[7].wlan[0] packetDropNoCarrier:count 0
scalar AODVNetwork.host[7].wlan[0] packetDropNoCarrier:sum(packetBytes) 0
scalar AODVNetwork.host[7].ipv4.ip packetDropAddressResolutionFailed:count 0
scalar AODVNetwork.host[7].ipv4.ip packetDropAddressResolutionFailed:sum(packetBytes) 0
scalar AODVNetwork.host[7].ipv4.ip packetDropHopLimitReached:count 0
scalar AODVNetwork.host[7].ipv4.ip packetDropHopLimitReached:sum(packetBytes) 0
scalar AODVNetwork.host[7].ipv4.ip packetDropForwardingDisabled:count 0
scalar AODVNetwork.host[7].ipv4.ip packetDropForwardingDisabled:sum(packetBytes) 0
scalar AODVNetwork.host[7].ipv4.ip packetDropLifetimeExpired:count 0
scalar AODVNetwork.host[7].ipv4.ip packetDropLifetimeExpired:sum(packetBytes) 0
scalar AODVNetwork.host[7].ipv4.ip packetDropNoInterfaceFound:count 0
scalar AODVNetwork.host[7].ipv4.ip packetDropNoInterfaceFound:sum(packetBytes) 0
scalar AODVNetwork.host[7].ipv4.ip packetDropNoRouteFound:count 0
scalar AODVNetwork.host[7].ipv4.ip packetDropNoRouteFound:sum(packetBytes) 0
scalar AODVNetwork.host[7].ipv4.ip packetDropUndefined:count 0
scalar AODVNetwork.host[7].ipv4.ip packetDropUndefined:sum(packetBytes) 0
scalar AODVNetwork.host[7].ipv4.arp arpResolutionFailed:count 0
scalar AODVNetwork.host[7].ipv4.arp arpResolutionCompleted:count 0
scalar AODVNetwork.host[7].ipv4.arp arpResolutionInitiated:count 0
scalar AODVNetwork.host[7].ipv4.arp arpReplySent:count 0
scalar AODVNetwork.host[7].ipv4.arp arpReplySent:sum(packetBytes) 0
scalar AODVNetwork.host[7].ipv4.arp arpRequestSent:count 0
scalar AODVNetwork.host[7].ipv4.arp arpRequestSent:sum(packetBytes) 0
scalar AODVNetwork.host[7].udp packetReceived:count 13
scalar AODVNetwork.host[7].udp packetReceived:sum(packetBytes) 416
scalar AODVNetwork.host[7].udp packetSent:count 2
scalar AODVNetwork.host[7].udp packetSent:sum(packetBytes) 64
scalar AODVNetwork.host[7].udp passedUpPk:count 13
scalar AODVNetwork.host[7].udp droppedPkWrongPort:count 0
scalar AODVNetwork.host[7].udp droppedPkBadChecksum:count 0
scalar AODVNetwork.host[8].lo[0].lo rcvdPkFromHl:count 0
scalar AODVNetwork.host[8].lo[0].lo rcvdPkFromHl:sum(packetBytes) 0
scalar AODVNetwork.host[8].lo[0].lo passedUpPk:count 0
scalar AODVNetwork.host[8].lo[0].lo passedUpPk:sum(packetBytes) 0
scalar AODVNetwork.host[8].lo[0] packetDropInterfaceDown:count 0
scalar AODVNetwork.host[8].lo[0] packetDropInterfaceDown:sum(packetBytes) 0
scalar AODVNetwork.host[8].lo[0] packetDropNoCarrier:count 0
scalar AODVNetwork.host[8].lo[0] packetDropNoCarrier:sum(packetBytes) 0
scalar AODVNetwork.host[8].wlan[0].queue queueLength:last 0
scalar AODVNetwork.host[8].wlan[0].queue queueLength:max 0
scalar AODVNetwork.host[8].wlan[0].queue queueLength:timeavg 0
scalar AODVNetwork.host[8].wlan[0].queue queueBitLength:last 0
scalar AODVNetwork.host[8].wlan[0].queue queueBitLength:max 0
scalar AODVNetwork.host[8].wlan[0].queue queueBitLength:timeavg 0
scalar AODVNetwork.host[8].wlan[0].queue outgoingPackets:count 4
scalar AODVNetwork.host[8].wlan[0].queue outgoingPacketLengths:sum 1664
scalar AODVNetwork.host[8].wlan[0].queue incomingPackets:count 4
scalar AODVNetwork.host[8].wlan[0].queue incomingPacketLengths:sum 1664
scalar AODVNetwork.host[8].wlan[0].queue droppedPacketsQueueOverflow:count 0
scalar AODVNetwork.host[8].wlan[0].queue droppedPacketLengthsQueueOverflow:sum 0
scalar AODVNetwork.host[8].wlan[0].mac rcvdPkFromLl:count 243
scalar AODVNetwork.host[8].wlan[0].mac rcvdPkFromLl:sum(packetBytes) 24197
scalar AODVNetwork.host[8].wlan[0].mac sentDownPk:count 4
scalar AODVNetwork.host[8].wlan[0].mac sentDownPk:sum(packetBytes) 300
scalar AODVNetwork.host[8].wlan[0].mac rcvdPkFromHl:count 4
scalar AODVNetwork.host[8].wlan[0].mac rcvdPkFromHl:sum(packetBytes) 208
scalar AODVNetwork.host[8].wlan[0].mac passedUpPk:count 30
scalar AODVNetwork.host[8].wlan[0].mac passedUpPk:sum(packetBytes) 1420
scalar AODVNetwork.host[8].wlan[0].mac packetDropIncorrectlyReceived:count 0
scalar AODVNetwork.host[8].wlan[0].mac packetDropIncorrectlyReceived:sum(packetBytes) 0
scalar AODVNetwork.host[8].wlan[0].mac packetDropInterfaceDown:count 0
scalar AODVNetwork.host[8].wlan[0].mac packetDropInterfaceDown:sum(packetBytes) 0
scalar AODVNetwork.host[8].wlan[0].mac packetDropNotAddressedToUs:count 213
scalar AODVNetwork.host[8].wlan[0].mac packetDropNotAddressedToUs:sum(packetBytes) 22087
scalar AODVNetwork.host[8].wlan[0].mac linkBroken:count 0
scalar AODVNetwork.host[8].wlan[0].radio radioMode:count 3
scalar AODVNetwork.host[8].wlan[0].radio receptionState:count 494
scalar AODVNetwork.host[8].wlan[0].radio transmissionState:count 9
scalar AODVNetwork.host[8].wlan[0] packetDropInterfaceDown:count 0
scalar AODVNetwork.host[8].wlan[0] packetDropInterfaceDown:sum(packetBytes) 0
scalar AODVNetwork.host[8].wlan[0] packetDropNoCarrier:count 0
scalar AODVNetwork.host[8].wlan[0] packetDropNoCarrier:sum(packetBytes) 0
scalar AODVNetwork.host[8].ipv4.ip packetDropAddressResolutionFailed:count 0
scalar AODVNetwork.host[8].ipv4.ip packetDropAddressResolutionFailed:sum(packetBytes) 0
scalar AODVNetwork.host[8].ipv4.ip packetDropHopLimitReached:count 0
scalar AODVNetwork.host[8].ipv4.ip packetDropHopLimitReached:sum(packetBytes) 0
scalar AODVNetwork.host[8].ipv4.ip packetDropForwardingDisabled:count 0
scalar AODVNetwork.host[8].ipv4.ip packetDropForwardingDisabled:sum(packetBytes) 0
scalar AODVNetwork.host[8].ipv4.ip packetDropLifetimeExpired:count 0
scalar AODVNetwork.host[8].ipv4.ip packetDropLifetimeExpired:sum(packetBytes) 0
scalar AODVNetwork.host[8].ipv4.ip packetDropNoInterfaceFound:count 0
scalar AODVNetwork.host[8].ipv4.ip packetDropNoInterfaceFound:sum(packetBytes) 0
scalar AODVNetwork.host[8].ipv4.ip packetDropNoRouteFound:count 0
scalar AODVNetwork.host[8].ipv4.ip packetDropNoRouteFound:sum(packetBytes) 0
scalar AODVNetwork.host[8].ipv4.ip packetDropUndefined:count 0
scalar AODVNetwork.host[8].ipv4.ip packetDropUndefined:sum(packetBytes) 0
scalar AODVNetwork.host[8].ipv4.arp arpResolutionFailed:count 0
scalar AODVNetwork.host[8].ipv4.arp arpResolutionCompleted:count 0
scalar AODVNetwork.host[8].ipv4.arp arpResolutionInitiated:count 0
scalar AODVNetwork.host[8].ipv4.arp arpReplySent:count 0
scalar AODVNetwork.host[8].ipv4.arp arpReplySent:sum(packetBytes) 0
scalar AODVNetwork.host[8].ipv4.arp arpRequestSent:count 0
scalar AODVNetwork.host[8].ipv4.arp arpRequestSent:sum(packetBytes) 0
scalar AODVNetwork.host[8].udp packetReceived:count 24
scalar AODVNetwork.host[8].udp packetReceived:sum(packetBytes) 772
scalar AODVNetwork.host[8].udp packetSent:count 4
scalar AODVNetwork.host[8].udp packetSent:sum(packetBytes) 128
scalar AODVNetwork.host[8].udp passedUpPk:count 24
scalar AODVNetwork.host[8].udp droppedPkWrongPort:count 0
scalar AODVNetwork.host[8].udp droppedPkBadChecksum:count 0
scalar AODVNetwork.host[9].lo[0].lo rcvdPkFromHl:count 0
scalar AODVNetwork.host[9].lo[0].lo rcvdPkFromHl:sum(packetBytes) 0
scalar AODVNetwork.host[9].lo[0].lo passedUpPk:count 0
scalar AODVNetwork.host[9].lo[0].lo passedUpPk:sum(packetBytes) 0
scalar AODVNetwork.host[9].lo[0] packetDropInterfaceDown:count 0
scalar AODVNetwork.host[9].lo[0] packetDropInterfaceDown:sum(packetBytes) 0
scalar AODVNetwork.host[9].lo[0] packetDropNoCarrier:count 0
scalar AODVNetwork.host[9].lo[0] packetDropNoCarrier:sum(packetBytes) 0
scalar AODVNetwork.host[9].wlan[0].queue queueLength:last 0
scalar AODVNetwork.host[9].wlan[0].queue queueLength:max 0
scalar AODVNetwork.host[9].wlan[0].queue queueLength:timeavg 0
scalar AODVNetwork.host[9].wlan[0].queue queueBitLength:last 0
scalar AODVNetwork.host[9].wlan[0].queue queueBitLength:max 0
scalar AODVNetwork.host[9].wlan[0].queue queueBitLength:timeavg 0
scalar AODVNetwork.host[9].wlan[0].queue outgoingPackets:count 2
scalar AODVNetwork.host[9].wlan[0].queue outgoingPacketLengths:sum 832
scalar AODVNetwork.host[9].wlan[0].queue incomingPackets:count 2
scalar AODVNetwork.host[9].wlan[0].queue incomingPacketLengths:sum 832
scalar AODVNetwork.host[9].wlan[0].queue droppedPacketsQueueOverflow:count 0
scalar AODVNetwork.host[9].wlan[0].queue droppedPacketLengthsQueueOverflow:sum 0
scalar AODVNetwork.host[9].wlan[0].mac rcvdPkFromLl:count 55
scalar AODVNetwork.host[9].wlan[0].mac rcvdPkFromLl:sum(packetBytes) 5081
scalar AODVNetwork.host[9].wlan[0].mac sentDownPk:count 2
scalar AODVNetwork.host[9].wlan[0].mac sentDownPk:sum(packetBytes) 150
scalar AODVNetwork.host[9].wlan[0].mac rcvdPkFromHl:count 2
scalar AODVNetwork.host[9].wlan[0].mac rcvdPkFromHl:sum(packetBytes) 104
scalar AODVNetwork.host[9].wlan[0].mac passedUpPk:count 19
scalar AODVNetwork.host[9].wlan[0].mac passedUpPk:sum(packetBytes) 940
scalar AODVNetwork.host[9].wlan[0].mac packetDropIncorrectlyReceived:count 0
scalar AODVNetwork.host[9].wlan[0].mac packetDropIncorrectlyReceived:sum(packetBytes) 0
scalar AODVNetwork.host[9].wlan[0].mac packetDropInterfaceDown:count 0
scalar AODVNetwork.host[9].wlan[0].mac packetDropInterfaceDown:sum(packetBytes) 0
scalar AODVNetwork.host[9].wlan[0].mac packetDropNotAddressedToUs:count 36
scalar AODVNetwork.host[9].wlan[0].mac packetDropNotAddressedToUs:sum(packetBytes) 3704
scalar AODVNetwork.host[9].wlan[0].mac linkBroken:count 0
scalar AODVNetwork.host[9].wlan[0].radio radioMode:count 3
scalar AODVNetwork.host[9].wlan[0].radio receptionState:count 114
scalar AODVNetwork.host[9].wlan[0].radio transmissionState:count 5
scalar AODVNetwork.host[9].wlan[0] packetDropInterfaceDown:count 0
scalar AODVNetwork.host[9].wlan[0] packetDropInterfaceDown:sum(packetBytes) 0
scalar AODVNetwork.host[9].wlan[0] packetDropNoCarrier:count 0
scalar AODVNetwork.host[9].wlan[0] packetDropNoCarrier:sum(packetBytes) 0
scalar AODVNetwork.host[9].ipv4.ip packetDropAddressResolutionFailed:count 0
scalar AODVNetwork.host[9].ipv4.ip packetDropAddressResolutionFailed:sum(packetBytes) 0
scalar AODVNetwork.host[9].ipv4.ip packetDropHopLimitReached:count 0
scalar AODVNetwork.host[9].ipv4.ip packetDropHopLimitReached:sum(packetBytes) 0
scalar AODVNetwork.host[9].ipv4.ip packetDropForwardingDisabled:count 0
scalar AODVNetwork.host[9].ipv4.ip packetDropForwardingDisabled:sum(packetBytes) 0
scalar AODVNetwork.host[9].ipv4.ip packetDropLifetimeExpired:count 0
scalar AODVNetwork.host[9].ipv4.ip packetDropLifetimeExpired:sum(packetBytes) 0
scalar AODVNetwork.host[9].ipv4.ip packetDropNoInterfaceFound:count 0
scalar AODVNetwork.host[9].ipv4.ip packetDropNoInterfaceFound:sum(packetBytes) 0
scalar AODVNetwork.host[9].ipv4.ip packetDropNoRouteFound:count 0
scalar AODVNetwork.host[9].ipv4.ip packetDropNoRouteFound:sum(packetBytes) 0
scalar AODVNetwork.host[9].ipv4.ip packetDropUndefined:count 0
scalar AODVNetwork.host[9].ipv4.ip packetDropUndefined:sum(packetBytes) 0
scalar AODVNetwork.host[9].ipv4.arp arpResolutionFailed:count 0
scalar AODVNetwork.host[9].ipv4.arp arpResolutionCompleted:count 0
scalar AODVNetwork.host[9].ipv4.arp arpResolutionInitiated:count 0
scalar AODVNetwork.host[9].ipv4.arp arpReplySent:count 0
scalar AODVNetwork.host[9].ipv4.arp arpReplySent:sum(packetBytes) 0
scalar AODVNetwork.host[9].ipv4.arp arpRequestSent:count 0
scalar AODVNetwork.host[9].ipv4.arp arpRequestSent:sum(packetBytes) 0
scalar AODVNetwork.host[9].udp packetReceived:count 17
scalar AODVNetwork.host[9].udp packetReceived:sum(packetBytes) 544
scalar AODVNetwork.host[9].udp packetSent:count 2
scalar AODVNetwork.host[9].udp packetSent:sum(packetBytes) 64
scalar AODVNetwork.host[9].udp passedUpPk:count 17
scalar AODVNetwork.host[9].udp droppedPkWrongPort:count 0
scalar AODVNetwork.host[9].udp droppedPkBadChecksum:count 0
scalar AODVNetwork.host[10].lo[0].lo rcvdPkFromHl:count 0
scalar AODVNetwork.host[10].lo[0].lo rcvdPkFromHl:sum(packetBytes) 0
scalar AODVNetwork.host[10].lo[0].lo passedUpPk:count 0
scalar AODVNetwork.host[10].lo[0].lo passedUpPk:sum(packetBytes) 0
scalar AODVNetwork.host[10].lo[0] packetDropInterfaceDown:count 0
scalar AODVNetwork.host[10].lo[0] packetDropInterfaceDown:sum(packetBytes) 0
scalar AODVNetwork.host[10].lo[0] packetDropNoCarrier:count 0
scalar AODVNetwork.host[10].lo[0] packetDropNoCarrier:sum(packetBytes) 0
scalar AODVNetwork.host[10].wlan[0].queue queueLength:last 0
scalar AODVNetwork.host[10].wlan[0].queue queueLength:max 1
scalar AODVNetwork.host[10].wlan[0].queue queueLength:timeavg 4.0106611833333e-06
scalar AODVNetwork.host[10].wlan[0].queue queueBitLength:last 0
scalar AODVNetwork.host[10].wlan[0].queue queueBitLength:max 384
scalar AODVNetwork.host[10].wlan[0].queue queueBitLength:timeavg 0.0015400938944
scalar AODVNetwork.host[10].wlan[0].queue outgoingPackets:count 42
scalar AODVNetwork.host[10].wlan[0].queue outgoingPacketLengths:sum 25280
scalar AODVNetwork.host[10].wlan[0].queue incomingPackets:count 42
scalar AODVNetwork.host[10].wlan[0].queue incomingPacketLengths:sum 25280
scalar AODVNetwork.host[10].wlan[0].queue droppedPacketsQueueOverflow:count 0
scalar AODVNetwork.host[10].wlan[0].queue droppedPacketLengthsQueueOverflow:sum 0
scalar AODVNetwork.host[10].wlan[0].mac rcvdPkFromLl:count 244
scalar AODVNetwork.host[10].wlan[0].mac rcvdPkFromLl:sum(packetBytes) 24412
scalar AODVNetwork.host[10].wlan[0].mac sentDownPk:count 42
scalar AODVNetwork.host[10].wlan[0].mac sentDownPk:sum(packetBytes) 4126
scalar AODVNetwork.host[10].wlan[0].mac rcvdPkFromHl:count 42
scalar AODVNetwork.host[10].wlan[0].mac rcvdPkFromHl:sum(packetBytes) 3160
scalar AODVNetwork.host[10].wlan[0].mac passedUpPk:count 65
scalar AODVNetwork.host[10].wlan[0].mac passedUpPk:sum(packetBytes) 4264
scalar AODVNetwork.host[10].wlan[0].mac packetDropIncorrectlyReceived:count 0
scalar AODVNetwork.host[10].wlan[0].mac packetDropIncorrectlyReceived:sum(packetBytes) 0
scalar AODVNetwork.host[10].wlan[0].mac packetDropInterfaceDown:count 0
scalar AODVNetwork.host[10].wlan[0].mac packetDropInterfaceDown:sum(packetBytes) 0
scalar AODVNetwork.host[10].wlan[0].mac packetDropNotAddressedToUs:count 179
scalar AODVNetwork.host[10].wlan[0].mac packetDropNotAddressedToUs:sum(packetBytes) 18653
scalar AODVNetwork.host[10].wlan[0].mac linkBroken:count 1
scalar AODVNetwork.host[10].wlan[0].radio radioMode:count 3
scalar AODVNetwork.host[10].wlan[0].radio receptionState:count 497
scalar AODVNetwork.host[10].wlan[0].radio transmissionState:count 85
scalar AODVNetwork.host[10].wlan[0] packetDropInterfaceDown:count 0
scalar AODVNetwork.host[10].wlan[0] packetDropInterfaceDown:sum(packetBytes) 0
scalar AODVNetwork.host[10].wlan[0] packetDropNoCarrier:count 0
scalar AODVNetwork.host[10].wlan[0] packetDropNoCarrier:sum(packetBytes) 0
scalar AODVNetwork.host[10].ipv4.ip packetDropAddressResolutionFailed:count 0
scalar AODVNetwork.host[10].ipv4.ip packetDropAddressResolutionFailed:sum(packetBytes) 0
scalar AODVNetwork.host[10].ipv4.ip packetDropHopLimitReached:count 0
scalar AODVNetwork.host[10].ipv4.ip packetDropHopLimitReached:sum(packetBytes) 0
scalar AODVNetwork.host[10].ipv4.ip packetDropForwardingDisabled:count 0
scalar AODVNetwork.host[10].ipv4.ip packetDropForwardingDisabled:sum(packetBytes) 0
scalar AODVNetwork.host[10].ipv4.ip packetDropLifetimeExpired:count 0
scalar AODVNetwork.host[10].ipv4.ip packetDropLifetimeExpired:sum(packetBytes) 0
scalar AODVNetwork.host[10].ipv4.ip packetDropNoInterfaceFound:count 0
scalar AODVNetwork.host[10].ipv4.ip packetDropNoInterfaceFound:sum(packetBytes) 0
scalar AODVNetwork.host[10].ipv4.ip packetDropNoRouteFound:count 0
scalar AODVNetwork.host[10].ipv4.ip packetDropNoRouteFound:sum(packetBytes) 0
scalar AODVNetwork.host[10].ipv4.ip packetDropUndefined:count 0
scalar AODVNetwork.host[10].ipv4.ip packetDropUndefined:sum(packetBytes) 0
scalar AODVNetwork.host[10].ipv4.arp arpResolutionFailed:count 0
scalar AODVNetwork.host[10].ipv4.arp arpResolutionCompleted:count 3
scalar AODVNetwork.host[10].ipv4.arp arpResolutionInitiated:count 1
scalar AODVNetwork.host[10].ipv4.arp arpReplySent:count 2
scalar AODVNetwork.host[10].ipv4.arp arpReplySent:sum(packetBytes) 56
scalar AODVNetwork.host[10].ipv4.arp arpRequestSent:count 1
scalar AODVNetwork.host[10].ipv4.arp arpRequestSent:sum(packetBytes) 28
scalar AODVNetwork.host[10].udp packetReceived:count 25
scalar AODVNetwork.host[10].udp packetReceived:sum(packetBytes) 796
scalar AODVNetwork.host[10].udp packetSent:count 6
scalar AODVNetwork.host[10].udp packetSent:sum(packetBytes) 184
scalar AODVNetwork.host[10].udp passedUpPk:count 25
scalar AODVNetwork.host[10].udp droppedPkWrongPort:count 0
scalar AODVNetwork.host[10].udp droppedPkBadChecksum:count 0
scalar AODVNetwork.host[11].lo[0].lo rcvdPkFromHl:count 0
scalar AODVNetwork.host[11].lo[0].lo rcvdPkFromHl:sum(packetBytes) 0
scalar AODVNetwork.host[11].lo[0].lo passedUpPk:count 0
scalar AODVNetwork.host[11].lo[0].lo passedUpPk:sum(packetBytes) 0
scalar AODVNetwork.host[11].lo[0] packetDropInterfaceDown:count 0
scalar AODVNetwork.host[11].lo[0] packetDropInterfaceDown:sum(packetBytes) 0
scalar AODVNetwork.host[11].lo[0] packetDropNoCarrier:count 0
scalar AODVNetwork.host[11].lo[0] packetDropNoCarrier:sum(packetBytes) 0
scalar AODVNetwork.host[11].wlan[0].queue queueLength:last 0
scalar AODVNetwork.host[11].wlan[0].queue queueLength:max 0
scalar AODVNetwork.host[11].wlan[0].queue queueLength:timeavg 0
scalar AODVNetwork.host[11].wlan[0].queue queueBitLength:last 0
scalar AODVNetwork.host[11].wlan[0].queue queueBitLength:max 0
scalar AODVNetwork.host[11].wlan[0].queue queueBitLength:timeavg 0
scalar AODVNetwork.host[11].wlan[0].queue outgoingPackets:count 4
scalar AODVNetwork.host[11].wlan[0].queue outgoingPacketLengths:sum 1664
scalar AODVNetwork.host[11].wlan[0].queue incomingPackets:count 4
scalar AODVNetwork.host[11].wlan[0].queue incomingPacketLengths:sum 1664
scalar AODVNetwork.host[11].wlan[0].queue droppedPacketsQueueOverflow:count 0
scalar AODVNetwork.host[11].wlan[0].queue droppedPacketLengthsQueueOverflow:sum 0
scalar AODVNetwork.host[11].wlan[0].mac rcvdPkFromLl:count 150
scalar AODVNetwork.host[11].wlan[0].mac rcvdPkFromLl:sum(packetBytes) 14886
scalar AODVNetwork.host[11].wlan[0].mac sentDownPk:count 4
scalar AODVNetwork.host[11].wlan[0].mac sentDownPk:sum(packetBytes) 300
scalar AODVNetwork.host[11].wlan[0].mac rcvdPkFromHl:count 4
scalar AODVNetwork.host[11].wlan[0].mac rcvdPkFromHl:sum(packetBytes) 208
scalar AODVNetwork.host[11].wlan[0].mac passedUpPk:count 18
scalar AODVNetwork.host[11].wlan[0].mac passedUpPk:sum(packetBytes) 868
scalar AODVNetwork.host[11].wlan[0].mac packetDropIncorrectlyReceived:count 0
scalar AODVNetwork.host[11].wlan[0].mac packetDropIncorrectlyReceived:sum(packetBytes) 0
scalar AODVNetwork.host[11].wlan[0].mac packetDropInterfaceDown:count 0
scalar AODVNetwork.host[11].wlan[0].mac packetDropInterfaceDown:sum(packetBytes) 0
scalar AODVNetwork.host[11].wlan[0].mac packetDropNotAddressedToUs:count 132
scalar AODVNetwork.host[11].wlan[0].mac packetDropNotAddressedToUs:sum(packetBytes) 13604
scalar AODVNetwork.host[11].wlan[0].mac linkBroken:count 0
scalar AODVNetwork.host[11].wlan[0].radio radioMode:count 3
scalar AODVNetwork.host[11].wlan[0].radio receptionState:count 307
scalar AODVNetwork.host[11].wlan[0].radio transmissionState:count 9
scalar AODVNetwork.host[11].wlan[0] packetDropInterfaceDown:count 0
scalar AODVNetwork.host[11].wlan[0] packetDropInterfaceDown:sum(packetBytes) 0
scalar AODVNetwork.host[11].wlan[0] packetDropNoCarrier:count 0
scalar AODVNetwork.host[11].wlan[0] packetDropNoCarrier:sum(packetBytes) 0
scalar AODVNetwork.host[11].ipv4.ip packetDropAddressResolutionFailed:count 0
scalar AODVNetwork.host[11].ipv4.ip packetDropAddressResolutionFailed:sum(packetBytes) 0
scalar AODVNetwork.host[11].ipv4.ip packetDropHopLimitReached:count 0
scalar AODVNetwork.host[11].ipv4.ip packetDropHopLimitReached:sum(packetBytes) 0
scalar AODVNetwork.host[11].ipv4.ip packetDropForwardingDisabled:count 0
scalar AODVNetwork.host[11].ipv4.ip packetDropForwardingDisabled:sum(packetBytes) 0
scalar AODVNetwork.host[11].ipv4.ip packetDropLifetimeExpired:count 0
scalar AODVNetwork.host[11].ipv4.ip packetDropLifetimeExpired:sum(packetBytes) 0
scalar AODVNetwork.host[11].ipv4.ip packetDropNoInterfaceFound:count 0
scalar AODVNetwork.host[11].ipv4.ip packetDropNoInterfaceFound:sum(packetBytes) 0
scalar AODVNetwork.host[11].ipv4.ip packetDropNoRouteFound:count 0
scalar AODVNetwork.host[11].ipv4.ip packetDropNoRouteFound:sum(packetBytes) 0
scalar AODVNetwork.host[11].ipv4.ip packetDropUndefined:count 0
scalar AODVNetwork.host[11].ipv4.ip packetDropUndefined:sum(packetBytes) 0
scalar AODVNetwork.host[11].ipv4.arp arpResolutionFailed:count 0
scalar AODVNetwork.host[11].ipv4.arp arpResolutionCompleted:count 0
scalar AODVNetwork.host[11].ipv4.arp arpResolutionInitiated:count 0
scalar AODVNetwork.host[11].ipv4.arp arpReplySent:count 0
scalar AODVNetwork.host[11].ipv4.arp arpReplySent:sum(packetBytes) 0
scalar AODVNetwork.host[11].ipv4.arp arpRequestSent:count 0
scalar AODVNetwork.host[11].ipv4.arp arpRequestSent:sum(packetBytes) 0
scalar AODVNetwork.host[11].udp packetReceived:count 15
scalar AODVNetwork.host[11].udp packetReceived:sum(packetBytes) 484
scalar AODVNetwork.host[11].udp packetSent:count 4
scalar AODVNetwork.host[11].udp packetSent:sum(packetBytes) 128
scalar AODVNetwork.host[11].udp passedUpPk:count 15
scalar AODVNetwork.host[11].udp droppedPkWrongPort:count 0
scalar AODVNetwork.host[11].udp droppedPkBadChecksum:count 0
scalar AODVNetwork.host[12].lo[0].lo rcvdPkFromHl:count 0
scalar AODVNetwork.host[12].lo[0].lo rcvdPkFromHl:sum(packetBytes) 0
scalar AODVNetwork.host[12].lo[0].lo passedUpPk:count 0
scalar AODVNetwork.host[12].lo[0].lo passedUpPk:sum(packetBytes) 0
scalar AODVNetwork.host[12].lo[0] packetDropInterfaceDown:count 0
scalar AODVNetwork.host[12].lo[0] packetDropInterfaceDown:sum(packetBytes) 0
scalar AODVNetwork.host[12].lo[0] packetDropNoCarrier:count 0
scalar AODVNetwork.host[12].lo[0] packetDropNoCarrier:sum(packetBytes) 0
scalar AODVNetwork.host[12].wlan[0].queue queueLength:last 0
scalar AODVNetwork.host[12].wlan[0].queue queueLength:max 0
scalar AODVNetwork.host[12].wlan[0].queue queueLength:timeavg 0
scalar AODVNetwork.host[12].wlan[0].queue queueBitLength:last 0
scalar AODVNetwork.host[12].wlan[0].queue queueBitLength:max 0
scalar AODVNetwork.host[12].wlan[0].queue queueBitLength:timeavg 0
scalar AODVNetwork.host[12].wlan[0].queue outgoingPackets:count 2
scalar AODVNetwork.host[12].wlan[0].queue outgoingPacketLengths:sum 832
scalar AODVNetwork.host[12].wlan[0].queue incomingPackets:count 2
scalar AODVNetwork.host[12].wlan[0].queue incomingPacketLengths:sum 832
scalar AODVNetwork.host[12].wlan[0].queue droppedPacketsQueueOverflow:count 0
scalar AODVNetwork.host[12].wlan[0].queue droppedPacketLengthsQueueOverflow:sum 0
scalar AODVNetwork.host[12].wlan[0].mac rcvdPkFromLl:count 93
scalar AODVNetwork.host[12].wlan[0].mac rcvdPkFromLl:sum(packetBytes) 8907
scalar AODVNetwork.host[12].wlan[0].mac sentDownPk:count 2
scalar AODVNetwork.host[12].wlan[0].mac sentDownPk:sum(packetBytes) 150
scalar AODVNetwork.host[12].wlan[0].mac rcvdPkFromHl:count 2
scalar AODVNetwork.host[12].wlan[0].mac rcvdPkFromHl:sum(packetBytes) 104
scalar AODVNetwork.host[12].wlan[0].mac passedUpPk:count 20
scalar AODVNetwork.host[12].wlan[0].mac passedUpPk:sum(packetBytes) 968
scalar AODVNetwork.host[12].wlan[0].mac packetDropIncorrectlyReceived:count 0
scalar AODVNetwork.host[12].wlan[0].mac packetDropIncorrectlyReceived:sum(packetBytes) 0
scalar AODVNetwork.host[12].wlan[0].mac packetDropInterfaceDown:count 0
scalar AODVNetwork.host[12].wlan[0].mac packetDropInterfaceDown:sum(packetBytes) 0
scalar AODVNetwork.host[12].wlan[0].mac packetDropNotAddressedToUs:count 73
scalar AODVNetwork.host[12].wlan[0].mac packetDropNotAddressedToUs:sum(packetBytes) 7479
scalar AODVNetwork.host[12].wlan[0].mac linkBroken:count 0
scalar AODVNetwork.host[12].wlan[0].radio radioMode:count 3
scalar AODVNetwork.host[12].wlan[0].radio receptionState:count 193
scalar AODVNetwork.host[12].wlan[0].radio transmissionState:count 5
scalar AODVNetwork.host[12].wlan[0] packetDropInterfaceDown:count 0
scalar AODVNetwork.host[12].wlan[0] packetDropInterfaceDown:sum(packetBytes) 0
scalar AODVNetwork.host[12].wlan[0] packetDropNoCarrier:count 0
scalar AODVNetwork.host[12].wlan[0] packetDropNoCarrier:sum(packetBytes) 0
scalar AODVNetwork.host[12].ipv4.ip packetDropAddressResolutionFailed:count 0
scalar AODVNetwork.host[12].ipv4.ip packetDropAddressResolutionFailed:sum(packetBytes) 0
scalar AODVNetwork.host[12].ipv4.ip packetDropHopLimitReached:count 0
scalar AODVNetwork.host[12].ipv4.ip packetDropHopLimitReached:sum(packetBytes) 0
scalar AODVNetwork.host[12].ipv4.ip packetDropForwardingDisabled:count 0
scalar AODVNetwork.host[12].ipv4.ip packetDropForwardingDisabled:sum(packetBytes) 0
scalar AODVNetwork.host[12].ipv4.ip packetDropLifetimeExpired:count 0
scalar AODVNetwork.host[12].ipv4.ip packetDropLifetimeExpired:sum(packetBytes) 0
scalar AODVNetwork.host[12].ipv4.ip packetDropNoInterfaceFound:count 0
scalar AODVNetwork.host[12].ipv4.ip packetDropNoInterfaceFound:sum(packetBytes) 0
scalar AODVNetwork.host[12].ipv4.ip packetDropNoRouteFound:count 0
scalar AODVNetwork.host[12].ipv4.ip packetDropNoRouteFound:sum(packetBytes) 0
scalar AODVNetwork.host[12].ipv4.ip packetDropUndefined:count 0
scalar AODVNetwork.host[12].ipv4.ip packetDropUndefined:sum(packetBytes) 0
scalar AODVNetwork.host[12].ipv4.arp arpResolutionFailed:count 0
scalar AODVNetwork.host[12].ipv4.arp arpResolutionCompleted:count 0
scalar AODVNetwork.host[12].ipv4.arp arpResolutionInitiated:count 0
scalar AODVNetwork.host[12].ipv4.arp arpReplySent:count 0
scalar AODVNetwork.host[12].ipv4.arp arpReplySent:sum(packetBytes) 0
scalar AODVNetwork.host[12].ipv4.arp arpRequestSent:count 0
scalar AODVNetwork.host[12].ipv4.arp arpRequestSent:sum(packetBytes) 0
scalar AODVNetwork.host[12].udp packetReceived:count 17
scalar AODVNetwork.host[12].udp packetReceived:sum(packetBytes) 544
scalar AODVNetwork.host[12].udp packetSent:count 2
scalar AODVNetwork.host[12].udp packetSent:sum(packetBytes) 64
scalar AODVNetwork.host[12].udp passedUpPk:count 17
scalar AODVNetwork.host[12].udp droppedPkWrongPort:count 0
scalar AODVNetwork.host[12].udp droppedPkBadChecksum:count 0
scalar AODVNetwork.host[13].lo[0].lo rcvdPkFromHl:count 0
scalar AODVNetwork.host[13].lo[0].lo rcvdPkFromHl:sum(packetBytes) 0
scalar AODVNetwork.host[13].lo[0].lo passedUpPk:count 0
scalar AODVNetwork.host[13].lo[0].lo passedUpPk:sum(packetBytes) 0
scalar AODVNetwork.host[13].lo[0] packetDropInterfaceDown:count 0
scalar AODVNetwork.host[13].lo[0] packetDropInterfaceDown:sum(packetBytes) 0
scalar AODVNetwork.host[13].lo[0] packetDropNoCarrier:count 0
scalar AODVNetwork.host[13].lo[0] packetDropNoCarrier:sum(packetBytes) 0
scalar AODVNetwork.host[13].wlan[0].queue queueLength:last 0
scalar AODVNetwork.host[13].wlan[0].queue queueLength:max 0
scalar AODVNetwork.host[13].wlan[0].queue queueLength:timeavg 0
scalar AODVNetwork.host[13].wlan[0].queue queueBitLength:last 0
scalar AODVNetwork.host[13].wlan[0].queue queueBitLength:max 0
scalar AODVNetwork.host[13].wlan[0].queue queueBitLength:timeavg 0
scalar AODVNetwork.host[13].wlan[0].queue outgoingPackets:count 2
scalar AODVNetwork.host[13].wlan[0].queue outgoingPacketLengths:sum 832
scalar AODVNetwork.host[13].wlan[0].queue incomingPackets:count 2
scalar AODVNetwork.host[13].wlan[0].queue incomingPacketLengths:sum 832
scalar AODVNetwork.host[13].wlan[0].queue droppedPacketsQueueOverflow:count 0
scalar AODVNetwork.host[13].wlan[0].queue droppedPacketLengthsQueueOverflow:sum 0
scalar AODVNetwork.host[13].wlan[0].mac rcvdPkFromLl:count 48
scalar AODVNetwork.host[13].wlan[0].mac rcvdPkFromLl:sum(packetBytes) 4556
scalar AODVNetwork.host[13].wlan[0].mac sentDownPk:count 2
scalar AODVNetwork.host[13].wlan[0].mac sentDownPk:sum(packetBytes) 150
scalar AODVNetwork.host[13].wlan[0].mac rcvdPkFromHl:count 2
scalar AODVNetwork.host[13].wlan[0].mac rcvdPkFromHl:sum(packetBytes) 104
scalar AODVNetwork.host[13].wlan[0].mac passedUpPk:count 12
scalar AODVNetwork.host[13].wlan[0].mac passedUpPk:sum(packetBytes) 576
scalar AODVNetwork.host[13].wlan[0].mac packetDropIncorrectlyReceived:count 0
scalar AODVNetwork.host[13].wlan[0].mac packetDropIncorrectlyReceived:sum(packetBytes) 0
scalar AODVNetwork.host[13].wlan[0].mac packetDropInterfaceDown:count 0
scalar AODVNetwork.host[13].wlan[0].mac packetDropInterfaceDown:sum(packetBytes) 0
scalar AODVNetwork.host[13].wlan[0].mac packetDropNotAddressedToUs:count 36
scalar AODVNetwork.host[13].wlan[0].mac packetDropNotAddressedToUs:sum(packetBytes) 3704
scalar AODVNetwork.host[13].wlan[0].mac linkBroken:count 0
scalar AODVNetwork.host[13].wlan[0].radio radioMode:count 3
scalar AODVNetwork.host[13].wlan[0].radio receptionState:count 99
scalar AODVNetwork.host[13].wlan[0].radio transmissionState:count 5
scalar AODVNetwork.host[13].wlan[0] packetDropInterfaceDown:count 0
scalar AODVNetwork.host[13].wlan[0] packetDropInterfaceDown:sum(packetBytes) 0
scalar AODVNetwork.host[13].wlan[0] packetDropNoCarrier:count 0
scalar AODVNetwork.host[13].wlan[0] packetDropNoCarrier:sum(packetBytes) 0
scalar AODVNetwork.host[13].ipv4.ip packetDropAddressResolutionFailed:count 0
scalar AODVNetwork.host[13].ipv4.ip packetDropAddressResolutionFailed:sum(packetBytes) 0
scalar AODVNetwork.host[13].ipv4.ip packetDropHopLimitReached:count 0
scalar AODVNetwork.host[13].ipv4.ip packetDropHopLimitReached:sum(packetBytes) 0
scalar AODVNetwork.host[13].ipv4.ip packetDropForwardingDisabled:count 0
scalar AODVNetwork.host[13].ipv4.ip packetDropForwardingDisabled:sum(packetBytes) 0
scalar AODVNetwork.host[13].ipv4.ip packetDropLifetimeExpired:count 0
scalar AODVNetwork.host[13].ipv4.ip packetDropLifetimeExpired:sum(packetBytes) 0
scalar AODVNetwork.host[13].ipv4.ip packetDropNoInterfaceFound:count 0
scalar AODVNetwork.host[13].ipv4.ip packetDropNoInterfaceFound:sum(packetBytes) 0
scalar AODVNetwork.host[13].ipv4.ip packetDropNoRouteFound:count 0
scalar AODVNetwork.host[13].ipv4.ip packetDropNoRouteFound:sum(packetBytes) 0
scalar AODVNetwork.host[13].ipv4.ip packetDropUndefined:count 0
scalar AODVNetwork.host[13].ipv4.ip packetDropUndefined:sum(packetBytes) 0
scalar AODVNetwork.host[13].ipv4.arp arpResolutionFailed:count 0
scalar AODVNetwork.host[13].ipv4.arp arpResolutionCompleted:count 0
scalar AODVNetwork.host[13].ipv4.arp arpResolutionInitiated:count 0
scalar AODVNetwork.host[13].ipv4.arp arpReplySent:count 0
scalar AODVNetwork.host[13].ipv4.arp arpReplySent:sum(packetBytes) 0
scalar AODVNetwork.host[13].ipv4.arp arpRequestSent:count 0
scalar AODVNetwork.host[13].ipv4.arp arpRequestSent:sum(packetBytes) 0
scalar AODVNetwork.host[13].udp packetReceived:count 10
scalar AODVNetwork.host[13].udp packetReceived:sum(packetBytes) 320
scalar AODVNetwork.host[13].udp packetSent:count 2
scalar AODVNetwork.host[13].udp packetSent:sum(packetBytes) 64
scalar AODVNetwork.host[13].udp passedUpPk:count 10
scalar AODVNetwork.host[13].udp droppedPkWrongPort:count 0
scalar AODVNetwork.host[13].udp droppedPkBadChecksum:count 0
scalar AODVNetwork.host[14].lo[0].lo rcvdPkFromHl:count 0
scalar AODVNetwork.host[14].lo[0].lo rcvdPkFromHl:sum(packetBytes) 0
scalar AODVNetwork.host[14].lo[0].lo passedUpPk:count 0
scalar AODVNetwork.host[14].lo[0].lo passedUpPk:sum(packetBytes) 0
scalar AODVNetwork.host[14].lo[0] packetDropInterfaceDown:count 0
scalar AODVNetwork.host[14].lo[0] packetDropInterfaceDown:sum(packetBytes) 0
scalar AODVNetwork.host[14].lo[0] packetDropNoCarrier:count 0
scalar AODVNetwork.host[14].lo[0] packetDropNoCarrier:sum(packetBytes) 0
scalar AODVNetwork.host[14].wlan[0].queue queueLength:last 0
scalar AODVNetwork.host[14].wlan[0].queue queueLength:max 0
scalar AODVNetwork.host[14].wlan[0].queue queueLength:timeavg 0
scalar AODVNetwork.host[14].wlan[0].queue queueBitLength:last 0
scalar AODVNetwork.host[14].wlan[0].queue queueBitLength:max 0
scalar AODVNetwork.host[14].wlan[0].queue queueBitLength:timeavg 0
scalar AODVNetwork.host[14].wlan[0].queue outgoingPackets:count 2
scalar AODVNetwork.host[14].wlan[0].queue outgoingPacketLengths:sum 832
scalar AODVNetwork.host[14].wlan[0].queue incomingPackets:count 2
scalar AODVNetwork.host[14].wlan[0].queue incomingPacketLengths:sum 832
scalar AODVNetwork.host[14].wlan[0].queue droppedPacketsQueueOverflow:count 0
scalar AODVNetwork.host[14].wlan[0].queue droppedPacketLengthsQueueOverflow:sum 0
scalar AODVNetwork.host[14].wlan[0].mac rcvdPkFromLl:count 192
scalar AODVNetwork.host[14].wlan[0].mac rcvdPkFromLl:sum(packetBytes) 19484
scalar AODVNetwork.host[14].wlan[0].mac sentDownPk:count 2
scalar AODVNetwork.host[14].wlan[0].mac sentDownPk:sum(packetBytes) 150
scalar AODVNetwork.host[14].wlan[0].mac rcvdPkFromHl:count 2
scalar AODVNetwork.host[14].wlan[0].mac rcvdPkFromHl:sum(packetBytes) 104
scalar AODVNetwork.host[14].wlan[0].mac passedUpPk:count 14
scalar AODVNetwork.host[14].wlan[0].mac passedUpPk:sum(packetBytes) 536
scalar AODVNetwork.host[14].wlan[0].mac packetDropIncorrectlyReceived:count 0
scalar AODVNetwork.host[14].wlan[0].mac packetDropIncorrectlyReceived:sum(packetBytes) 0
scalar AODVNetwork.host[14].wlan[0].mac packetDropInterfaceDown:count 0
scalar AODVNetwork.host[14].wlan[0].mac packetDropInterfaceDown:sum(packetBytes) 0
scalar AODVNetwork.host[14].wlan[0].mac packetDropNotAddressedToUs:count 178
scalar AODVNetwork.host[14].wlan[0].mac packetDropNotAddressedToUs:sum(packetBytes) 18626
scalar AODVNetwork.host[14].wlan[0].mac linkBroken:count 0
scalar AODVNetwork.host[14].wlan[0].radio radioMode:count 3
scalar AODVNetwork.host[14].wlan[0].radio receptionState:count 387
scalar AODVNetwork.host[14].wlan[0].radio transmissionState:count 5
scalar AODVNetwork.host[14].wlan[0] packetDropInterfaceDown:count 0
scalar AODVNetwork.host[14].wlan[0] packetDropInterfaceDown:sum(packetBytes) 0
scalar AODVNetwork.host[14].wlan[0] packetDropNoCarrier:count 0
scalar AODVNetwork.host[14].wlan[0] packetDropNoCarrier:sum(packetBytes) 0
scalar AODVNetwork.host[14].ipv4.ip packetDropAddressResolutionFailed:count 0
scalar AODVNetwork.host[14].ipv4.ip packetDropAddressResolutionFailed:sum(packetBytes) 0
scalar AODVNetwork.host[14].ipv4.ip packetDropHopLimitReached:count 0
scalar AODVNetwork.host[14].ipv4.ip packetDropHopLimitReached:sum(packetBytes) 0
scalar AODVNetwork.host[14].ipv4.ip packetDropForwardingDisabled:count 0
scalar AODVNetwork.host[14].ipv4.ip packetDropForwardingDisabled:sum(packetBytes) 0
scalar AODVNetwork.host[14].ipv4.ip packetDropLifetimeExpired:count 0
scalar AODVNetwork.host[14].ipv4.ip packetDropLifetimeExpired:sum(packetBytes) 0
scalar AODVNetwork.host[14].ipv4.ip packetDropNoInterfaceFound:count 0
scalar AODVNetwork.host[14].ipv4.ip packetDropNoInterfaceFound:sum(packetBytes) 0
scalar AODVNetwork.host[14].ipv4.ip packetDropNoRouteFound:count 0
scalar AODVNetwork.host[14].ipv4.ip packetDropNoRouteFound:sum(packetBytes) 0
scalar AODVNetwork.host[14].ipv4.ip packetDropUndefined:count 0
scalar AODVNetwork.host[14].ipv4.ip packetDropUndefined:sum(packetBytes) 0
scalar AODVNetwork.host[14].ipv4.arp arpResolutionFailed:count 0
scalar AODVNetwork.host[14].ipv4.arp arpResolutionCompleted:count 0
scalar AODVNetwork.host[14].ipv4.arp arpResolutionInitiated:count 0
scalar AODVNetwork.host[14].ipv4.arp arpReplySent:count 0
scalar AODVNetwork.host[14].ipv4.arp arpReplySent:sum(packetBytes) 0
scalar AODVNetwork.host[14].ipv4.arp arpRequestSent:count 0
scalar AODVNetwork.host[14].ipv4.arp arpRequestSent:sum(packetBytes) 0
scalar AODVNetwork.host[14].udp packetReceived:count 6
scalar AODVNetwork.host[14].udp packetReceived:sum(packetBytes) 192
scalar AODVNetwork.host[14].udp packetSent:count 2
scalar AODVNetwork.host[14].udp packetSent:sum(packetBytes) 64
scalar AODVNetwork.host[14].udp passedUpPk:count 6
scalar AODVNetwork.host[14].udp droppedPkWrongPort:count 0
scalar AODVNetwork.host[14].udp droppedPkBadChecksum:count 0
scalar AODVNetwork.host[15].lo[0].lo rcvdPkFromHl:count 0
scalar AODVNetwork.host[15].lo[0].lo rcvdPkFromHl:sum(packetBytes) 0
scalar AODVNetwork.host[15].lo[0].lo passedUpPk:count 0
scalar AODVNetwork.host[15].lo[0].lo passedUpPk:sum(packetBytes) 0
scalar AODVNetwork.host[15].lo[0] packetDropInterfaceDown:count 0
scalar AODVNetwork.host[15].lo[0] packetDropInterfaceDown:sum(packetBytes) 0
scalar AODVNetwork.host[15].lo[0] packetDropNoCarrier:count 0
scalar AODVNetwork.host[15].lo[0] packetDropNoCarrier:sum(packetBytes) 0
scalar AODVNetwork.host[15].wlan[0].queue queueLength:last 0
scalar AODVNetwork.host[15].wlan[0].queue queueLength:max 0
scalar AODVNetwork.host[15].wlan[0].queue queueLength:timeavg 0
scalar AODVNetwork.host[15].wlan[0].queue queueBitLength:last 0
scalar AODVNetwork.host[15].wlan[0].queue queueBitLength:max 0
scalar AODVNetwork.host[15].wlan[0].queue queueBitLength:timeavg 0
scalar AODVNetwork.host[15].wlan[0].queue outgoingPackets:count 2
scalar AODVNetwork.host[15].wlan[0].queue outgoingPacketLengths:sum 832
scalar AODVNetwork.host[15].wlan[0].queue incomingPackets:count 2
scalar AODVNetwork.host[15].wlan[0].queue incomingPacketLengths:sum 832
scalar AODVNetwork.host[15].wlan[0].queue droppedPacketsQueueOverflow:count 0
scalar AODVNetwork.host[15].wlan[0].queue droppedPacketLengthsQueueOverflow:sum 0
scalar AODVNetwork.host[15].wlan[0].mac rcvdPkFromLl:count 41
scalar AODVNetwork.host[15].wlan[0].mac rcvdPkFromLl:sum(packetBytes) 4051
scalar AODVNetwork.host[15].wlan[0].mac sentDownPk:count 2
scalar AODVNetwork.host[15].wlan[0].mac sentDownPk:sum(packetBytes) 150
scalar AODVNetwork.host[15].wlan[0].mac rcvdPkFromHl:count 2
scalar AODVNetwork.host[15].wlan[0].mac rcvdPkFromHl:sum(packetBytes) 104
scalar AODVNetwork.host[15].wlan[0].mac passedUpPk:count 5
scalar AODVNetwork.host[15].wlan[0].mac passedUpPk:sum(packetBytes) 212
scalar AODVNetwork.host[15].wlan[0].mac packetDropIncorrectlyReceived:count 0
scalar AODVNetwork.host[15].wlan[0].mac packetDropIncorrectlyReceived:sum(packetBytes) 0
scalar AODVNetwork.host[15].wlan[0].mac packetDropInterfaceDown:count 0
scalar AODVNetwork.host[15].wlan[0].mac packetDropInterfaceDown:sum(packetBytes) 0
scalar AODVNetwork.host[15].wlan[0].mac packetDropNotAddressedToUs:count 36
scalar AODVNetwork.host[15].wlan[0].mac packetDropNotAddressedToUs:sum(packetBytes) 3724
scalar AODVNetwork.host[15].wlan[0].mac linkBroken:count 0
scalar AODVNetwork.host[15].wlan[0].radio radioMode:count 3
scalar AODVNetwork.host[15].wlan[0].radio receptionState:count 83
scalar AODVNetwork.host[15].wlan[0].radio transmissionState:count 5
scalar AODVNetwork.host[15].wlan[0] packetDropInterfaceDown:count 0
scalar AODVNetwork.host[15].wlan[0] packetDropInterfaceDown:sum(packetBytes) 0
scalar AODVNetwork.host[15].wlan[0] packetDropNoCarrier:count 0
scalar AODVNetwork.host[15].wlan[0] packetDropNoCarrier:sum(packetBytes) 0
scalar AODVNetwork.host[15].ipv4.ip packetDropAddressResolutionFailed:count 0
scalar AODVNetwork.host[15].ipv4.ip packetDropAddressResolutionFailed:sum(packetBytes) 0
scalar AODVNetwork.host[15].ipv4.ip packetDropHopLimitReached:count 0
scalar AODVNetwork.host[15].ipv4.ip packetDropHopLimitReached:sum(packetBytes) 0
scalar AODVNetwork.host[15].ipv4.ip packetDropForwardingDisabled:count 0
scalar AODVNetwork.host[15].ipv4.ip packetDropForwardingDisabled:sum(packetBytes) 0
scalar AODVNetwork.host[15].ipv4.ip packetDropLifetimeExpired:count 0
scalar AODVNetwork.host[15].ipv4.ip packetDropLifetimeExpired:sum(packetBytes) 0
scalar AODVNetwork.host[15].ipv4.ip packetDropNoInterfaceFound:count 0
scalar AODVNetwork.host[15].ipv4.ip packetDropNoInterfaceFound:sum(packetBytes) 0
scalar AODVNetwork.host[15].ipv4.ip packetDropNoRouteFound:count 0
scalar AODVNetwork.host[15].ipv4.ip packetDropNoRouteFound:sum(packetBytes) 0
scalar AODVNetwork.host[15].ipv4.ip packetDropUndefined:count 0
scalar AODVNetwork.host[15].ipv4.ip packetDropUndefined:sum(packetBytes) 0
scalar AODVNetwork.host[15].ipv4.arp arpResolutionFailed:count 0
scalar AODVNetwork.host[15].ipv4.arp arpResolutionCompleted:count 0
scalar AODVNetwork.host[15].ipv4.arp arpResolutionInitiated:count 0
scalar AODVNetwork.host[15].ipv4.arp arpReplySent:count 0
scalar AODVNetwork.host[15].ipv4.arp arpReplySent:sum(packetBytes) 0
scalar AODVNetwork.host[15].ipv4.arp arpRequestSent:count 0
[...]
scalar AODVNetwork.host[19].wlan[0].mac passedUpPk:vector(packetBytes):sum 1184
scalar AODVNetwork.host[19].wlan[0].mac passedUpPk:vector(packetBytes):sumweights 25
scalar AODVNetwork.host[19].wlan[0].mac passedUpPk:vector(packetBytes):mean 47.36
scalar AODVNetwork.host[19].wlan[0].mac passedUpPk:vector(packetBytes):stddev 9.9116093546911
scalar AODVNetwork.host[19].wlan[0].mac passedUpPk:vector(packetBytes):min 28
scalar AODVNetwork.host[19].wlan[0].mac passedUpPk:vector(packetBytes):max 56
scalar AODVNetwork.host[19].wlan[0].mac passedUpPk:vector(packetBytes):starttime 3.19856662158
scalar AODVNetwork.host[19].wlan[0].mac passedUpPk:vector(packetBytes):endtime 31.005523425343
scalar AODVNetwork.host[19].wlan[0].mac sentDownPk:vector(packetBytes):count 4
scalar AODVNetwork.host[19].wlan[0].mac sentDownPk:vector(packetBytes):sum 300
scalar AODVNetwork.host[19].wlan[0].mac sentDownPk:vector(packetBytes):sumweights 4
scalar AODVNetwork.host[19].wlan[0].mac sentDownPk:vector(packetBytes):mean 75
scalar AODVNetwork.host[19].wlan[0].mac sentDownPk:vector(packetBytes):stddev 0
scalar AODVNetwork.host[19].wlan[0].mac sentDownPk:vector(packetBytes):min 75
scalar AODVNetwork.host[19].wlan[0].mac sentDownPk:vector(packetBytes):max 75
scalar AODVNetwork.host[19].wlan[0].mac sentDownPk:vector(packetBytes):starttime 3.202142568405
scalar AODVNetwork.host[19].wlan[0].mac sentDownPk:vector(packetBytes):endtime 28.000654213111
scalar AODVNetwork.host[19].wlan[0].mac rcvdPkFromHl:vector(packetBytes):count 4
scalar AODVNetwork.host[19].wlan[0].mac rcvdPkFromHl:vector(packetBytes):sum 208
scalar AODVNetwork.host[19].wlan[0].mac rcvdPkFromHl:vector(packetBytes):sumweights 4
scalar AODVNetwork.host[19].wlan[0].mac rcvdPkFromHl:vector(packetBytes):mean 52
scalar AODVNetwork.host[19].wlan[0].mac rcvdPkFromHl:vector(packetBytes):stddev 0
scalar AODVNetwork.host[19].wlan[0].mac rcvdPkFromHl:vector(packetBytes):min 52
scalar AODVNetwork.host[19].wlan[0].mac rcvdPkFromHl:vector(packetBytes):max 52
scalar AODVNetwork.host[19].wlan[0].mac rcvdPkFromHl:vector(packetBytes):starttime 3.202142568405
scalar AODVNetwork.host[19].wlan[0].mac rcvdPkFromHl:vector(packetBytes):endtime 28.000654213111
scalar AODVNetwork.host[19].wlan[0].mac rcvdPkFromLl:vector(packetBytes):count 239
scalar AODVNetwork.host[19].wlan[0].mac rcvdPkFromLl:vector(packetBytes):sum 24009
scalar AODVNetwork.host[19].wlan[0].mac rcvdPkFromLl:vector(packetBytes):sumweights 239
scalar AODVNetwork.host[19].wlan[0].mac rcvdPkFromLl:vector(packetBytes):mean 100.45606694561
scalar AODVNetwork.host[19].wlan[0].mac rcvdPkFromLl:vector(packetBytes):stddev 15.757256392022
scalar AODVNetwork.host[19].wlan[0].mac rcvdPkFromLl:vector(packetBytes):min 51
scalar AODVNetwork.host[19].wlan[0].mac rcvdPkFromLl:vector(packetBytes):max 107
scalar AODVNetwork.host[19].wlan[0].mac rcvdPkFromLl:vector(packetBytes):starttime 3.19856662158
scalar AODVNetwork.host[19].wlan[0].mac rcvdPkFromLl:vector(packetBytes):endtime 59.198114442654
scalar AODVNetwork.host[19].wlan[0].mac packetDropIncorrectlyReceived:vector(packetBytes):count 0
scalar AODVNetwork.host[19].wlan[0].mac packetDropIncorrectlyReceived:vector(packetBytes):sum 0
scalar AODVNetwork.host[19].wlan[0].mac packetDropIncorrectlyReceived:vector(packetBytes):sumweights 0
scalar AODVNetwork.host[19].wlan[0].mac packetDropIncorrectlyReceived:vector(packetBytes):mean -nan
scalar AODVNetwork.host[19].wlan[0].mac packetDropIncorrectlyReceived:vector(packetBytes):stddev nan
scalar AODVNetwork.host[19].wlan[0].mac packetDropIncorrectlyReceived:vector(packetBytes):min inf
scalar AODVNetwork.host[19].wlan[0].mac packetDropIncorrectlyReceived:vector(packetBytes):max -inf
scalar AODVNetwork.host[19].wlan[0].mac packetDropIncorrectlyReceived:vector(packetBytes):starttime nan
scalar AODVNetwork.host[19].wlan[0].mac packetDropIncorrectlyReceived:vector(packetBytes):endtime nan
scalar AODVNetwork.host[19].wlan[0].mac packetDropInterfaceDown:vector(packetBytes):count 0
scalar AODVNetwork.host[19].wlan[0].mac packetDropInterfaceDown:vector(packetBytes):sum 0
scalar AODVNetwork.host[19].wlan[0].mac packetDropInterfaceDown:vector(packetBytes):sumweights 0
scalar AODVNetwork.host[19].wlan[0].mac packetDropInterfaceDown:vector(packetBytes):mean -nan
scalar AODVNetwork.host[19].wlan[0].mac packetDropInterfaceDown:vector(packetBytes):stddev nan
scalar AODVNetwork.host[19].wlan[0].mac packetDropInterfaceDown:vector(packetBytes):min inf
scalar AODVNetwork.host[19].wlan[0].mac packetDropInterfaceDown:vector(packetBytes):max -inf
scalar AODVNetwork.host[19].wlan[0].mac packetDropInterfaceDown:vector(packetBytes):starttime nan
scalar AODVNetwork.host[19].wlan[0].mac packetDropInterfaceDown:vector(packetBytes):endtime nan
scalar AODVNetwork.host[19].wlan[0].mac packetDropNotAddressedToUs:vector(packetBytes):count 214
scalar AODVNetwork.host[19].wlan[0].mac packetDropNotAddressedToUs:vector(packetBytes):sum 22250
scalar AODVNetwork.host[19].wlan[0].mac packetDropNotAddressedToUs:vector(packetBytes):sumweights 214
scalar AODVNetwork.host[19].wlan[0].mac packetDropNotAddressedToUs:vector(packetBytes):mean 103.97196261682
scalar AODVNetwork.host[19].wlan[0].mac packetDropNotAddressedToUs:vector(packetBytes):stddev 12.150432627337
scalar AODVNetwork.host[19].wlan[0].mac packetDropNotAddressedToUs:vector(packetBytes):min 51
scalar AODVNetwork.host[19].wlan[0].mac packetDropNotAddressedToUs:vector(packetBytes):max 107
scalar AODVNetwork.host[19].wlan[0].mac packetDropNotAddressedToUs:vector(packetBytes):starttime 3.201539469252
scalar AODVNetwork.host[19].wlan[0].mac packetDropNotAddressedToUs:vector(packetBytes):endtime 59.198114442654
scalar AODVNetwork.host[19].wlan[0].radio radioMode:vector:count 3
scalar AODVNetwork.host[19].wlan[0].radio radioMode:vector:sum 4
scalar AODVNetwork.host[19].wlan[0].radio radioMode:vector:sumweights 3
scalar AODVNetwork.host[19].wlan[0].radio radioMode:vector:mean 1.3333333333333
scalar AODVNetwork.host[19].wlan[0].radio radioMode:vector:stddev 2.3094010767585
scalar AODVNetwork.host[19].wlan[0].radio radioMode:vector:min 0
scalar AODVNetwork.host[19].wlan[0].radio radioMode:vector:max 4
scalar AODVNetwork.host[19].wlan[0].radio radioMode:vector:starttime 0
scalar AODVNetwork.host[19].wlan[0].radio radioMode:vector:endtime 0
scalar AODVNetwork.host[19].wlan[0].radio receptionState:vector:count 483
scalar AODVNetwork.host[19].wlan[0].radio receptionState:vector:sum 968
scalar AODVNetwork.host[19].wlan[0].radio receptionState:vector:sumweights 483
scalar AODVNetwork.host[19].wlan[0].radio receptionState:vector:mean 2.0041407867495
scalar AODVNetwork.host[19].wlan[0].radio receptionState:vector:stddev 0.99374779774959
scalar AODVNetwork.host[19].wlan[0].radio receptionState:vector:min 1
scalar AODVNetwork.host[19].wlan[0].radio receptionState:vector:max 3
scalar AODVNetwork.host[19].wlan[0].radio receptionState:vector:starttime 0
scalar AODVNetwork.host[19].wlan[0].radio receptionState:vector:endtime 59.198114442654
scalar AODVNetwork.host[19].wlan[0].radio transmissionState:vector:count 9
scalar AODVNetwork.host[19].wlan[0].radio transmissionState:vector:sum 13
scalar AODVNetwork.host[19].wlan[0].radio transmissionState:vector:sumweights 9
scalar AODVNetwork.host[19].wlan[0].radio transmissionState:vector:mean 1.4444444444444
scalar AODVNetwork.host[19].wlan[0].radio transmissionState:vector:stddev 0.52704627669473
scalar AODVNetwork.host[19].wlan[0].radio transmissionState:vector:min 1
scalar AODVNetwork.host[19].wlan[0].radio transmissionState:vector:max 2
scalar AODVNetwork.host[19].wlan[0].radio transmissionState:vector:starttime 0
scalar AODVNetwork.host[19].wlan[0].radio transmissionState:vector:endtime 28.001002213111
scalar AODVNetwork.host[19].wlan[0] packetDropInterfaceDown:vector(packetBytes):count 0
scalar AODVNetwork.host[19].wlan[0] packetDropInterfaceDown:vector(packetBytes):sum 0
scalar AODVNetwork.host[19].wlan[0] packetDropInterfaceDown:vector(packetBytes):sumweights 0
scalar AODVNetwork.host[19].wlan[0] packetDropInterfaceDown:vector(packetBytes):mean -nan
scalar AODVNetwork.host[19].wlan[0] packetDropInterfaceDown:vector(packetBytes):stddev nan
scalar AODVNetwork.host[19].wlan[0] packetDropInterfaceDown:vector(packetBytes):min inf
scalar AODVNetwork.host[19].wlan[0] packetDropInterfaceDown:vector(packetBytes):max -inf
scalar AODVNetwork.host[19].wlan[0] packetDropInterfaceDown:vector(packetBytes):starttime nan
scalar AODVNetwork.host[19].wlan[0] packetDropInterfaceDown:vector(packetBytes):endtime nan
scalar AODVNetwork.host[19].wlan[0] packetDropNoCarrier:vector(packetBytes):count 0
scalar AODVNetwork.host[19].wlan[0] packetDropNoCarrier:vector(packetBytes):sum 0
scalar AODVNetwork.host[19].wlan[0] packetDropNoCarrier:vector(packetBytes):sumweights 0
scalar AODVNetwork.host[19].wlan[0] packetDropNoCarrier:vector(packetBytes):mean -nan
scalar AODVNetwork.host[19].wlan[0] packetDropNoCarrier:vector(packetBytes):stddev nan
scalar AODVNetwork.host[19].wlan[0] packetDropNoCarrier:vector(packetBytes):min inf
scalar AODVNetwork.host[19].wlan[0] packetDropNoCarrier:vector(packetBytes):max -inf
scalar AODVNetwork.host[19].wlan[0] packetDropNoCarrier:vector(packetBytes):starttime nan
scalar AODVNetwork.host[19].wlan[0] packetDropNoCarrier:vector(packetBytes):endtime nan
scalar AODVNetwork.host[19].ipv4.ip packetDropAddressResolutionFailed:vector(packetBytes):count 0
scalar AODVNetwork.host[19].ipv4.ip packetDropAddressResolutionFailed:vector(packetBytes):sum 0
scalar AODVNetwork.host[19].ipv4.ip packetDropAddressResolutionFailed:vector(packetBytes):sumweights 0
scalar AODVNetwork.host[19].ipv4.ip packetDropAddressResolutionFailed:vector(packetBytes):mean -nan
scalar AODVNetwork.host[19].ipv4.ip packetDropAddressResolutionFailed:vector(packetBytes):stddev nan
scalar AODVNetwork.host[19].ipv4.ip packetDropAddressResolutionFailed:vector(packetBytes):min inf
scalar AODVNetwork.host[19].ipv4.ip packetDropAddressResolutionFailed:vector(packetBytes):max -inf
scalar AODVNetwork.host[19].ipv4.ip packetDropAddressResolutionFailed:vector(packetBytes):starttime nan
scalar AODVNetwork.host[19].ipv4.ip packetDropAddressResolutionFailed:vector(packetBytes):endtime nan
scalar AODVNetwork.host[19].ipv4.ip packetDropHopLimitReached:vector(packetBytes):count 0
scalar AODVNetwork.host[19].ipv4.ip packetDropHopLimitReached:vector(packetBytes):sum 0
scalar AODVNetwork.host[19].ipv4.ip packetDropHopLimitReached:vector(packetBytes):sumweights 0
scalar AODVNetwork.host[19].ipv4.ip packetDropHopLimitReached:vector(packetBytes):mean -nan
scalar AODVNetwork.host[19].ipv4.ip packetDropHopLimitReached:vector(packetBytes):stddev nan
scalar AODVNetwork.host[19].ipv4.ip packetDropHopLimitReached:vector(packetBytes):min inf
scalar AODVNetwork.host[19].ipv4.ip packetDropHopLimitReached:vector(packetBytes):max -inf
scalar AODVNetwork.host[19].ipv4.ip packetDropHopLimitReached:vector(packetBytes):starttime nan
scalar AODVNetwork.host[19].ipv4.ip packetDropHopLimitReached:vector(packetBytes):endtime nan
scalar AODVNetwork.host[19].ipv4.ip packetDropForwardingDisabled:vector(packetBytes):count 0
scalar AODVNetwork.host[19].ipv4.ip packetDropForwardingDisabled:vector(packetBytes):sum 0
scalar AODVNetwork.host[19].ipv4.ip packetDropForwardingDisabled:vector(packetBytes):sumweights 0
scalar AODVNetwork.host[19].ipv4.ip packetDropForwardingDisabled:vector(packetBytes):mean -nan
scalar AODVNetwork.host[19].ipv4.ip packetDropForwardingDisabled:vector(packetBytes):stddev nan
scalar AODVNetwork.host[19].ipv4.ip packetDropForwardingDisabled:vector(packetBytes):min inf
scalar AODVNetwork.host[19].ipv4.ip packetDropForwardingDisabled:vector(packetBytes):max -inf
scalar AODVNetwork.host[19].ipv4.ip packetDropForwardingDisabled:vector(packetBytes):starttime nan
scalar AODVNetwork.host[19].ipv4.ip packetDropForwardingDisabled:vector(packetBytes):endtime nan
scalar AODVNetwork.host[19].ipv4.ip packetDropLifetimeExpired:vector(packetBytes):count 0
scalar AODVNetwork.host[19].ipv4.ip packetDropLifetimeExpired:vector(packetBytes):sum 0
scalar AODVNetwork.host[19].ipv4.ip packetDropLifetimeExpired:vector(packetBytes):sumweights 0
scalar AODVNetwork.host[19].ipv4.ip packetDropLifetimeExpired:vector(packetBytes):mean -nan
scalar AODVNetwork.host[19].ipv4.ip packetDropLifetimeExpired:vector(packetBytes):stddev nan
scalar AODVNetwork.host[19].ipv4.ip packetDropLifetimeExpired:vector(packetBytes):min inf
scalar AODVNetwork.host[19].ipv4.ip packetDropLifetimeExpired:vector(packetBytes):max -inf
scalar AODVNetwork.host[19].ipv4.ip packetDropLifetimeExpired:vector(packetBytes):starttime nan
scalar AODVNetwork.host[19].ipv4.ip packetDropLifetimeExpired:vector(packetBytes):endtime nan
scalar AODVNetwork.host[19].ipv4.ip packetDropNoInterfaceFound:vector(packetBytes):count 0
scalar AODVNetwork.host[19].ipv4.ip packetDropNoInterfaceFound:vector(packetBytes):sum 0
scalar AODVNetwork.host[19].ipv4.ip packetDropNoInterfaceFound:vector(packetBytes):sumweights 0
scalar AODVNetwork.host[19].ipv4.ip packetDropNoInterfaceFound:vector(packetBytes):mean -nan
scalar AODVNetwork.host[19].ipv4.ip packetDropNoInterfaceFound:vector(packetBytes):stddev nan
scalar AODVNetwork.host[19].ipv4.ip packetDropNoInterfaceFound:vector(packetBytes):min inf
scalar AODVNetwork.host[19].ipv4.ip packetDropNoInterfaceFound:vector(packetBytes):max -inf
scalar AODVNetwork.host[19].ipv4.ip packetDropNoInterfaceFound:vector(packetBytes):starttime nan
scalar AODVNetwork.host[19].ipv4.ip packetDropNoInterfaceFound:vector(packetBytes):endtime nan
scalar AODVNetwork.host[19].ipv4.ip packetDropNoRouteFound:vector(packetBytes):count 0
scalar AODVNetwork.host[19].ipv4.ip packetDropNoRouteFound:vector(packetBytes):sum 0
scalar AODVNetwork.host[19].ipv4.ip packetDropNoRouteFound:vector(packetBytes):sumweights 0
scalar AODVNetwork.host[19].ipv4.ip packetDropNoRouteFound:vector(packetBytes):mean -nan
scalar AODVNetwork.host[19].ipv4.ip packetDropNoRouteFound:vector(packetBytes):stddev nan
scalar AODVNetwork.host[19].ipv4.ip packetDropNoRouteFound:vector(packetBytes):min inf
scalar AODVNetwork.host[19].ipv4.ip packetDropNoRouteFound:vector(packetBytes):max -inf
scalar AODVNetwork.host[19].ipv4.ip packetDropNoRouteFound:vector(packetBytes):starttime nan
scalar AODVNetwork.host[19].ipv4.ip packetDropNoRouteFound:vector(packetBytes):endtime nan
scalar AODVNetwork.host[19].ipv4.ip packetDropUndefined:vector(packetBytes):count 0
scalar AODVNetwork.host[19].ipv4.ip packetDropUndefined:vector(packetBytes):sum 0
scalar AODVNetwork.host[19].ipv4.ip packetDropUndefined:vector(packetBytes):sumweights 0
scalar AODVNetwork.host[19].ipv4.ip packetDropUndefined:vector(packetBytes):mean -nan
scalar AODVNetwork.host[19].ipv4.ip packetDropUndefined:vector(packetBytes):stddev nan
scalar AODVNetwork.host[19].ipv4.ip packetDropUndefined:vector(packetBytes):min inf
scalar AODVNetwork.host[19].ipv4.ip packetDropUndefined:vector(packetBytes):max -inf
scalar AODVNetwork.host[19].ipv4.ip packetDropUndefined:vector(packetBytes):starttime nan
scalar AODVNetwork.host[19].ipv4.ip packetDropUndefined:vector(packetBytes):endtime nan
scalar AODVNetwork.host[19].ipv4.arp arpRequestSent:vector(packetBytes):count 0
scalar AODVNetwork.host[19].ipv4.arp arpRequestSent:vector(packetBytes):sum 0
scalar AODVNetwork.host[19].ipv4.arp arpRequestSent:vector(packetBytes):sumweights 0
scalar AODVNetwork.host[19].ipv4.arp arpRequestSent:vector(packetBytes):mean -nan
scalar AODVNetwork.host[19].ipv4.arp arpRequestSent:vector(packetBytes):stddev nan
scalar AODVNetwork.host[19].ipv4.arp arpRequestSent:vector(packetBytes):min inf
scalar AODVNetwork.host[19].ipv4.arp arpRequestSent:vector(packetBytes):max -inf
scalar AODVNetwork.host[19].ipv4.arp arpRequestSent:vector(packetBytes):starttime nan
scalar AODVNetwork.host[19].ipv4.arp arpRequestSent:vector(packetBytes):endtime nan
scalar AODVNetwork.host[19].ipv4.arp arpReplySent:vector(packetBytes):count 0
scalar AODVNetwork.host[19].ipv4.arp arpReplySent:vector(packetBytes):sum 0
scalar AODVNetwork.host[19].ipv4.arp arpReplySent:vector(packetBytes):sumweights 0
scalar AODVNetwork.host[19].ipv4.arp arpReplySent:vector(packetBytes):mean -nan
scalar AODVNetwork.host[19].ipv4.arp arpReplySent:vector(packetBytes):stddev nan
scalar AODVNetwork.host[19].ipv4.arp arpReplySent:vector(packetBytes):min inf
scalar AODVNetwork.host[19].ipv4.arp arpReplySent:vector(packetBytes):max -inf
scalar AODVNetwork.host[19].ipv4.arp arpReplySent:vector(packetBytes):starttime nan
scalar AODVNetwork.host[19].ipv4.arp arpReplySent:vector(packetBytes):endtime nan
scalar AODVNetwork.host[19].udp packetSent:vector(packetBytes):count 4
scalar AODVNetwork.host[19].udp packetSent:vector(packetBytes):sum 128
scalar AODVNetwork.host[19].udp packetSent:vector(packetBytes):sumweights 4
scalar AODVNetwork.host[19].udp packetSent:vector(packetBytes):mean 32
scalar AODVNetwork.host[19].udp packetSent:vector(packetBytes):stddev 0
scalar AODVNetwork.host[19].udp packetSent:vector(packetBytes):min 32
scalar AODVNetwork.host[19].udp packetSent:vector(packetBytes):max 32
scalar AODVNetwork.host[19].udp packetSent:vector(packetBytes):starttime 3.202142568405
scalar AODVNetwork.host[19].udp packetSent:vector(packetBytes):endtime 28.000654213111
scalar AODVNetwork.host[19].udp packetReceived:vector(packetBytes):count 20
scalar AODVNetwork.host[19].udp packetReceived:vector(packetBytes):sum 644
scalar AODVNetwork.host[19].udp packetReceived:vector(packetBytes):sumweights 20
scalar AODVNetwork.host[19].udp packetReceived:vector(packetBytes):mean 32.2
scalar AODVNetwork.host[19].udp packetReceived:vector(packetBytes):stddev 0.89442719099994
scalar AODVNetwork.host[19].udp packetReceived:vector(packetBytes):min 32
scalar AODVNetwork.host[19].udp packetReceived:vector(packetBytes):max 36
scalar AODVNetwork.host[19].udp packetReceived:vector(packetBytes):starttime 3.19856662158
scalar AODVNetwork.host[19].udp packetReceived:vector(packetBytes):endtime 28.004206171923
scalar AODVNetwork.host[19].udp passedUpPk:vector(count):count 21
scalar AODVNetwork.host[19].udp passedUpPk:vector(count):sum 210
scalar AODVNetwork.host[19].udp passedUpPk:vector(count):sumweights 21
scalar AODVNetwork.host[19].udp passedUpPk:vector(count):mean 10
scalar AODVNetwork.host[19].udp passedUpPk:vector(count):stddev 6.2048368229954
scalar AODVNetwork.host[19].udp passedUpPk:vector(count):min 0
scalar AODVNetwork.host[19].udp passedUpPk:vector(count):max 20
scalar AODVNetwork.host[19].udp passedUpPk:vector(count):starttime 0
scalar AODVNetwork.host[19].udp passedUpPk:vector(count):endtime 28.004206171923
scalar AODVNetwork.host[19].udp droppedPkWrongPort:vector(count):count 1
scalar AODVNetwork.host[19].udp droppedPkWrongPort:vector(count):sum 0
scalar AODVNetwork.host[19].udp droppedPkWrongPort:vector(count):sumweights 1
scalar AODVNetwork.host[19].udp droppedPkWrongPort:vector(count):mean 0
scalar AODVNetwork.host[19].udp droppedPkWrongPort:vector(count):stddev nan
scalar AODVNetwork.host[19].udp droppedPkWrongPort:vector(count):min 0
scalar AODVNetwork.host[19].udp droppedPkWrongPort:vector(count):max 0
scalar AODVNetwork.host[19].udp droppedPkWrongPort:vector(count):starttime 0
scalar AODVNetwork.host[19].udp droppedPkWrongPort:vector(count):endtime 0
scalar AODVNetwork.host[19].udp droppedPkBadChecksum:vector(count):count 1
scalar AODVNetwork.host[19].udp droppedPkBadChecksum:vector(count):sum 0
scalar AODVNetwork.host[19].udp droppedPkBadChecksum:vector(count):sumweights 1
scalar AODVNetwork.host[19].udp droppedPkBadChecksum:vector(count):mean 0
scalar AODVNetwork.host[19].udp droppedPkBadChecksum:vector(count):stddev nan
scalar AODVNetwork.host[19].udp droppedPkBadChecksum:vector(count):min 0
scalar AODVNetwork.host[19].udp droppedPkBadChecksum:vector(count):max 0
scalar AODVNetwork.host[19].udp droppedPkBadChecksum:vector(count):starttime 0
scalar AODVNetwork.host[19].udp droppedPkBadChecksum:vector(count):endtime 0

