version 3
run SimpleRREQ-0-20251118-11:40:31-109376
attr configname SimpleRREQ
attr datetime 20251118-11:40:31
attr datetimef 20251118-114031
attr experiment SimpleRREQ
attr inifile omnetpp.ini
attr iterationvars ""
attr iterationvarsd ""
attr iterationvarsf ""
attr measurement ""
attr network SimpleRREQ
attr processid 109376
attr repetition 0
attr replication #0
attr resultdir results
attr runnumber 0
attr seedset 0
config **.param-recording false
config image-path /home/zoli/Projects/OMNET/inet/images
config output-scalar-file results/omnetpp.ini-SimpleRREQ-#0.sca
config output-scalar-precision 17
config output-vector-file results/omnetpp.ini-SimpleRREQ-#0.vec
config output-vector-precision 17
config record-eventlog false
config sim-time-limit 100s
config sim-time-limit 100s
config description "demonstrates a single RREQ-RREP exchange"
config network SimpleRREQ
config **.wlan[*].radio.transmitter.analogModel.communicationRange 240m
config **.sender.numApps 1
config **.sender.app[0].typename PingApp
config **.sender.app[0].startTime uniform(1s,5s)
config **.sender.app[0].printPing true
config **.sender.app[0].destAddr "\"receiver(ipv4)\""
config network AODVNetwork
config num-rngs 3
config **.mobility.rng-0 1
config **.wlan[*].mac.rng-0 2
config *.radioMedium.sameTransmissionStartTimeCheck "\"ignore\""
config **.wlan[*].typename AckingWirelessInterface
config **.wlan[*].bitrate 2Mbps
config **.wlan[*].mac.headerLength 23B
config **.wlan[*].radio.typename GenericRadio
config **.wlan[*].radio.signalAnalogRepresentation "\"unitDisk\""
config **.wlan[*].radio.transmitter.headerLength 96b
config **.wlan[*].radio.transmitter.analogModel.communicationRange 250m
config **.wlan[*].radio.transmitter.analogModel.interferenceRange 0m
config **.wlan[*].radio.transmitter.analogModel.detectionRange 0m
config **.wlan[*].radio.receiver.ignoreInterference true
config **.mobility.constraintAreaMinZ 0m
config **.mobility.constraintAreaMaxZ 0m
config **.mobility.constraintAreaMinX 0m
config **.mobility.constraintAreaMinY 0m
config **.mobility.constraintAreaMaxX 600m
config **.mobility.constraintAreaMaxY 600m
config **.hasStatus true

scalar SimpleRREQ.radioMedium.propagation "Arrival computation count" 792
scalar SimpleRREQ.radioMedium "transmission count" 396
scalar SimpleRREQ.radioMedium "signal send count" 792
scalar SimpleRREQ.radioMedium "reception computation count" 792
scalar SimpleRREQ.radioMedium "interference computation count" 2978
scalar SimpleRREQ.radioMedium "reception decision computation count" 594
scalar SimpleRREQ.radioMedium "listening decision computation count" 1592
scalar SimpleRREQ.radioMedium "reception cache hit" 84
scalar SimpleRREQ.radioMedium "interference cache hit" 66.666666666666671
scalar SimpleRREQ.radioMedium "noise cache hit" 0
scalar SimpleRREQ.radioMedium "snir cache hit" 50
scalar SimpleRREQ.radioMedium "reception decision cache hit" 50
scalar SimpleRREQ.radioMedium "reception result cache hit" 0
scalar SimpleRREQ.sender.lo[0].lo rcvdPkFromHl:count 0
scalar SimpleRREQ.sender.lo[0].lo rcvdPkFromHl:sum(packetBytes) 0
scalar SimpleRREQ.sender.lo[0].lo passedUpPk:count 0
scalar SimpleRREQ.sender.lo[0].lo passedUpPk:sum(packetBytes) 0
scalar SimpleRREQ.sender.lo[0] packetDropInterfaceDown:count 0
scalar SimpleRREQ.sender.lo[0] packetDropInterfaceDown:sum(packetBytes) 0
scalar SimpleRREQ.sender.lo[0] packetDropNoCarrier:count 0
scalar SimpleRREQ.sender.lo[0] packetDropNoCarrier:sum(packetBytes) 0
scalar SimpleRREQ.sender.wlan[0].queue queueLength:last 0
scalar SimpleRREQ.sender.wlan[0].queue queueLength:max 0
scalar SimpleRREQ.sender.wlan[0].queue queueLength:timeavg 0
scalar SimpleRREQ.sender.wlan[0].queue queueBitLength:last 0
scalar SimpleRREQ.sender.wlan[0].queue queueBitLength:max 0
scalar SimpleRREQ.sender.wlan[0].queue queueBitLength:timeavg 0
scalar SimpleRREQ.sender.wlan[0].queue outgoingPackets:count 99
scalar SimpleRREQ.sender.wlan[0].queue outgoingPacketLengths:sum 65824
scalar SimpleRREQ.sender.wlan[0].queue incomingPackets:count 99
scalar SimpleRREQ.sender.wlan[0].queue incomingPacketLengths:sum 65824
scalar SimpleRREQ.sender.wlan[0].queue droppedPacketsQueueOverflow:count 0
scalar SimpleRREQ.sender.wlan[0].queue droppedPacketLengthsQueueOverflow:sum 0
scalar SimpleRREQ.sender.wlan[0].mac rcvdPkFromLl:count 198
scalar SimpleRREQ.sender.wlan[0].mac rcvdPkFromLl:sum(packetBytes) 21006
scalar SimpleRREQ.sender.wlan[0].mac sentDownPk:count 99
scalar SimpleRREQ.sender.wlan[0].mac sentDownPk:sum(packetBytes) 10505
scalar SimpleRREQ.sender.wlan[0].mac rcvdPkFromHl:count 99
scalar SimpleRREQ.sender.wlan[0].mac rcvdPkFromHl:sum(packetBytes) 8228
scalar SimpleRREQ.sender.wlan[0].mac passedUpPk:count 100
scalar SimpleRREQ.sender.wlan[0].mac passedUpPk:sum(packetBytes) 8276
scalar SimpleRREQ.sender.wlan[0].mac packetDropIncorrectlyReceived:count 0
scalar SimpleRREQ.sender.wlan[0].mac packetDropIncorrectlyReceived:sum(packetBytes) 0
scalar SimpleRREQ.sender.wlan[0].mac packetDropInterfaceDown:count 0
scalar SimpleRREQ.sender.wlan[0].mac packetDropInterfaceDown:sum(packetBytes) 0
scalar SimpleRREQ.sender.wlan[0].mac packetDropNotAddressedToUs:count 98
scalar SimpleRREQ.sender.wlan[0].mac packetDropNotAddressedToUs:sum(packetBytes) 10430
scalar SimpleRREQ.sender.wlan[0].mac linkBroken:count 0
scalar SimpleRREQ.sender.wlan[0].radio radioMode:count 3
scalar SimpleRREQ.sender.wlan[0].radio receptionState:count 397
scalar SimpleRREQ.sender.wlan[0].radio transmissionState:count 199
scalar SimpleRREQ.sender.wlan[0] packetDropInterfaceDown:count 0
scalar SimpleRREQ.sender.wlan[0] packetDropInterfaceDown:sum(packetBytes) 0
scalar SimpleRREQ.sender.wlan[0] packetDropNoCarrier:count 0
scalar SimpleRREQ.sender.wlan[0] packetDropNoCarrier:sum(packetBytes) 0
scalar SimpleRREQ.sender.ipv4.ip packetDropAddressResolutionFailed:count 0
scalar SimpleRREQ.sender.ipv4.ip packetDropAddressResolutionFailed:sum(packetBytes) 0
scalar SimpleRREQ.sender.ipv4.ip packetDropHopLimitReached:count 0
scalar SimpleRREQ.sender.ipv4.ip packetDropHopLimitReached:sum(packetBytes) 0
scalar SimpleRREQ.sender.ipv4.ip packetDropForwardingDisabled:count 0
scalar SimpleRREQ.sender.ipv4.ip packetDropForwardingDisabled:sum(packetBytes) 0
scalar SimpleRREQ.sender.ipv4.ip packetDropLifetimeExpired:count 0
scalar SimpleRREQ.sender.ipv4.ip packetDropLifetimeExpired:sum(packetBytes) 0
scalar SimpleRREQ.sender.ipv4.ip packetDropNoInterfaceFound:count 0
scalar SimpleRREQ.sender.ipv4.ip packetDropNoInterfaceFound:sum(packetBytes) 0
scalar SimpleRREQ.sender.ipv4.ip packetDropNoRouteFound:count 0
scalar SimpleRREQ.sender.ipv4.ip packetDropNoRouteFound:sum(packetBytes) 0
scalar SimpleRREQ.sender.ipv4.ip packetDropUndefined:count 0
scalar SimpleRREQ.sender.ipv4.ip packetDropUndefined:sum(packetBytes) 0
scalar SimpleRREQ.sender.ipv4.arp arpResolutionFailed:count 0
scalar SimpleRREQ.sender.ipv4.arp arpResolutionCompleted:count 1
scalar SimpleRREQ.sender.ipv4.arp arpResolutionInitiated:count 0
scalar SimpleRREQ.sender.ipv4.arp arpReplySent:count 1
scalar SimpleRREQ.sender.ipv4.arp arpReplySent:sum(packetBytes) 28
scalar SimpleRREQ.sender.ipv4.arp arpRequestSent:count 0
scalar SimpleRREQ.sender.ipv4.arp arpRequestSent:sum(packetBytes) 0
scalar SimpleRREQ.sender.udp packetReceived:count 2
scalar SimpleRREQ.sender.udp packetReceived:sum(packetBytes) 60
scalar SimpleRREQ.sender.udp packetSent:count 1
scalar SimpleRREQ.sender.udp packetSent:sum(packetBytes) 32
scalar SimpleRREQ.sender.udp passedUpPk:count 2
scalar SimpleRREQ.sender.udp droppedPkWrongPort:count 0
scalar SimpleRREQ.sender.udp droppedPkBadChecksum:count 0
scalar SimpleRREQ.sender.app[0] "Pings sent" 97
scalar SimpleRREQ.sender.app[0] "ping loss rate (%)" 0
scalar SimpleRREQ.sender.app[0] "ping out-of-order rate (%)" 0
scalar SimpleRREQ.sender.app[0] pingRxSeq:count 97
scalar SimpleRREQ.sender.app[0] pingTxSeq:count 97
scalar SimpleRREQ.sender.app[0] numOutOfOrderArrivals:last nan
scalar SimpleRREQ.sender.app[0] numLost:last nan
scalar SimpleRREQ.intermediateNode.lo[0].lo rcvdPkFromHl:count 0
scalar SimpleRREQ.intermediateNode.lo[0].lo rcvdPkFromHl:sum(packetBytes) 0
scalar SimpleRREQ.intermediateNode.lo[0].lo passedUpPk:count 0
scalar SimpleRREQ.intermediateNode.lo[0].lo passedUpPk:sum(packetBytes) 0
scalar SimpleRREQ.intermediateNode.lo[0] packetDropInterfaceDown:count 0
scalar SimpleRREQ.intermediateNode.lo[0] packetDropInterfaceDown:sum(packetBytes) 0
scalar SimpleRREQ.intermediateNode.lo[0] packetDropNoCarrier:count 0
scalar SimpleRREQ.intermediateNode.lo[0] packetDropNoCarrier:sum(packetBytes) 0
scalar SimpleRREQ.intermediateNode.wlan[0].queue queueLength:last 0
scalar SimpleRREQ.intermediateNode.wlan[0].queue queueLength:max 0
scalar SimpleRREQ.intermediateNode.wlan[0].queue queueLength:timeavg 0
scalar SimpleRREQ.intermediateNode.wlan[0].queue queueBitLength:last 0
scalar SimpleRREQ.intermediateNode.wlan[0].queue queueBitLength:max 0
scalar SimpleRREQ.intermediateNode.wlan[0].queue queueBitLength:timeavg 0
scalar SimpleRREQ.intermediateNode.wlan[0].queue outgoingPackets:count 198
scalar SimpleRREQ.intermediateNode.wlan[0].queue outgoingPacketLengths:sum 131616
scalar SimpleRREQ.intermediateNode.wlan[0].queue incomingPackets:count 198
scalar SimpleRREQ.intermediateNode.wlan[0].queue incomingPacketLengths:sum 131616
scalar SimpleRREQ.intermediateNode.wlan[0].queue droppedPacketsQueueOverflow:count 0
scalar SimpleRREQ.intermediateNode.wlan[0].queue droppedPacketLengthsQueueOverflow:sum 0
scalar SimpleRREQ.intermediateNode.wlan[0].mac rcvdPkFromLl:count 198
scalar SimpleRREQ.intermediateNode.wlan[0].mac rcvdPkFromLl:sum(packetBytes) 21006
scalar SimpleRREQ.intermediateNode.wlan[0].mac sentDownPk:count 198
scalar SimpleRREQ.intermediateNode.wlan[0].mac sentDownPk:sum(packetBytes) 21006
scalar SimpleRREQ.intermediateNode.wlan[0].mac rcvdPkFromHl:count 198
scalar SimpleRREQ.intermediateNode.wlan[0].mac rcvdPkFromHl:sum(packetBytes) 16452
scalar SimpleRREQ.intermediateNode.wlan[0].mac passedUpPk:count 198
scalar SimpleRREQ.intermediateNode.wlan[0].mac passedUpPk:sum(packetBytes) 16452
scalar SimpleRREQ.intermediateNode.wlan[0].mac packetDropIncorrectlyReceived:count 0
scalar SimpleRREQ.intermediateNode.wlan[0].mac packetDropIncorrectlyReceived:sum(packetBytes) 0
scalar SimpleRREQ.intermediateNode.wlan[0].mac packetDropInterfaceDown:count 0
scalar SimpleRREQ.intermediateNode.wlan[0].mac packetDropInterfaceDown:sum(packetBytes) 0
scalar SimpleRREQ.intermediateNode.wlan[0].mac packetDropNotAddressedToUs:count 0
scalar SimpleRREQ.intermediateNode.wlan[0].mac packetDropNotAddressedToUs:sum(packetBytes) 0
scalar SimpleRREQ.intermediateNode.wlan[0].mac linkBroken:count 0
scalar SimpleRREQ.intermediateNode.wlan[0].radio radioMode:count 3
scalar SimpleRREQ.intermediateNode.wlan[0].radio receptionState:count 397
scalar SimpleRREQ.intermediateNode.wlan[0].radio transmissionState:count 397
scalar SimpleRREQ.intermediateNode.wlan[0] packetDropInterfaceDown:count 0
scalar SimpleRREQ.intermediateNode.wlan[0] packetDropInterfaceDown:sum(packetBytes) 0
scalar SimpleRREQ.intermediateNode.wlan[0] packetDropNoCarrier:count 0
scalar SimpleRREQ.intermediateNode.wlan[0] packetDropNoCarrier:sum(packetBytes) 0
scalar SimpleRREQ.intermediateNode.ipv4.ip packetDropAddressResolutionFailed:count 0
scalar SimpleRREQ.intermediateNode.ipv4.ip packetDropAddressResolutionFailed:sum(packetBytes) 0
scalar SimpleRREQ.intermediateNode.ipv4.ip packetDropHopLimitReached:count 0
scalar SimpleRREQ.intermediateNode.ipv4.ip packetDropHopLimitReached:sum(packetBytes) 0
scalar SimpleRREQ.intermediateNode.ipv4.ip packetDropForwardingDisabled:count 0
scalar SimpleRREQ.intermediateNode.ipv4.ip packetDropForwardingDisabled:sum(packetBytes) 0
scalar SimpleRREQ.intermediateNode.ipv4.ip packetDropLifetimeExpired:count 0
scalar SimpleRREQ.intermediateNode.ipv4.ip packetDropLifetimeExpired:sum(packetBytes) 0
scalar SimpleRREQ.intermediateNode.ipv4.ip packetDropNoInterfaceFound:count 0
scalar SimpleRREQ.intermediateNode.ipv4.ip packetDropNoInterfaceFound:sum(packetBytes) 0
scalar SimpleRREQ.intermediateNode.ipv4.ip packetDropNoRouteFound:count 0
scalar SimpleRREQ.intermediateNode.ipv4.ip packetDropNoRouteFound:sum(packetBytes) 0
scalar SimpleRREQ.intermediateNode.ipv4.ip packetDropUndefined:count 0
scalar SimpleRREQ.intermediateNode.ipv4.ip packetDropUndefined:sum(packetBytes) 0
scalar SimpleRREQ.intermediateNode.ipv4.arp arpResolutionFailed:count 0
scalar SimpleRREQ.intermediateNode.ipv4.arp arpResolutionCompleted:count 2
scalar SimpleRREQ.intermediateNode.ipv4.arp arpResolutionInitiated:count 1
scalar SimpleRREQ.intermediateNode.ipv4.arp arpReplySent:count 1
scalar SimpleRREQ.intermediateNode.ipv4.arp arpReplySent:sum(packetBytes) 28
scalar SimpleRREQ.intermediateNode.ipv4.arp arpRequestSent:count 1
scalar SimpleRREQ.intermediateNode.ipv4.arp arpRequestSent:sum(packetBytes) 28
scalar SimpleRREQ.intermediateNode.udp packetReceived:count 2
scalar SimpleRREQ.intermediateNode.udp packetReceived:sum(packetBytes) 60
scalar SimpleRREQ.intermediateNode.udp packetSent:count 2
scalar SimpleRREQ.intermediateNode.udp packetSent:sum(packetBytes) 60
scalar SimpleRREQ.intermediateNode.udp passedUpPk:count 2
scalar SimpleRREQ.intermediateNode.udp droppedPkWrongPort:count 0
scalar SimpleRREQ.intermediateNode.udp droppedPkBadChecksum:count 0
scalar SimpleRREQ.receiver.lo[0].lo rcvdPkFromHl:count 0
scalar SimpleRREQ.receiver.lo[0].lo rcvdPkFromHl:sum(packetBytes) 0
scalar SimpleRREQ.receiver.lo[0].lo passedUpPk:count 0
scalar SimpleRREQ.receiver.lo[0].lo passedUpPk:sum(packetBytes) 0
scalar SimpleRREQ.receiver.lo[0] packetDropInterfaceDown:count 0
scalar SimpleRREQ.receiver.lo[0] packetDropInterfaceDown:sum(packetBytes) 0
scalar SimpleRREQ.receiver.lo[0] packetDropNoCarrier:count 0
scalar SimpleRREQ.receiver.lo[0] packetDropNoCarrier:sum(packetBytes) 0
scalar SimpleRREQ.receiver.wlan[0].queue queueLength:last 0
scalar SimpleRREQ.receiver.wlan[0].queue queueLength:max 0
scalar SimpleRREQ.receiver.wlan[0].queue queueLength:timeavg 0
scalar SimpleRREQ.receiver.wlan[0].queue queueBitLength:last 0
scalar SimpleRREQ.receiver.wlan[0].queue queueBitLength:max 0
scalar SimpleRREQ.receiver.wlan[0].queue queueBitLength:timeavg 0
scalar SimpleRREQ.receiver.wlan[0].queue outgoingPackets:count 99
scalar SimpleRREQ.receiver.wlan[0].queue outgoingPacketLengths:sum 65792
scalar SimpleRREQ.receiver.wlan[0].queue incomingPackets:count 99
scalar SimpleRREQ.receiver.wlan[0].queue incomingPacketLengths:sum 65792
scalar SimpleRREQ.receiver.wlan[0].queue droppedPacketsQueueOverflow:count 0
scalar SimpleRREQ.receiver.wlan[0].queue droppedPacketLengthsQueueOverflow:sum 0
scalar SimpleRREQ.receiver.wlan[0].mac rcvdPkFromLl:count 198
scalar SimpleRREQ.receiver.wlan[0].mac rcvdPkFromLl:sum(packetBytes) 21006
scalar SimpleRREQ.receiver.wlan[0].mac sentDownPk:count 99
scalar SimpleRREQ.receiver.wlan[0].mac sentDownPk:sum(packetBytes) 10501
scalar SimpleRREQ.receiver.wlan[0].mac rcvdPkFromHl:count 99
scalar SimpleRREQ.receiver.wlan[0].mac rcvdPkFromHl:sum(packetBytes) 8224
scalar SimpleRREQ.receiver.wlan[0].mac passedUpPk:count 100
scalar SimpleRREQ.receiver.wlan[0].mac passedUpPk:sum(packetBytes) 8256
scalar SimpleRREQ.receiver.wlan[0].mac packetDropIncorrectlyReceived:count 0
scalar SimpleRREQ.receiver.wlan[0].mac packetDropIncorrectlyReceived:sum(packetBytes) 0
scalar SimpleRREQ.receiver.wlan[0].mac packetDropInterfaceDown:count 0
scalar SimpleRREQ.receiver.wlan[0].mac packetDropInterfaceDown:sum(packetBytes) 0
scalar SimpleRREQ.receiver.wlan[0].mac packetDropNotAddressedToUs:count 98
scalar SimpleRREQ.receiver.wlan[0].mac packetDropNotAddressedToUs:sum(packetBytes) 10450
scalar SimpleRREQ.receiver.wlan[0].mac linkBroken:count 0
scalar SimpleRREQ.receiver.wlan[0].radio radioMode:count 3
scalar SimpleRREQ.receiver.wlan[0].radio receptionState:count 397
scalar SimpleRREQ.receiver.wlan[0].radio transmissionState:count 199
scalar SimpleRREQ.receiver.wlan[0] packetDropInterfaceDown:count 0
scalar SimpleRREQ.receiver.wlan[0] packetDropInterfaceDown:sum(packetBytes) 0
scalar SimpleRREQ.receiver.wlan[0] packetDropNoCarrier:count 0
scalar SimpleRREQ.receiver.wlan[0] packetDropNoCarrier:sum(packetBytes) 0
scalar SimpleRREQ.receiver.ipv4.ip packetDropAddressResolutionFailed:count 0
scalar SimpleRREQ.receiver.ipv4.ip packetDropAddressResolutionFailed:sum(packetBytes) 0
scalar SimpleRREQ.receiver.ipv4.ip packetDropHopLimitReached:count 0
scalar SimpleRREQ.receiver.ipv4.ip packetDropHopLimitReached:sum(packetBytes) 0
scalar SimpleRREQ.receiver.ipv4.ip packetDropForwardingDisabled:count 0
scalar SimpleRREQ.receiver.ipv4.ip packetDropForwardingDisabled:sum(packetBytes) 0
scalar SimpleRREQ.receiver.ipv4.ip packetDropLifetimeExpired:count 0
scalar SimpleRREQ.receiver.ipv4.ip packetDropLifetimeExpired:sum(packetBytes) 0
scalar SimpleRREQ.receiver.ipv4.ip packetDropNoInterfaceFound:count 0
scalar SimpleRREQ.receiver.ipv4.ip packetDropNoInterfaceFound:sum(packetBytes) 0
scalar SimpleRREQ.receiver.ipv4.ip packetDropNoRouteFound:count 0
scalar SimpleRREQ.receiver.ipv4.ip packetDropNoRouteFound:sum(packetBytes) 0
scalar SimpleRREQ.receiver.ipv4.ip packetDropUndefined:count 0
scalar SimpleRREQ.receiver.ipv4.ip packetDropUndefined:sum(packetBytes) 0
scalar SimpleRREQ.receiver.ipv4.arp arpResolutionFailed:count 0
scalar SimpleRREQ.receiver.ipv4.arp arpResolutionCompleted:count 2
scalar SimpleRREQ.receiver.ipv4.arp arpResolutionInitiated:count 1
scalar SimpleRREQ.receiver.ipv4.arp arpReplySent:count 0
scalar SimpleRREQ.receiver.ipv4.arp arpReplySent:sum(packetBytes) 0
scalar SimpleRREQ.receiver.ipv4.arp arpRequestSent:count 1
scalar SimpleRREQ.receiver.ipv4.arp arpRequestSent:sum(packetBytes) 28
scalar SimpleRREQ.receiver.udp packetReceived:count 1
scalar SimpleRREQ.receiver.udp packetReceived:sum(packetBytes) 32
scalar SimpleRREQ.receiver.udp packetSent:count 1
scalar SimpleRREQ.receiver.udp packetSent:sum(packetBytes) 28
scalar SimpleRREQ.receiver.udp passedUpPk:count 1
scalar SimpleRREQ.receiver.udp droppedPkWrongPort:count 0
scalar SimpleRREQ.receiver.udp droppedPkBadChecksum:count 0
scalar SimpleRREQ.sender.wlan[0].queue queueingTime:histogram:count 99
scalar SimpleRREQ.sender.wlan[0].queue queueingTime:histogram:sumweights 99
scalar SimpleRREQ.sender.wlan[0].queue queueingTime:histogram:mean 0
scalar SimpleRREQ.sender.wlan[0].queue queueingTime:histogram:stddev 0
scalar SimpleRREQ.sender.wlan[0].queue queueingTime:histogram:min 0
scalar SimpleRREQ.sender.wlan[0].queue queueingTime:histogram:max 0
scalar SimpleRREQ.sender.wlan[0].queue queueingTime:histogram:numbins 50
scalar SimpleRREQ.sender.wlan[0].queue queueingTime:histogram:rangemin -0.5
scalar SimpleRREQ.sender.wlan[0].queue queueingTime:histogram:rangemax 0.5
scalar SimpleRREQ.sender.wlan[0].queue queueingTime:histogram:underflows 0
scalar SimpleRREQ.sender.wlan[0].queue queueingTime:histogram:overflows 0
scalar SimpleRREQ.sender.wlan[0].queue outgoingPacketLengths:histogram:count 99
scalar SimpleRREQ.sender.wlan[0].queue outgoingPacketLengths:histogram:sumweights 99
scalar SimpleRREQ.sender.wlan[0].queue outgoingPacketLengths:histogram:mean 664.88888888888891
scalar SimpleRREQ.sender.wlan[0].queue outgoingPacketLengths:histogram:stddev 51.629940864296728
scalar SimpleRREQ.sender.wlan[0].queue outgoingPacketLengths:histogram:min 224
scalar SimpleRREQ.sender.wlan[0].queue outgoingPacketLengths:histogram:max 672
scalar SimpleRREQ.sender.wlan[0].queue outgoingPacketLengths:histogram:numbins 68
scalar SimpleRREQ.sender.wlan[0].queue outgoingPacketLengths:histogram:rangemin 110
scalar SimpleRREQ.sender.wlan[0].queue outgoingPacketLengths:histogram:rangemax 790
scalar SimpleRREQ.sender.wlan[0].queue outgoingPacketLengths:histogram:underflows 0
scalar SimpleRREQ.sender.wlan[0].queue outgoingPacketLengths:histogram:overflows 0
scalar SimpleRREQ.sender.wlan[0].queue flowQueueingTime:histogram:count 0
scalar SimpleRREQ.sender.wlan[0].queue flowQueueingTime:histogram:sumweights 0
scalar SimpleRREQ.sender.wlan[0].queue flowQueueingTime:histogram:mean -nan
scalar SimpleRREQ.sender.wlan[0].queue flowQueueingTime:histogram:stddev nan
scalar SimpleRREQ.sender.wlan[0].queue flowQueueingTime:histogram:min nan
scalar SimpleRREQ.sender.wlan[0].queue flowQueueingTime:histogram:max nan
scalar SimpleRREQ.sender.wlan[0].queue flowQueueingTime:histogram:numbins 1
scalar SimpleRREQ.sender.wlan[0].queue flowQueueingTime:histogram:rangemin 0
scalar SimpleRREQ.sender.wlan[0].queue flowQueueingTime:histogram:rangemax 1
scalar SimpleRREQ.sender.wlan[0].queue flowQueueingTime:histogram:underflows 0
scalar SimpleRREQ.sender.wlan[0].queue flowQueueingTime:histogram:overflows 0
scalar SimpleRREQ.sender.wlan[0].queue incomingPacketLengths:histogram:count 99
scalar SimpleRREQ.sender.wlan[0].queue incomingPacketLengths:histogram:sumweights 99
scalar SimpleRREQ.sender.wlan[0].queue incomingPacketLengths:histogram:mean 664.88888888888891
scalar SimpleRREQ.sender.wlan[0].queue incomingPacketLengths:histogram:stddev 51.629940864296728
scalar SimpleRREQ.sender.wlan[0].queue incomingPacketLengths:histogram:min 224
scalar SimpleRREQ.sender.wlan[0].queue incomingPacketLengths:histogram:max 672
scalar SimpleRREQ.sender.wlan[0].queue incomingPacketLengths:histogram:numbins 68
scalar SimpleRREQ.sender.wlan[0].queue incomingPacketLengths:histogram:rangemin 110
scalar SimpleRREQ.sender.wlan[0].queue incomingPacketLengths:histogram:rangemax 790
scalar SimpleRREQ.sender.wlan[0].queue incomingPacketLengths:histogram:underflows 0
scalar SimpleRREQ.sender.wlan[0].queue incomingPacketLengths:histogram:overflows 0
scalar SimpleRREQ.sender.wlan[0].radio minSnir:histogram:count 198
scalar SimpleRREQ.sender.wlan[0].radio minSnir:histogram:sumweights 198
scalar SimpleRREQ.sender.wlan[0].radio minSnir:histogram:mean inf
scalar SimpleRREQ.sender.wlan[0].radio minSnir:histogram:stddev 0
scalar SimpleRREQ.sender.wlan[0].radio minSnir:histogram:min inf
scalar SimpleRREQ.sender.wlan[0].radio minSnir:histogram:max inf
scalar SimpleRREQ.sender.wlan[0].radio minSnir:histogram:numbins 1
scalar SimpleRREQ.sender.wlan[0].radio minSnir:histogram:rangemin 0
scalar SimpleRREQ.sender.wlan[0].radio minSnir:histogram:rangemax 1
scalar SimpleRREQ.sender.wlan[0].radio minSnir:histogram:underflows 0
scalar SimpleRREQ.sender.wlan[0].radio minSnir:histogram:overflows 198
scalar SimpleRREQ.sender.wlan[0].radio packetErrorRate:histogram:count 198
scalar SimpleRREQ.sender.wlan[0].radio packetErrorRate:histogram:sumweights 198
scalar SimpleRREQ.sender.wlan[0].radio packetErrorRate:histogram:mean 0
scalar SimpleRREQ.sender.wlan[0].radio packetErrorRate:histogram:stddev 0
scalar SimpleRREQ.sender.wlan[0].radio packetErrorRate:histogram:min 0
scalar SimpleRREQ.sender.wlan[0].radio packetErrorRate:histogram:max 0
scalar SimpleRREQ.sender.wlan[0].radio packetErrorRate:histogram:numbins 50
scalar SimpleRREQ.sender.wlan[0].radio packetErrorRate:histogram:rangemin -0.5
scalar SimpleRREQ.sender.wlan[0].radio packetErrorRate:histogram:rangemax 0.5
scalar SimpleRREQ.sender.wlan[0].radio packetErrorRate:histogram:underflows 0
scalar SimpleRREQ.sender.wlan[0].radio packetErrorRate:histogram:overflows 0
scalar SimpleRREQ.sender.wlan[0].radio bitErrorRate:histogram:count 198
scalar SimpleRREQ.sender.wlan[0].radio bitErrorRate:histogram:sumweights 198
scalar SimpleRREQ.sender.wlan[0].radio bitErrorRate:histogram:mean 0
scalar SimpleRREQ.sender.wlan[0].radio bitErrorRate:histogram:stddev 0
scalar SimpleRREQ.sender.wlan[0].radio bitErrorRate:histogram:min 0
scalar SimpleRREQ.sender.wlan[0].radio bitErrorRate:histogram:max 0
scalar SimpleRREQ.sender.wlan[0].radio bitErrorRate:histogram:numbins 50
scalar SimpleRREQ.sender.wlan[0].radio bitErrorRate:histogram:rangemin -0.5
scalar SimpleRREQ.sender.wlan[0].radio bitErrorRate:histogram:rangemax 0.5
scalar SimpleRREQ.sender.wlan[0].radio bitErrorRate:histogram:underflows 0
scalar SimpleRREQ.sender.wlan[0].radio bitErrorRate:histogram:overflows 0
scalar SimpleRREQ.sender.wlan[0].radio symbolErrorRate:histogram:count 198
scalar SimpleRREQ.sender.wlan[0].radio symbolErrorRate:histogram:sumweights 198
scalar SimpleRREQ.sender.wlan[0].radio symbolErrorRate:histogram:mean 0
scalar SimpleRREQ.sender.wlan[0].radio symbolErrorRate:histogram:stddev 0
scalar SimpleRREQ.sender.wlan[0].radio symbolErrorRate:histogram:min 0
scalar SimpleRREQ.sender.wlan[0].radio symbolErrorRate:histogram:max 0
scalar SimpleRREQ.sender.wlan[0].radio symbolErrorRate:histogram:numbins 50
scalar SimpleRREQ.sender.wlan[0].radio symbolErrorRate:histogram:rangemin -0.5
scalar SimpleRREQ.sender.wlan[0].radio symbolErrorRate:histogram:rangemax 0.5
scalar SimpleRREQ.sender.wlan[0].radio symbolErrorRate:histogram:underflows 0
scalar SimpleRREQ.sender.wlan[0].radio symbolErrorRate:histogram:overflows 0
scalar SimpleRREQ.sender.app[0] rtt:histogram:count 97
scalar SimpleRREQ.sender.app[0] rtt:histogram:sumweights 97
scalar SimpleRREQ.sender.app[0] rtt:histogram:mean 0.0020415753339278367
scalar SimpleRREQ.sender.app[0] rtt:histogram:stddev 0.001333540250383631
scalar SimpleRREQ.sender.app[0] rtt:histogram:min 0.001906174836
scalar SimpleRREQ.sender.app[0] rtt:histogram:max 0.015040023135
scalar SimpleRREQ.sender.app[0] rtt:histogram:numbins 92
scalar SimpleRREQ.sender.app[0] rtt:histogram:rangemin 0
scalar SimpleRREQ.sender.app[0] rtt:histogram:rangemax 0.0184
scalar SimpleRREQ.sender.app[0] rtt:histogram:underflows 0
scalar SimpleRREQ.sender.app[0] rtt:histogram:overflows 0
scalar SimpleRREQ.intermediateNode.wlan[0].queue queueingTime:histogram:count 198
scalar SimpleRREQ.intermediateNode.wlan[0].queue queueingTime:histogram:sumweights 198
scalar SimpleRREQ.intermediateNode.wlan[0].queue queueingTime:histogram:mean 0
scalar SimpleRREQ.intermediateNode.wlan[0].queue queueingTime:histogram:stddev 0
scalar SimpleRREQ.intermediateNode.wlan[0].queue queueingTime:histogram:min 0
scalar SimpleRREQ.intermediateNode.wlan[0].queue queueingTime:histogram:max 0
scalar SimpleRREQ.intermediateNode.wlan[0].queue queueingTime:histogram:numbins 50
scalar SimpleRREQ.intermediateNode.wlan[0].queue queueingTime:histogram:rangemin -0.5
scalar SimpleRREQ.intermediateNode.wlan[0].queue queueingTime:histogram:rangemax 0.5
scalar SimpleRREQ.intermediateNode.wlan[0].queue queueingTime:histogram:underflows 0
scalar SimpleRREQ.intermediateNode.wlan[0].queue queueingTime:histogram:overflows 0
scalar SimpleRREQ.intermediateNode.wlan[0].queue outgoingPacketLengths:histogram:count 198
scalar SimpleRREQ.intermediateNode.wlan[0].queue outgoingPacketLengths:histogram:sumweights 198
scalar SimpleRREQ.intermediateNode.wlan[0].queue outgoingPacketLengths:histogram:mean 664.72727272727275
scalar SimpleRREQ.intermediateNode.wlan[0].queue outgoingPacketLengths:histogram:stddev 52.327321663966259
scalar SimpleRREQ.intermediateNode.wlan[0].queue outgoingPacketLengths:histogram:min 224
scalar SimpleRREQ.intermediateNode.wlan[0].queue outgoingPacketLengths:histogram:max 672
scalar SimpleRREQ.intermediateNode.wlan[0].queue outgoingPacketLengths:histogram:numbins 68
scalar SimpleRREQ.intermediateNode.wlan[0].queue outgoingPacketLengths:histogram:rangemin 110
scalar SimpleRREQ.intermediateNode.wlan[0].queue outgoingPacketLengths:histogram:rangemax 790
scalar SimpleRREQ.intermediateNode.wlan[0].queue outgoingPacketLengths:histogram:underflows 0
scalar SimpleRREQ.intermediateNode.wlan[0].queue outgoingPacketLengths:histogram:overflows 0
scalar SimpleRREQ.intermediateNode.wlan[0].queue flowQueueingTime:histogram:count 0
scalar SimpleRREQ.intermediateNode.wlan[0].queue flowQueueingTime:histogram:sumweights 0
scalar SimpleRREQ.intermediateNode.wlan[0].queue flowQueueingTime:histogram:mean -nan
scalar SimpleRREQ.intermediateNode.wlan[0].queue flowQueueingTime:histogram:stddev nan
scalar SimpleRREQ.intermediateNode.wlan[0].queue flowQueueingTime:histogram:min nan
scalar SimpleRREQ.intermediateNode.wlan[0].queue flowQueueingTime:histogram:max nan
scalar SimpleRREQ.intermediateNode.wlan[0].queue flowQueueingTime:histogram:numbins 1
scalar SimpleRREQ.intermediateNode.wlan[0].queue flowQueueingTime:histogram:rangemin 0
scalar SimpleRREQ.intermediateNode.wlan[0].queue flowQueueingTime:histogram:rangemax 1
scalar SimpleRREQ.intermediateNode.wlan[0].queue flowQueueingTime:histogram:underflows 0
scalar SimpleRREQ.intermediateNode.wlan[0].queue flowQueueingTime:histogram:overflows 0
scalar SimpleRREQ.intermediateNode.wlan[0].queue incomingPacketLengths:histogram:count 198
scalar SimpleRREQ.intermediateNode.wlan[0].queue incomingPacketLengths:histogram:sumweights 198
scalar SimpleRREQ.intermediateNode.wlan[0].queue incomingPacketLengths:histogram:mean 664.72727272727275
scalar SimpleRREQ.intermediateNode.wlan[0].queue incomingPacketLengths:histogram:stddev 52.327321663966259
scalar SimpleRREQ.intermediateNode.wlan[0].queue incomingPacketLengths:histogram:min 224
scalar SimpleRREQ.intermediateNode.wlan[0].queue incomingPacketLengths:histogram:max 672
scalar SimpleRREQ.intermediateNode.wlan[0].queue incomingPacketLengths:histogram:numbins 68
scalar SimpleRREQ.intermediateNode.wlan[0].queue incomingPacketLengths:histogram:rangemin 110
scalar SimpleRREQ.intermediateNode.wlan[0].queue incomingPacketLengths:histogram:rangemax 790
scalar SimpleRREQ.intermediateNode.wlan[0].queue incomingPacketLengths:histogram:underflows 0
scalar SimpleRREQ.intermediateNode.wlan[0].queue incomingPacketLengths:histogram:overflows 0
scalar SimpleRREQ.intermediateNode.wlan[0].radio minSnir:histogram:count 198
scalar SimpleRREQ.intermediateNode.wlan[0].radio minSnir:histogram:sumweights 198
scalar SimpleRREQ.intermediateNode.wlan[0].radio minSnir:histogram:mean inf
scalar SimpleRREQ.intermediateNode.wlan[0].radio minSnir:histogram:stddev 0
scalar SimpleRREQ.intermediateNode.wlan[0].radio minSnir:histogram:min inf
scalar SimpleRREQ.intermediateNode.wlan[0].radio minSnir:histogram:max inf
scalar SimpleRREQ.intermediateNode.wlan[0].radio minSnir:histogram:numbins 1
scalar SimpleRREQ.intermediateNode.wlan[0].radio minSnir:histogram:rangemin 0
scalar SimpleRREQ.intermediateNode.wlan[0].radio minSnir:histogram:rangemax 1
scalar SimpleRREQ.intermediateNode.wlan[0].radio minSnir:histogram:underflows 0
scalar SimpleRREQ.intermediateNode.wlan[0].radio minSnir:histogram:overflows 198
scalar SimpleRREQ.intermediateNode.wlan[0].radio packetErrorRate:histogram:count 198
scalar SimpleRREQ.intermediateNode.wlan[0].radio packetErrorRate:histogram:sumweights 198
scalar SimpleRREQ.intermediateNode.wlan[0].radio packetErrorRate:histogram:mean 0
scalar SimpleRREQ.intermediateNode.wlan[0].radio packetErrorRate:histogram:stddev 0
scalar SimpleRREQ.intermediateNode.wlan[0].radio packetErrorRate:histogram:min 0
scalar SimpleRREQ.intermediateNode.wlan[0].radio packetErrorRate:histogram:max 0
scalar SimpleRREQ.intermediateNode.wlan[0].radio packetErrorRate:histogram:numbins 50
scalar SimpleRREQ.intermediateNode.wlan[0].radio packetErrorRate:histogram:rangemin -0.5
scalar SimpleRREQ.intermediateNode.wlan[0].radio packetErrorRate:histogram:rangemax 0.5
scalar SimpleRREQ.intermediateNode.wlan[0].radio packetErrorRate:histogram:underflows 0
scalar SimpleRREQ.intermediateNode.wlan[0].radio packetErrorRate:histogram:overflows 0
scalar SimpleRREQ.intermediateNode.wlan[0].radio bitErrorRate:histogram:count 198
scalar SimpleRREQ.intermediateNode.wlan[0].radio bitErrorRate:histogram:sumweights 198
scalar SimpleRREQ.intermediateNode.wlan[0].radio bitErrorRate:histogram:mean 0
scalar SimpleRREQ.intermediateNode.wlan[0].radio bitErrorRate:histogram:stddev 0
scalar SimpleRREQ.intermediateNode.wlan[0].radio bitErrorRate:histogram:min 0
scalar SimpleRREQ.intermediateNode.wlan[0].radio bitErrorRate:histogram:max 0
scalar SimpleRREQ.intermediateNode.wlan[0].radio bitErrorRate:histogram:numbins 50
scalar SimpleRREQ.intermediateNode.wlan[0].radio bitErrorRate:histogram:rangemin -0.5
scalar SimpleRREQ.intermediateNode.wlan[0].radio bitErrorRate:histogram:rangemax 0.5
scalar SimpleRREQ.intermediateNode.wlan[0].radio bitErrorRate:histogram:underflows 0
scalar SimpleRREQ.intermediateNode.wlan[0].radio bitErrorRate:histogram:overflows 0
scalar SimpleRREQ.intermediateNode.wlan[0].radio symbolErrorRate:histogram:count 198
scalar SimpleRREQ.intermediateNode.wlan[0].radio symbolErrorRate:histogram:sumweights 198
scalar SimpleRREQ.intermediateNode.wlan[0].radio symbolErrorRate:histogram:mean 0
scalar SimpleRREQ.intermediateNode.wlan[0].radio symbolErrorRate:histogram:stddev 0
scalar SimpleRREQ.intermediateNode.wlan[0].radio symbolErrorRate:histogram:min 0
scalar SimpleRREQ.intermediateNode.wlan[0].radio symbolErrorRate:histogram:max 0
scalar SimpleRREQ.intermediateNode.wlan[0].radio symbolErrorRate:histogram:numbins 50
scalar SimpleRREQ.intermediateNode.wlan[0].radio symbolErrorRate:histogram:rangemin -0.5
scalar SimpleRREQ.intermediateNode.wlan[0].radio symbolErrorRate:histogram:rangemax 0.5
scalar SimpleRREQ.intermediateNode.wlan[0].radio symbolErrorRate:histogram:underflows 0
scalar SimpleRREQ.intermediateNode.wlan[0].radio symbolErrorRate:histogram:overflows 0
scalar SimpleRREQ.receiver.wlan[0].queue queueingTime:histogram:count 99
scalar SimpleRREQ.receiver.wlan[0].queue queueingTime:histogram:sumweights 99
scalar SimpleRREQ.receiver.wlan[0].queue queueingTime:histogram:mean 0
scalar SimpleRREQ.receiver.wlan[0].queue queueingTime:histogram:stddev 0
scalar SimpleRREQ.receiver.wlan[0].queue queueingTime:histogram:min 0
scalar SimpleRREQ.receiver.wlan[0].queue queueingTime:histogram:max 0
scalar SimpleRREQ.receiver.wlan[0].queue queueingTime:histogram:numbins 50
scalar SimpleRREQ.receiver.wlan[0].queue queueingTime:histogram:rangemin -0.5
scalar SimpleRREQ.receiver.wlan[0].queue queueingTime:histogram:rangemax 0.5
scalar SimpleRREQ.receiver.wlan[0].queue queueingTime:histogram:underflows 0
scalar SimpleRREQ.receiver.wlan[0].queue queueingTime:histogram:overflows 0
scalar SimpleRREQ.receiver.wlan[0].queue outgoingPacketLengths:histogram:count 99
scalar SimpleRREQ.receiver.wlan[0].queue outgoingPacketLengths:histogram:sumweights 99
scalar SimpleRREQ.receiver.wlan[0].queue outgoingPacketLengths:histogram:mean 664.56565656565658
scalar SimpleRREQ.receiver.wlan[0].queue outgoingPacketLengths:histogram:stddev 53.277893262908847
scalar SimpleRREQ.receiver.wlan[0].queue outgoingPacketLengths:histogram:min 224
scalar SimpleRREQ.receiver.wlan[0].queue outgoingPacketLengths:histogram:max 672
scalar SimpleRREQ.receiver.wlan[0].queue outgoingPacketLengths:histogram:numbins 68
scalar SimpleRREQ.receiver.wlan[0].queue outgoingPacketLengths:histogram:rangemin 110
scalar SimpleRREQ.receiver.wlan[0].queue outgoingPacketLengths:histogram:rangemax 790
scalar SimpleRREQ.receiver.wlan[0].queue outgoingPacketLengths:histogram:underflows 0
scalar SimpleRREQ.receiver.wlan[0].queue outgoingPacketLengths:histogram:overflows 0
scalar SimpleRREQ.receiver.wlan[0].queue flowQueueingTime:histogram:count 0
scalar SimpleRREQ.receiver.wlan[0].queue flowQueueingTime:histogram:sumweights 0
scalar SimpleRREQ.receiver.wlan[0].queue flowQueueingTime:histogram:mean -nan
scalar SimpleRREQ.receiver.wlan[0].queue flowQueueingTime:histogram:stddev nan
scalar SimpleRREQ.receiver.wlan[0].queue flowQueueingTime:histogram:min nan
scalar SimpleRREQ.receiver.wlan[0].queue flowQueueingTime:histogram:max nan
scalar SimpleRREQ.receiver.wlan[0].queue flowQueueingTime:histogram:numbins 1
scalar SimpleRREQ.receiver.wlan[0].queue flowQueueingTime:histogram:rangemin 0
scalar SimpleRREQ.receiver.wlan[0].queue flowQueueingTime:histogram:rangemax 1
scalar SimpleRREQ.receiver.wlan[0].queue flowQueueingTime:histogram:underflows 0
scalar SimpleRREQ.receiver.wlan[0].queue flowQueueingTime:histogram:overflows 0
scalar SimpleRREQ.receiver.wlan[0].queue incomingPacketLengths:histogram:count 99
scalar SimpleRREQ.receiver.wlan[0].queue incomingPacketLengths:histogram:sumweights 99
scalar SimpleRREQ.receiver.wlan[0].queue incomingPacketLengths:histogram:mean 664.56565656565658
scalar SimpleRREQ.receiver.wlan[0].queue incomingPacketLengths:histogram:stddev 53.277893262908847
scalar SimpleRREQ.receiver.wlan[0].queue incomingPacketLengths:histogram:min 224
scalar SimpleRREQ.receiver.wlan[0].queue incomingPacketLengths:histogram:max 672
scalar SimpleRREQ.receiver.wlan[0].queue incomingPacketLengths:histogram:numbins 68
scalar SimpleRREQ.receiver.wlan[0].queue incomingPacketLengths:histogram:rangemin 110
scalar SimpleRREQ.receiver.wlan[0].queue incomingPacketLengths:histogram:rangemax 790
scalar SimpleRREQ.receiver.wlan[0].queue incomingPacketLengths:histogram:underflows 0
scalar SimpleRREQ.receiver.wlan[0].queue incomingPacketLengths:histogram:overflows 0
scalar SimpleRREQ.receiver.wlan[0].radio minSnir:histogram:count 198
scalar SimpleRREQ.receiver.wlan[0].radio minSnir:histogram:sumweights 198
scalar SimpleRREQ.receiver.wlan[0].radio minSnir:histogram:mean inf
scalar SimpleRREQ.receiver.wlan[0].radio minSnir:histogram:stddev 0
scalar SimpleRREQ.receiver.wlan[0].radio minSnir:histogram:min inf
scalar SimpleRREQ.receiver.wlan[0].radio minSnir:histogram:max inf
scalar SimpleRREQ.receiver.wlan[0].radio minSnir:histogram:numbins 1
scalar SimpleRREQ.receiver.wlan[0].radio minSnir:histogram:rangemin 0
scalar SimpleRREQ.receiver.wlan[0].radio minSnir:histogram:rangemax 1
scalar SimpleRREQ.receiver.wlan[0].radio minSnir:histogram:underflows 0
scalar SimpleRREQ.receiver.wlan[0].radio minSnir:histogram:overflows 198
scalar SimpleRREQ.receiver.wlan[0].radio packetErrorRate:histogram:count 198
scalar SimpleRREQ.receiver.wlan[0].radio packetErrorRate:histogram:sumweights 198
scalar SimpleRREQ.receiver.wlan[0].radio packetErrorRate:histogram:mean 0
scalar SimpleRREQ.receiver.wlan[0].radio packetErrorRate:histogram:stddev 0
scalar SimpleRREQ.receiver.wlan[0].radio packetErrorRate:histogram:min 0
scalar SimpleRREQ.receiver.wlan[0].radio packetErrorRate:histogram:max 0
scalar SimpleRREQ.receiver.wlan[0].radio packetErrorRate:histogram:numbins 50
scalar SimpleRREQ.receiver.wlan[0].radio packetErrorRate:histogram:rangemin -0.5
scalar SimpleRREQ.receiver.wlan[0].radio packetErrorRate:histogram:rangemax 0.5
scalar SimpleRREQ.receiver.wlan[0].radio packetErrorRate:histogram:underflows 0
scalar SimpleRREQ.receiver.wlan[0].radio packetErrorRate:histogram:overflows 0
scalar SimpleRREQ.receiver.wlan[0].radio bitErrorRate:histogram:count 198
scalar SimpleRREQ.receiver.wlan[0].radio bitErrorRate:histogram:sumweights 198
scalar SimpleRREQ.receiver.wlan[0].radio bitErrorRate:histogram:mean 0
scalar SimpleRREQ.receiver.wlan[0].radio bitErrorRate:histogram:stddev 0
scalar SimpleRREQ.receiver.wlan[0].radio bitErrorRate:histogram:min 0
scalar SimpleRREQ.receiver.wlan[0].radio bitErrorRate:histogram:max 0
scalar SimpleRREQ.receiver.wlan[0].radio bitErrorRate:histogram:numbins 50
scalar SimpleRREQ.receiver.wlan[0].radio bitErrorRate:histogram:rangemin -0.5
scalar SimpleRREQ.receiver.wlan[0].radio bitErrorRate:histogram:rangemax 0.5
scalar SimpleRREQ.receiver.wlan[0].radio bitErrorRate:histogram:underflows 0
scalar SimpleRREQ.receiver.wlan[0].radio bitErrorRate:histogram:overflows 0
scalar SimpleRREQ.receiver.wlan[0].radio symbolErrorRate:histogram:count 198
scalar SimpleRREQ.receiver.wlan[0].radio symbolErrorRate:histogram:sumweights 198
scalar SimpleRREQ.receiver.wlan[0].radio symbolErrorRate:histogram:mean 0
scalar SimpleRREQ.receiver.wlan[0].radio symbolErrorRate:histogram:stddev 0
scalar SimpleRREQ.receiver.wlan[0].radio symbolErrorRate:histogram:min 0
scalar SimpleRREQ.receiver.wlan[0].radio symbolErrorRate:histogram:max 0
scalar SimpleRREQ.receiver.wlan[0].radio symbolErrorRate:histogram:numbins 50
scalar SimpleRREQ.receiver.wlan[0].radio symbolErrorRate:histogram:rangemin -0.5
scalar SimpleRREQ.receiver.wlan[0].radio symbolErrorRate:histogram:rangemax 0.5
scalar SimpleRREQ.receiver.wlan[0].radio symbolErrorRate:histogram:underflows 0
scalar SimpleRREQ.receiver.wlan[0].radio symbolErrorRate:histogram:overflows 0
statistic SimpleRREQ.sender.wlan[0].queue queueingTime:histogram
field count 99
field mean 0
field stddev 0
field min 0
field max 0
field sum 0
field sqrsum 0
bin	-inf	0
bin	-0.5	0
bin	-0.47999999999999998	0
bin	-0.46000000000000002	0
bin	-0.44	0
bin	-0.41999999999999998	0
bin	-0.40000000000000002	0
bin	-0.38	0
bin	-0.35999999999999999	0
bin	-0.33999999999999997	0
bin	-0.32000000000000001	0
bin	-0.29999999999999999	0
bin	-0.28000000000000003	0
bin	-0.26000000000000001	0
bin	-0.23999999999999999	0
bin	-0.21999999999999997	0
bin	-0.20000000000000001	0
bin	-0.17999999999999999	0
bin	-0.15999999999999998	0
bin	-0.14000000000000001	0
bin	-0.12	0
bin	-0.099999999999999978	0
bin	-0.080000000000000016	0
bin	-0.059999999999999998	0
bin	-0.03999999999999998	0
bin	-0.020000000000000018	0
bin	0	99
bin	0.020000000000000018	0
bin	0.040000000000000036	0
bin	0.060000000000000053	0
bin	0.07999999999999996	0
bin	0.099999999999999978	0
bin	0.12	0
bin	0.14000000000000001	0
bin	0.16000000000000003	0
bin	0.18000000000000005	0
bin	0.20000000000000007	0
bin	0.21999999999999997	0
bin	0.23999999999999999	0
bin	0.26000000000000001	0
bin	0.28000000000000003	0
bin	0.30000000000000004	0
bin	0.32000000000000006	0
bin	0.33999999999999997	0
bin	0.35999999999999999	0
bin	0.38	0
bin	0.40000000000000002	0
bin	0.42000000000000004	0
bin	0.44000000000000006	0
bin	0.45999999999999996	0
bin	0.47999999999999998	0
bin	0.5	0
statistic SimpleRREQ.sender.wlan[0].queue outgoingPacketLengths:histogram
field count 99
field mean 664.88888888888891
field stddev 51.629940864296728
field min 224
field max 672
field sum 65824
field sqrsum 44026880
bin	-inf	0
bin	110	0
bin	120	0
bin	130	0
bin	140	0
bin	150	0
bin	160	0
bin	170	0
bin	180	0
bin	190	0
bin	200	0
bin	210	0
bin	220	1
bin	230	0
bin	240	0
bin	250	0
bin	260	0
bin	270	0
bin	280	0
bin	290	0
bin	300	0
bin	310	0
bin	320	0
bin	330	0
bin	340	0
bin	350	0
bin	360	0
bin	370	0
bin	380	0
bin	390	0
bin	400	0
bin	410	1
bin	420	0
bin	430	0
bin	440	0
bin	450	0
bin	460	0
bin	470	0
bin	480	0
bin	490	0
bin	500	0
bin	510	0
bin	520	0
bin	530	0
bin	540	0
bin	550	0
bin	560	0
bin	570	0
bin	580	0
bin	590	0
bin	600	0
bin	610	0
bin	620	0
bin	630	0
bin	640	0
bin	650	0
bin	660	0
bin	670	97
bin	680	0
bin	690	0
bin	700	0
bin	710	0
bin	720	0
bin	730	0
bin	740	0
bin	750	0
bin	760	0
bin	770	0
bin	780	0
bin	790	0
statistic SimpleRREQ.sender.wlan[0].queue flowQueueingTime:histogram
field count 0
field mean -nan
field stddev nan
field min nan
field max nan
field sum 0
field sqrsum 0
bin	-inf	0
bin	0	0
bin	1	0
statistic SimpleRREQ.sender.wlan[0].queue incomingPacketLengths:histogram
field count 99
field mean 664.88888888888891
field stddev 51.629940864296728
field min 224
field max 672
field sum 65824
field sqrsum 44026880
bin	-inf	0
bin	110	0
bin	120	0
bin	130	0
bin	140	0
bin	150	0
bin	160	0
bin	170	0
bin	180	0
bin	190	0
bin	200	0
bin	210	0
bin	220	1
bin	230	0
bin	240	0
bin	250	0
bin	260	0
bin	270	0
bin	280	0
bin	290	0
bin	300	0
bin	310	0
bin	320	0
bin	330	0
bin	340	0
bin	350	0
bin	360	0
bin	370	0
bin	380	0
bin	390	0
bin	400	0
bin	410	1
bin	420	0
bin	430	0
bin	440	0
bin	450	0
bin	460	0
bin	470	0
bin	480	0
bin	490	0
bin	500	0
bin	510	0
bin	520	0
bin	530	0
bin	540	0
bin	550	0
bin	560	0
bin	570	0
bin	580	0
bin	590	0
bin	600	0
bin	610	0
bin	620	0
bin	630	0
bin	640	0
bin	650	0
bin	660	0
bin	670	97
bin	680	0
bin	690	0
bin	700	0
bin	710	0
bin	720	0
bin	730	0
bin	740	0
bin	750	0
bin	760	0
bin	770	0
bin	780	0
bin	790	0
statistic SimpleRREQ.sender.wlan[0].radio minSnir:histogram
field count 198
field mean inf
field stddev 0
field min inf
field max inf
field sum inf
field sqrsum inf
bin	-inf	0
bin	0	0
bin	1	198
statistic SimpleRREQ.sender.wlan[0].radio packetErrorRate:histogram
field count 198
field mean 0
field stddev 0
field min 0
field max 0
field sum 0
field sqrsum 0
bin	-inf	0
bin	-0.5	0
bin	-0.47999999999999998	0
bin	-0.46000000000000002	0
bin	-0.44	0
bin	-0.41999999999999998	0
bin	-0.40000000000000002	0
bin	-0.38	0
bin	-0.35999999999999999	0
bin	-0.33999999999999997	0
bin	-0.32000000000000001	0
bin	-0.29999999999999999	0
bin	-0.28000000000000003	0
bin	-0.26000000000000001	0
bin	-0.23999999999999999	0
bin	-0.21999999999999997	0
bin	-0.20000000000000001	0
bin	-0.17999999999999999	0
bin	-0.15999999999999998	0
bin	-0.14000000000000001	0
bin	-0.12	0
bin	-0.099999999999999978	0
bin	-0.080000000000000016	0
bin	-0.059999999999999998	0
bin	-0.03999999999999998	0
bin	-0.020000000000000018	0
bin	0	198
bin	0.020000000000000018	0
bin	0.040000000000000036	0
bin	0.060000000000000053	0
bin	0.07999999999999996	0
bin	0.099999999999999978	0
bin	0.12	0
bin	0.14000000000000001	0
bin	0.16000000000000003	0
bin	0.18000000000000005	0
bin	0.20000000000000007	0
bin	0.21999999999999997	0
bin	0.23999999999999999	0
bin	0.26000000000000001	0
bin	0.28000000000000003	0
bin	0.30000000000000004	0
bin	0.32000000000000006	0
bin	0.33999999999999997	0
bin	0.35999999999999999	0
bin	0.38	0
bin	0.40000000000000002	0
bin	0.42000000000000004	0
bin	0.44000000000000006	0
bin	0.45999999999999996	0
bin	0.47999999999999998	0
bin	0.5	0
statistic SimpleRREQ.sender.wlan[0].radio bitErrorRate:histogram
field count 198
field mean 0
field stddev 0
field min 0
field max 0
field sum 0
field sqrsum 0
bin	-inf	0
bin	-0.5	0
bin	-0.47999999999999998	0
bin	-0.46000000000000002	0
bin	-0.44	0
bin	-0.41999999999999998	0
bin	-0.40000000000000002	0
bin	-0.38	0
bin	-0.35999999999999999	0
bin	-0.33999999999999997	0
bin	-0.32000000000000001	0
bin	-0.29999999999999999	0
bin	-0.28000000000000003	0
bin	-0.26000000000000001	0
bin	-0.23999999999999999	0
bin	-0.21999999999999997	0
bin	-0.20000000000000001	0
bin	-0.17999999999999999	0
bin	-0.15999999999999998	0
bin	-0.14000000000000001	0
bin	-0.12	0
bin	-0.099999999999999978	0
bin	-0.080000000000000016	0
bin	-0.059999999999999998	0
bin	-0.03999999999999998	0
bin	-0.020000000000000018	0
bin	0	198
bin	0.020000000000000018	0
bin	0.040000000000000036	0
bin	0.060000000000000053	0
bin	0.07999999999999996	0
bin	0.099999999999999978	0
bin	0.12	0
bin	0.14000000000000001	0
bin	0.16000000000000003	0
bin	0.18000000000000005	0
bin	0.20000000000000007	0
bin	0.21999999999999997	0
bin	0.23999999999999999	0
bin	0.26000000000000001	0
bin	0.28000000000000003	0
bin	0.30000000000000004	0
bin	0.32000000000000006	0
bin	0.33999999999999997	0
bin	0.35999999999999999	0
bin	0.38	0
bin	0.40000000000000002	0
bin	0.42000000000000004	0
bin	0.44000000000000006	0
bin	0.45999999999999996	0
bin	0.47999999999999998	0
bin	0.5	0
statistic SimpleRREQ.sender.wlan[0].radio symbolErrorRate:histogram
field count 198
field mean 0
field stddev 0
field min 0
field max 0
field sum 0
field sqrsum 0
bin	-inf	0
bin	-0.5	0
bin	-0.47999999999999998	0
bin	-0.46000000000000002	0
bin	-0.44	0
bin	-0.41999999999999998	0
bin	-0.40000000000000002	0
bin	-0.38	0
bin	-0.35999999999999999	0
bin	-0.33999999999999997	0
bin	-0.32000000000000001	0
bin	-0.29999999999999999	0
bin	-0.28000000000000003	0
bin	-0.26000000000000001	0
bin	-0.23999999999999999	0
bin	-0.21999999999999997	0
bin	-0.20000000000000001	0
bin	-0.17999999999999999	0
bin	-0.15999999999999998	0
bin	-0.14000000000000001	0
bin	-0.12	0
bin	-0.099999999999999978	0
bin	-0.080000000000000016	0
bin	-0.059999999999999998	0
bin	-0.03999999999999998	0
bin	-0.020000000000000018	0
bin	0	198
bin	0.020000000000000018	0
bin	0.040000000000000036	0
bin	0.060000000000000053	0
bin	0.07999999999999996	0
bin	0.099999999999999978	0
bin	0.12	0
bin	0.14000000000000001	0
bin	0.16000000000000003	0
bin	0.18000000000000005	0
bin	0.20000000000000007	0
bin	0.21999999999999997	0
bin	0.23999999999999999	0
bin	0.26000000000000001	0
bin	0.28000000000000003	0
bin	0.30000000000000004	0
bin	0.32000000000000006	0
bin	0.33999999999999997	0
bin	0.35999999999999999	0
bin	0.38	0
bin	0.40000000000000002	0
bin	0.42000000000000004	0
bin	0.44000000000000006	0
bin	0.45999999999999996	0
bin	0.47999999999999998	0
bin	0.5	0
statistic SimpleRREQ.sender.app[0] rtt:histogram
field count 97
field mean 0.0020415753339278367
field stddev 0.001333540250383631
field min 0.001906174836
field max 0.015040023135
field sum 0.19803280739100015
field sqrsum 0.00057501853641969886
bin	-inf	0
bin	0	0
bin	0.00020000000000000001	0
bin	0.00040000000000000002	0
bin	0.00060000000000000006	0
bin	0.00080000000000000004	0
bin	0.001	0
bin	0.0012000000000000001	0
bin	0.0014	0
bin	0.0016000000000000001	0
bin	0.0018000000000000002	96
bin	0.002	0
bin	0.0022000000000000001	0
bin	0.0024000000000000002	0
bin	0.0026000000000000003	0
bin	0.0028	0
bin	0.0030000000000000001	0
bin	0.0032000000000000002	0
bin	0.0034000000000000002	0
bin	0.0036000000000000003	0
bin	0.0038	0
bin	0.0040000000000000001	0
bin	0.0042000000000000006	0
bin	0.0044000000000000003	0
bin	0.0045999999999999999	0
bin	0.0048000000000000004	0
bin	0.0050000000000000001	0
bin	0.0052000000000000006	0
bin	0.0054000000000000003	0
bin	0.0055999999999999999	0
bin	0.0058000000000000005	0
bin	0.0060000000000000001	0
bin	0.0062000000000000006	0
bin	0.0064000000000000003	0
bin	0.0066	0
bin	0.0068000000000000005	0
bin	0.0070000000000000001	0
bin	0.0072000000000000007	0
bin	0.0074000000000000003	0
bin	0.0076	0
bin	0.0078000000000000005	0
bin	0.0080000000000000002	0
bin	0.0082000000000000007	0
bin	0.0084000000000000012	0
bin	0.0086	0
bin	0.0088000000000000005	0
bin	0.0090000000000000011	0
bin	0.0091999999999999998	0
bin	0.0094000000000000004	0
bin	0.0096000000000000009	0
bin	0.0097999999999999997	0
bin	0.01	0
bin	0.010200000000000001	0
bin	0.010400000000000001	0
bin	0.0106	0
bin	0.010800000000000001	0
bin	0.011000000000000001	0
bin	0.0112	0
bin	0.0114	0
bin	0.011600000000000001	0
bin	0.0118	0
bin	0.012	0
bin	0.012200000000000001	0
bin	0.012400000000000001	0
bin	0.0126	0
bin	0.012800000000000001	0
bin	0.013000000000000001	0
bin	0.0132	0
bin	0.0134	0
bin	0.013600000000000001	0
bin	0.013800000000000002	0
bin	0.014	0
bin	0.014200000000000001	0
bin	0.014400000000000001	0
bin	0.0146	0
bin	0.014800000000000001	0
bin	0.015000000000000001	1
bin	0.0152	0
bin	0.0154	0
bin	0.015600000000000001	0
bin	0.015800000000000002	0
bin	0.016	0
bin	0.016199999999999999	0
bin	0.016400000000000001	0
bin	0.0166	0
bin	0.016800000000000002	0
bin	0.017000000000000001	0
bin	0.0172	0
bin	0.017400000000000002	0
bin	0.017600000000000001	0
bin	0.0178	0
bin	0.018000000000000002	0
bin	0.018200000000000001	0
bin	0.0184	0
statistic SimpleRREQ.intermediateNode.wlan[0].queue queueingTime:histogram
field count 198
field mean 0
field stddev 0
field min 0
field max 0
field sum 0
field sqrsum 0
bin	-inf	0
bin	-0.5	0
bin	-0.47999999999999998	0
bin	-0.46000000000000002	0
bin	-0.44	0
bin	-0.41999999999999998	0
bin	-0.40000000000000002	0
bin	-0.38	0
bin	-0.35999999999999999	0
bin	-0.33999999999999997	0
bin	-0.32000000000000001	0
bin	-0.29999999999999999	0
bin	-0.28000000000000003	0
bin	-0.26000000000000001	0
bin	-0.23999999999999999	0
bin	-0.21999999999999997	0
bin	-0.20000000000000001	0
bin	-0.17999999999999999	0
bin	-0.15999999999999998	0
bin	-0.14000000000000001	0
bin	-0.12	0
bin	-0.099999999999999978	0
bin	-0.080000000000000016	0
bin	-0.059999999999999998	0
bin	-0.03999999999999998	0
bin	-0.020000000000000018	0
bin	0	198
bin	0.020000000000000018	0
bin	0.040000000000000036	0
bin	0.060000000000000053	0
bin	0.07999999999999996	0
bin	0.099999999999999978	0
bin	0.12	0
bin	0.14000000000000001	0
bin	0.16000000000000003	0
bin	0.18000000000000005	0
bin	0.20000000000000007	0
bin	0.21999999999999997	0
bin	0.23999999999999999	0
bin	0.26000000000000001	0
bin	0.28000000000000003	0
bin	0.30000000000000004	0
bin	0.32000000000000006	0
bin	0.33999999999999997	0
bin	0.35999999999999999	0
bin	0.38	0
bin	0.40000000000000002	0
bin	0.42000000000000004	0
bin	0.44000000000000006	0
bin	0.45999999999999996	0
bin	0.47999999999999998	0
bin	0.5	0
statistic SimpleRREQ.intermediateNode.wlan[0].queue outgoingPacketLengths:histogram
field count 198
field mean 664.72727272727275
field stddev 52.327321663966259
field min 224
field max 672
field sum 131616
field sqrsum 88028160
bin	-inf	0
bin	110	0
bin	120	0
bin	130	0
bin	140	0
bin	150	0
bin	160	0
bin	170	0
bin	180	0
bin	190	0
bin	200	0
bin	210	0
bin	220	2
bin	230	0
bin	240	0
bin	250	0
bin	260	0
bin	270	0
bin	280	0
bin	290	0
bin	300	0
bin	310	0
bin	320	0
bin	330	0
bin	340	0
bin	350	0
bin	360	0
bin	370	0
bin	380	1
bin	390	0
bin	400	0
bin	410	1
bin	420	0
bin	430	0
bin	440	0
bin	450	0
bin	460	0
bin	470	0
bin	480	0
bin	490	0
bin	500	0
bin	510	0
bin	520	0
bin	530	0
bin	540	0
bin	550	0
bin	560	0
bin	570	0
bin	580	0
bin	590	0
bin	600	0
bin	610	0
bin	620	0
bin	630	0
bin	640	0
bin	650	0
bin	660	0
bin	670	194
bin	680	0
bin	690	0
bin	700	0
bin	710	0
bin	720	0
bin	730	0
bin	740	0
bin	750	0
bin	760	0
bin	770	0
bin	780	0
bin	790	0
statistic SimpleRREQ.intermediateNode.wlan[0].queue flowQueueingTime:histogram
field count 0
field mean -nan
field stddev nan
field min nan
field max nan
field sum 0
field sqrsum 0
bin	-inf	0
bin	0	0
bin	1	0
statistic SimpleRREQ.intermediateNode.wlan[0].queue incomingPacketLengths:histogram
field count 198
field mean 664.72727272727275
field stddev 52.327321663966259
field min 224
field max 672
field sum 131616
field sqrsum 88028160
bin	-inf	0
bin	110	0
bin	120	0
bin	130	0
bin	140	0
bin	150	0
bin	160	0
bin	170	0
bin	180	0
bin	190	0
bin	200	0
bin	210	0
bin	220	2
bin	230	0
bin	240	0
bin	250	0
bin	260	0
bin	270	0
bin	280	0
bin	290	0
bin	300	0
bin	310	0
bin	320	0
bin	330	0
bin	340	0
bin	350	0
bin	360	0
bin	370	0
bin	380	1
bin	390	0
bin	400	0
bin	410	1
bin	420	0
bin	430	0
bin	440	0
bin	450	0
bin	460	0
bin	470	0
bin	480	0
bin	490	0
bin	500	0
bin	510	0
bin	520	0
bin	530	0
bin	540	0
bin	550	0
bin	560	0
bin	570	0
bin	580	0
bin	590	0
bin	600	0
bin	610	0
bin	620	0
bin	630	0
bin	640	0
bin	650	0
bin	660	0
bin	670	194
bin	680	0
bin	690	0
bin	700	0
bin	710	0
bin	720	0
bin	730	0
bin	740	0
bin	750	0
bin	760	0
bin	770	0
bin	780	0
bin	790	0
statistic SimpleRREQ.intermediateNode.wlan[0].radio minSnir:histogram
field count 198
field mean inf
field stddev 0
field min inf
field max inf
field sum inf
field sqrsum inf
bin	-inf	0
bin	0	0
bin	1	198
statistic SimpleRREQ.intermediateNode.wlan[0].radio packetErrorRate:histogram
field count 198
field mean 0
field stddev 0
field min 0
field max 0
field sum 0
field sqrsum 0
bin	-inf	0
bin	-0.5	0
bin	-0.47999999999999998	0
bin	-0.46000000000000002	0
bin	-0.44	0
bin	-0.41999999999999998	0
bin	-0.40000000000000002	0
bin	-0.38	0
bin	-0.35999999999999999	0
bin	-0.33999999999999997	0
bin	-0.32000000000000001	0
bin	-0.29999999999999999	0
bin	-0.28000000000000003	0
bin	-0.26000000000000001	0
bin	-0.23999999999999999	0
bin	-0.21999999999999997	0
bin	-0.20000000000000001	0
bin	-0.17999999999999999	0
bin	-0.15999999999999998	0
bin	-0.14000000000000001	0
bin	-0.12	0
bin	-0.099999999999999978	0
bin	-0.080000000000000016	0
bin	-0.059999999999999998	0
bin	-0.03999999999999998	0
bin	-0.020000000000000018	0
bin	0	198
bin	0.020000000000000018	0
bin	0.040000000000000036	0
bin	0.060000000000000053	0
bin	0.07999999999999996	0
bin	0.099999999999999978	0
bin	0.12	0
bin	0.14000000000000001	0
bin	0.16000000000000003	0
bin	0.18000000000000005	0
bin	0.20000000000000007	0
bin	0.21999999999999997	0
bin	0.23999999999999999	0
bin	0.26000000000000001	0
bin	0.28000000000000003	0
bin	0.30000000000000004	0
bin	0.32000000000000006	0
bin	0.33999999999999997	0
bin	0.35999999999999999	0
bin	0.38	0
bin	0.40000000000000002	0
bin	0.42000000000000004	0
bin	0.44000000000000006	0
bin	0.45999999999999996	0
bin	0.47999999999999998	0
bin	0.5	0
statistic SimpleRREQ.intermediateNode.wlan[0].radio bitErrorRate:histogram
field count 198
field mean 0
field stddev 0
field min 0
field max 0
field sum 0
field sqrsum 0
bin	-inf	0
bin	-0.5	0
bin	-0.47999999999999998	0
bin	-0.46000000000000002	0
bin	-0.44	0
bin	-0.41999999999999998	0
bin	-0.40000000000000002	0
bin	-0.38	0
bin	-0.35999999999999999	0
bin	-0.33999999999999997	0
bin	-0.32000000000000001	0
bin	-0.29999999999999999	0
bin	-0.28000000000000003	0
bin	-0.26000000000000001	0
bin	-0.23999999999999999	0
bin	-0.21999999999999997	0
bin	-0.20000000000000001	0
bin	-0.17999999999999999	0
bin	-0.15999999999999998	0
bin	-0.14000000000000001	0
bin	-0.12	0
bin	-0.099999999999999978	0
bin	-0.080000000000000016	0
bin	-0.059999999999999998	0
bin	-0.03999999999999998	0
bin	-0.020000000000000018	0
bin	0	198
bin	0.020000000000000018	0
bin	0.040000000000000036	0
bin	0.060000000000000053	0
bin	0.07999999999999996	0
bin	0.099999999999999978	0
bin	0.12	0
bin	0.14000000000000001	0
bin	0.16000000000000003	0
bin	0.18000000000000005	0
bin	0.20000000000000007	0
bin	0.21999999999999997	0
bin	0.23999999999999999	0
bin	0.26000000000000001	0
bin	0.28000000000000003	0
bin	0.30000000000000004	0
bin	0.32000000000000006	0
bin	0.33999999999999997	0
bin	0.35999999999999999	0
bin	0.38	0
bin	0.40000000000000002	0
bin	0.42000000000000004	0
bin	0.44000000000000006	0
bin	0.45999999999999996	0
bin	0.47999999999999998	0
bin	0.5	0
statistic SimpleRREQ.intermediateNode.wlan[0].radio symbolErrorRate:histogram
field count 198
field mean 0
field stddev 0
field min 0
field max 0
field sum 0
field sqrsum 0
bin	-inf	0
bin	-0.5	0
bin	-0.47999999999999998	0
bin	-0.46000000000000002	0
bin	-0.44	0
bin	-0.41999999999999998	0
bin	-0.40000000000000002	0
bin	-0.38	0
bin	-0.35999999999999999	0
bin	-0.33999999999999997	0
bin	-0.32000000000000001	0
bin	-0.29999999999999999	0
bin	-0.28000000000000003	0
bin	-0.26000000000000001	0
bin	-0.23999999999999999	0
bin	-0.21999999999999997	0
bin	-0.20000000000000001	0
bin	-0.17999999999999999	0
bin	-0.15999999999999998	0
bin	-0.14000000000000001	0
bin	-0.12	0
bin	-0.099999999999999978	0
bin	-0.080000000000000016	0
bin	-0.059999999999999998	0
bin	-0.03999999999999998	0
bin	-0.020000000000000018	0
bin	0	198
bin	0.020000000000000018	0
bin	0.040000000000000036	0
bin	0.060000000000000053	0
bin	0.07999999999999996	0
bin	0.099999999999999978	0
bin	0.12	0
bin	0.14000000000000001	0
bin	0.16000000000000003	0
bin	0.18000000000000005	0
bin	0.20000000000000007	0
bin	0.21999999999999997	0
bin	0.23999999999999999	0
bin	0.26000000000000001	0
bin	0.28000000000000003	0
bin	0.30000000000000004	0
bin	0.32000000000000006	0
bin	0.33999999999999997	0
bin	0.35999999999999999	0
bin	0.38	0
bin	0.40000000000000002	0
bin	0.42000000000000004	0
bin	0.44000000000000006	0
bin	0.45999999999999996	0
bin	0.47999999999999998	0
bin	0.5	0
statistic SimpleRREQ.receiver.wlan[0].queue queueingTime:histogram
field count 99
field mean 0
field stddev 0
field min 0
field max 0
field sum 0
field sqrsum 0
bin	-inf	0
bin	-0.5	0
bin	-0.47999999999999998	0
bin	-0.46000000000000002	0
bin	-0.44	0
bin	-0.41999999999999998	0
bin	-0.40000000000000002	0
bin	-0.38	0
bin	-0.35999999999999999	0
bin	-0.33999999999999997	0
bin	-0.32000000000000001	0
bin	-0.29999999999999999	0
bin	-0.28000000000000003	0
bin	-0.26000000000000001	0
bin	-0.23999999999999999	0
bin	-0.21999999999999997	0
bin	-0.20000000000000001	0
bin	-0.17999999999999999	0
bin	-0.15999999999999998	0
bin	-0.14000000000000001	0
bin	-0.12	0
bin	-0.099999999999999978	0
bin	-0.080000000000000016	0
bin	-0.059999999999999998	0
bin	-0.03999999999999998	0
bin	-0.020000000000000018	0
bin	0	99
bin	0.020000000000000018	0
bin	0.040000000000000036	0
bin	0.060000000000000053	0
bin	0.07999999999999996	0
bin	0.099999999999999978	0
bin	0.12	0
bin	0.14000000000000001	0
bin	0.16000000000000003	0
bin	0.18000000000000005	0
bin	0.20000000000000007	0
bin	0.21999999999999997	0
bin	0.23999999999999999	0
bin	0.26000000000000001	0
bin	0.28000000000000003	0
bin	0.30000000000000004	0
bin	0.32000000000000006	0
bin	0.33999999999999997	0
bin	0.35999999999999999	0
bin	0.38	0
bin	0.40000000000000002	0
bin	0.42000000000000004	0
bin	0.44000000000000006	0
bin	0.45999999999999996	0
bin	0.47999999999999998	0
bin	0.5	0
statistic SimpleRREQ.receiver.wlan[0].queue outgoingPacketLengths:histogram
field count 99
field mean 664.56565656565658
field stddev 53.277893262908847
field min 224
field max 672
field sum 65792
field sqrsum 44001280
bin	-inf	0
bin	110	0
bin	120	0
bin	130	0
bin	140	0
bin	150	0
bin	160	0
bin	170	0
bin	180	0
bin	190	0
bin	200	0
bin	210	0
bin	220	1
bin	230	0
bin	240	0
bin	250	0
bin	260	0
bin	270	0
bin	280	0
bin	290	0
bin	300	0
bin	310	0
bin	320	0
bin	330	0
bin	340	0
bin	350	0
bin	360	0
bin	370	0
bin	380	1
bin	390	0
bin	400	0
bin	410	0
bin	420	0
bin	430	0
bin	440	0
bin	450	0
bin	460	0
bin	470	0
bin	480	0
bin	490	0
bin	500	0
bin	510	0
bin	520	0
bin	530	0
bin	540	0
bin	550	0
bin	560	0
bin	570	0
bin	580	0
bin	590	0
bin	600	0
bin	610	0
bin	620	0
bin	630	0
bin	640	0
bin	650	0
bin	660	0
bin	670	97
bin	680	0
bin	690	0
bin	700	0
bin	710	0
bin	720	0
bin	730	0
bin	740	0
bin	750	0
bin	760	0
bin	770	0
bin	780	0
bin	790	0
statistic SimpleRREQ.receiver.wlan[0].queue flowQueueingTime:histogram
field count 0
field mean -nan
field stddev nan
field min nan
field max nan
field sum 0
field sqrsum 0
bin	-inf	0
bin	0	0
bin	1	0
statistic SimpleRREQ.receiver.wlan[0].queue incomingPacketLengths:histogram
field count 99
field mean 664.56565656565658
field stddev 53.277893262908847
field min 224
field max 672
field sum 65792
field sqrsum 44001280
bin	-inf	0
bin	110	0
bin	120	0
bin	130	0
bin	140	0
bin	150	0
bin	160	0
bin	170	0
bin	180	0
bin	190	0
bin	200	0
bin	210	0
bin	220	1
bin	230	0
bin	240	0
bin	250	0
bin	260	0
bin	270	0
bin	280	0
bin	290	0
bin	300	0
bin	310	0
bin	320	0
bin	330	0
bin	340	0
bin	350	0
bin	360	0
bin	370	0
bin	380	1
bin	390	0
bin	400	0
bin	410	0
bin	420	0
bin	430	0
bin	440	0
bin	450	0
bin	460	0
bin	470	0
bin	480	0
bin	490	0
bin	500	0
bin	510	0
bin	520	0
bin	530	0
bin	540	0
bin	550	0
bin	560	0
bin	570	0
bin	580	0
bin	590	0
bin	600	0
bin	610	0
bin	620	0
bin	630	0
bin	640	0
bin	650	0
bin	660	0
bin	670	97
bin	680	0
bin	690	0
bin	700	0
bin	710	0
bin	720	0
bin	730	0
bin	740	0
bin	750	0
bin	760	0
bin	770	0
bin	780	0
bin	790	0
statistic SimpleRREQ.receiver.wlan[0].radio minSnir:histogram
field count 198
field mean inf
field stddev 0
field min inf
field max inf
field sum inf
field sqrsum inf
bin	-inf	0
bin	0	0
bin	1	198
statistic SimpleRREQ.receiver.wlan[0].radio packetErrorRate:histogram
field count 198
field mean 0
field stddev 0
field min 0
field max 0
field sum 0
field sqrsum 0
bin	-inf	0
bin	-0.5	0
bin	-0.47999999999999998	0
bin	-0.46000000000000002	0
bin	-0.44	0
bin	-0.41999999999999998	0
bin	-0.40000000000000002	0
bin	-0.38	0
bin	-0.35999999999999999	0
bin	-0.33999999999999997	0
bin	-0.32000000000000001	0
bin	-0.29999999999999999	0
bin	-0.28000000000000003	0
bin	-0.26000000000000001	0
bin	-0.23999999999999999	0
bin	-0.21999999999999997	0
bin	-0.20000000000000001	0
bin	-0.17999999999999999	0
bin	-0.15999999999999998	0
bin	-0.14000000000000001	0
bin	-0.12	0
bin	-0.099999999999999978	0
bin	-0.080000000000000016	0
bin	-0.059999999999999998	0
bin	-0.03999999999999998	0
bin	-0.020000000000000018	0
bin	0	198
bin	0.020000000000000018	0
bin	0.040000000000000036	0
bin	0.060000000000000053	0
bin	0.07999999999999996	0
bin	0.099999999999999978	0
bin	0.12	0
bin	0.14000000000000001	0
bin	0.16000000000000003	0
bin	0.18000000000000005	0
bin	0.20000000000000007	0
bin	0.21999999999999997	0
bin	0.23999999999999999	0
bin	0.26000000000000001	0
bin	0.28000000000000003	0
bin	0.30000000000000004	0
bin	0.32000000000000006	0
bin	0.33999999999999997	0
bin	0.35999999999999999	0
bin	0.38	0
bin	0.40000000000000002	0
bin	0.42000000000000004	0
bin	0.44000000000000006	0
bin	0.45999999999999996	0
bin	0.47999999999999998	0
bin	0.5	0
statistic SimpleRREQ.receiver.wlan[0].radio bitErrorRate:histogram
field count 198
field mean 0
field stddev 0
field min 0
field max 0
field sum 0
field sqrsum 0
bin	-inf	0
bin	-0.5	0
bin	-0.47999999999999998	0
bin	-0.46000000000000002	0
bin	-0.44	0
bin	-0.41999999999999998	0
bin	-0.40000000000000002	0
bin	-0.38	0
bin	-0.35999999999999999	0
bin	-0.33999999999999997	0
bin	-0.32000000000000001	0
bin	-0.29999999999999999	0
bin	-0.28000000000000003	0
bin	-0.26000000000000001	0
bin	-0.23999999999999999	0
bin	-0.21999999999999997	0
bin	-0.20000000000000001	0
bin	-0.17999999999999999	0
bin	-0.15999999999999998	0
bin	-0.14000000000000001	0
bin	-0.12	0
bin	-0.099999999999999978	0
bin	-0.080000000000000016	0
bin	-0.059999999999999998	0
bin	-0.03999999999999998	0
bin	-0.020000000000000018	0
bin	0	198
bin	0.020000000000000018	0
bin	0.040000000000000036	0
bin	0.060000000000000053	0
bin	0.07999999999999996	0
bin	0.099999999999999978	0
bin	0.12	0
bin	0.14000000000000001	0
bin	0.16000000000000003	0
bin	0.18000000000000005	0
bin	0.20000000000000007	0
bin	0.21999999999999997	0
bin	0.23999999999999999	0
bin	0.26000000000000001	0
bin	0.28000000000000003	0
bin	0.30000000000000004	0
bin	0.32000000000000006	0
bin	0.33999999999999997	0
bin	0.35999999999999999	0
bin	0.38	0
bin	0.40000000000000002	0
bin	0.42000000000000004	0
bin	0.44000000000000006	0
bin	0.45999999999999996	0
bin	0.47999999999999998	0
bin	0.5	0
statistic SimpleRREQ.receiver.wlan[0].radio symbolErrorRate:histogram
field count 198
field mean 0
field stddev 0
field min 0
field max 0
field sum 0
field sqrsum 0
bin	-inf	0
bin	-0.5	0
bin	-0.47999999999999998	0
bin	-0.46000000000000002	0
bin	-0.44	0
bin	-0.41999999999999998	0
bin	-0.40000000000000002	0
bin	-0.38	0
bin	-0.35999999999999999	0
bin	-0.33999999999999997	0
bin	-0.32000000000000001	0
bin	-0.29999999999999999	0
bin	-0.28000000000000003	0
bin	-0.26000000000000001	0
bin	-0.23999999999999999	0
bin	-0.21999999999999997	0
bin	-0.20000000000000001	0
bin	-0.17999999999999999	0
bin	-0.15999999999999998	0
bin	-0.14000000000000001	0
bin	-0.12	0
bin	-0.099999999999999978	0
bin	-0.080000000000000016	0
bin	-0.059999999999999998	0
bin	-0.03999999999999998	0
bin	-0.020000000000000018	0
bin	0	198
bin	0.020000000000000018	0
bin	0.040000000000000036	0
bin	0.060000000000000053	0
bin	0.07999999999999996	0
bin	0.099999999999999978	0
bin	0.12	0
bin	0.14000000000000001	0
bin	0.16000000000000003	0
bin	0.18000000000000005	0
bin	0.20000000000000007	0
bin	0.21999999999999997	0
bin	0.23999999999999999	0
bin	0.26000000000000001	0
bin	0.28000000000000003	0
bin	0.30000000000000004	0
bin	0.32000000000000006	0
bin	0.33999999999999997	0
bin	0.35999999999999999	0
bin	0.38	0
bin	0.40000000000000002	0
bin	0.42000000000000004	0
bin	0.44000000000000006	0
bin	0.45999999999999996	0
bin	0.47999999999999998	0
bin	0.5	0
scalar SimpleRREQ.sender.lo[0].lo rcvdPkFromHl:vector(packetBytes):count 0
scalar SimpleRREQ.sender.lo[0].lo rcvdPkFromHl:vector(packetBytes):sum 0
scalar SimpleRREQ.sender.lo[0].lo rcvdPkFromHl:vector(packetBytes):sumweights 0
scalar SimpleRREQ.sender.lo[0].lo rcvdPkFromHl:vector(packetBytes):mean -nan
scalar SimpleRREQ.sender.lo[0].lo rcvdPkFromHl:vector(packetBytes):stddev nan
scalar SimpleRREQ.sender.lo[0].lo rcvdPkFromHl:vector(packetBytes):min inf
scalar SimpleRREQ.sender.lo[0].lo rcvdPkFromHl:vector(packetBytes):max -inf
scalar SimpleRREQ.sender.lo[0].lo rcvdPkFromHl:vector(packetBytes):starttime nan
scalar SimpleRREQ.sender.lo[0].lo rcvdPkFromHl:vector(packetBytes):endtime nan
scalar SimpleRREQ.sender.lo[0].lo passedUpPk:vector(packetBytes):count 0
scalar SimpleRREQ.sender.lo[0].lo passedUpPk:vector(packetBytes):sum 0
scalar SimpleRREQ.sender.lo[0].lo passedUpPk:vector(packetBytes):sumweights 0
scalar SimpleRREQ.sender.lo[0].lo passedUpPk:vector(packetBytes):mean -nan
scalar SimpleRREQ.sender.lo[0].lo passedUpPk:vector(packetBytes):stddev nan
scalar SimpleRREQ.sender.lo[0].lo passedUpPk:vector(packetBytes):min inf
scalar SimpleRREQ.sender.lo[0].lo passedUpPk:vector(packetBytes):max -inf
scalar SimpleRREQ.sender.lo[0].lo passedUpPk:vector(packetBytes):starttime nan
scalar SimpleRREQ.sender.lo[0].lo passedUpPk:vector(packetBytes):endtime nan
scalar SimpleRREQ.sender.lo[0] packetDropInterfaceDown:vector(packetBytes):count 0
scalar SimpleRREQ.sender.lo[0] packetDropInterfaceDown:vector(packetBytes):sum 0
scalar SimpleRREQ.sender.lo[0] packetDropInterfaceDown:vector(packetBytes):sumweights 0
scalar SimpleRREQ.sender.lo[0] packetDropInterfaceDown:vector(packetBytes):mean -nan
scalar SimpleRREQ.sender.lo[0] packetDropInterfaceDown:vector(packetBytes):stddev nan
scalar SimpleRREQ.sender.lo[0] packetDropInterfaceDown:vector(packetBytes):min inf
scalar SimpleRREQ.sender.lo[0] packetDropInterfaceDown:vector(packetBytes):max -inf
scalar SimpleRREQ.sender.lo[0] packetDropInterfaceDown:vector(packetBytes):starttime nan
scalar SimpleRREQ.sender.lo[0] packetDropInterfaceDown:vector(packetBytes):endtime nan
scalar SimpleRREQ.sender.lo[0] packetDropNoCarrier:vector(packetBytes):count 0
scalar SimpleRREQ.sender.lo[0] packetDropNoCarrier:vector(packetBytes):sum 0
scalar SimpleRREQ.sender.lo[0] packetDropNoCarrier:vector(packetBytes):sumweights 0
scalar SimpleRREQ.sender.lo[0] packetDropNoCarrier:vector(packetBytes):mean -nan
scalar SimpleRREQ.sender.lo[0] packetDropNoCarrier:vector(packetBytes):stddev nan
scalar SimpleRREQ.sender.lo[0] packetDropNoCarrier:vector(packetBytes):min inf
scalar SimpleRREQ.sender.lo[0] packetDropNoCarrier:vector(packetBytes):max -inf
scalar SimpleRREQ.sender.lo[0] packetDropNoCarrier:vector(packetBytes):starttime nan
scalar SimpleRREQ.sender.lo[0] packetDropNoCarrier:vector(packetBytes):endtime nan
scalar SimpleRREQ.sender.wlan[0].queue queueLength:vector:count 104
scalar SimpleRREQ.sender.wlan[0].queue queueLength:vector:sum 0
scalar SimpleRREQ.sender.wlan[0].queue queueLength:vector:sumweights 104
scalar SimpleRREQ.sender.wlan[0].queue queueLength:vector:mean 0
scalar SimpleRREQ.sender.wlan[0].queue queueLength:vector:stddev 0
scalar SimpleRREQ.sender.wlan[0].queue queueLength:vector:min 0
scalar SimpleRREQ.sender.wlan[0].queue queueLength:vector:max 0
scalar SimpleRREQ.sender.wlan[0].queue queueLength:vector:starttime 0
scalar SimpleRREQ.sender.wlan[0].queue queueLength:vector:endtime 99.195254009217024
scalar SimpleRREQ.sender.wlan[0].queue queueBitLength:vector:count 104
scalar SimpleRREQ.sender.wlan[0].queue queueBitLength:vector:sum 0
scalar SimpleRREQ.sender.wlan[0].queue queueBitLength:vector:sumweights 104
scalar SimpleRREQ.sender.wlan[0].queue queueBitLength:vector:mean 0
scalar SimpleRREQ.sender.wlan[0].queue queueBitLength:vector:stddev 0
scalar SimpleRREQ.sender.wlan[0].queue queueBitLength:vector:min 0
scalar SimpleRREQ.sender.wlan[0].queue queueBitLength:vector:max 0
scalar SimpleRREQ.sender.wlan[0].queue queueBitLength:vector:starttime 0
scalar SimpleRREQ.sender.wlan[0].queue queueBitLength:vector:endtime 99.195254009217024
scalar SimpleRREQ.sender.wlan[0].queue queueingTime:vector:count 99
scalar SimpleRREQ.sender.wlan[0].queue queueingTime:vector:sum 0
scalar SimpleRREQ.sender.wlan[0].queue queueingTime:vector:sumweights 99
scalar SimpleRREQ.sender.wlan[0].queue queueingTime:vector:mean 0
scalar SimpleRREQ.sender.wlan[0].queue queueingTime:vector:stddev 0
scalar SimpleRREQ.sender.wlan[0].queue queueingTime:vector:min 0
scalar SimpleRREQ.sender.wlan[0].queue queueingTime:vector:max 0
scalar SimpleRREQ.sender.wlan[0].queue queueingTime:vector:starttime 3.1982182322990007
scalar SimpleRREQ.sender.wlan[0].queue queueingTime:vector:endtime 99.195254009217024
scalar SimpleRREQ.sender.wlan[0].queue incomingPacketLengths:vector:count 99
scalar SimpleRREQ.sender.wlan[0].queue incomingPacketLengths:vector:sum 65824
scalar SimpleRREQ.sender.wlan[0].queue incomingPacketLengths:vector:sumweights 99
scalar SimpleRREQ.sender.wlan[0].queue incomingPacketLengths:vector:mean 664.88888888888891
scalar SimpleRREQ.sender.wlan[0].queue incomingPacketLengths:vector:stddev 51.629940864296728
scalar SimpleRREQ.sender.wlan[0].queue incomingPacketLengths:vector:min 224
scalar SimpleRREQ.sender.wlan[0].queue incomingPacketLengths:vector:max 672
scalar SimpleRREQ.sender.wlan[0].queue incomingPacketLengths:vector:starttime 3.1982182322990007
scalar SimpleRREQ.sender.wlan[0].queue incomingPacketLengths:vector:endtime 99.195254009217024
scalar SimpleRREQ.sender.wlan[0].queue incomingDataRate:vector:count 1000
scalar SimpleRREQ.sender.wlan[0].queue incomingDataRate:vector:sum 658240
scalar SimpleRREQ.sender.wlan[0].queue incomingDataRate:vector:sumweights 1000
scalar SimpleRREQ.sender.wlan[0].queue incomingDataRate:vector:mean 658.24000000000001
scalar SimpleRREQ.sender.wlan[0].queue incomingDataRate:vector:stddev 2000.8791116955615
scalar SimpleRREQ.sender.wlan[0].queue incomingDataRate:vector:min 0
scalar SimpleRREQ.sender.wlan[0].queue incomingDataRate:vector:max 8960
scalar SimpleRREQ.sender.wlan[0].queue incomingDataRate:vector:starttime 0.10000000000000001
scalar SimpleRREQ.sender.wlan[0].queue incomingDataRate:vector:endtime 100
scalar SimpleRREQ.sender.wlan[0].queue outgoingPacketLengths:vector:count 99
scalar SimpleRREQ.sender.wlan[0].queue outgoingPacketLengths:vector:sum 65824
scalar SimpleRREQ.sender.wlan[0].queue outgoingPacketLengths:vector:sumweights 99
scalar SimpleRREQ.sender.wlan[0].queue outgoingPacketLengths:vector:mean 664.88888888888891
scalar SimpleRREQ.sender.wlan[0].queue outgoingPacketLengths:vector:stddev 51.629940864296728
scalar SimpleRREQ.sender.wlan[0].queue outgoingPacketLengths:vector:min 224
scalar SimpleRREQ.sender.wlan[0].queue outgoingPacketLengths:vector:max 672
scalar SimpleRREQ.sender.wlan[0].queue outgoingPacketLengths:vector:starttime 3.1982182322990007
scalar SimpleRREQ.sender.wlan[0].queue outgoingPacketLengths:vector:endtime 99.195254009217024
scalar SimpleRREQ.sender.wlan[0].queue outgoingDataRate:vector:count 1000
scalar SimpleRREQ.sender.wlan[0].queue outgoingDataRate:vector:sum 658240
scalar SimpleRREQ.sender.wlan[0].queue outgoingDataRate:vector:sumweights 1000
scalar SimpleRREQ.sender.wlan[0].queue outgoingDataRate:vector:mean 658.24000000000001
scalar SimpleRREQ.sender.wlan[0].queue outgoingDataRate:vector:stddev 2000.8791116955615
scalar SimpleRREQ.sender.wlan[0].queue outgoingDataRate:vector:min 0
scalar SimpleRREQ.sender.wlan[0].queue outgoingDataRate:vector:max 8960
scalar SimpleRREQ.sender.wlan[0].queue outgoingDataRate:vector:starttime 0.10000000000000001
scalar SimpleRREQ.sender.wlan[0].queue outgoingDataRate:vector:endtime 100
scalar SimpleRREQ.sender.wlan[0].queue droppedPacketLengthsQueueOverflow:vector:count 0
scalar SimpleRREQ.sender.wlan[0].queue droppedPacketLengthsQueueOverflow:vector:sum 0
scalar SimpleRREQ.sender.wlan[0].queue droppedPacketLengthsQueueOverflow:vector:sumweights 0
scalar SimpleRREQ.sender.wlan[0].queue droppedPacketLengthsQueueOverflow:vector:mean -nan
scalar SimpleRREQ.sender.wlan[0].queue droppedPacketLengthsQueueOverflow:vector:stddev nan
scalar SimpleRREQ.sender.wlan[0].queue droppedPacketLengthsQueueOverflow:vector:min inf
scalar SimpleRREQ.sender.wlan[0].queue droppedPacketLengthsQueueOverflow:vector:max -inf
scalar SimpleRREQ.sender.wlan[0].queue droppedPacketLengthsQueueOverflow:vector:starttime nan
scalar SimpleRREQ.sender.wlan[0].queue droppedPacketLengthsQueueOverflow:vector:endtime nan
scalar SimpleRREQ.sender.wlan[0].queue flowQueueingTime:vector:count 0
scalar SimpleRREQ.sender.wlan[0].queue flowQueueingTime:vector:sum 0
scalar SimpleRREQ.sender.wlan[0].queue flowQueueingTime:vector:sumweights 0
scalar SimpleRREQ.sender.wlan[0].queue flowQueueingTime:vector:mean -nan
scalar SimpleRREQ.sender.wlan[0].queue flowQueueingTime:vector:stddev nan
scalar SimpleRREQ.sender.wlan[0].queue flowQueueingTime:vector:min inf
scalar SimpleRREQ.sender.wlan[0].queue flowQueueingTime:vector:max -inf
scalar SimpleRREQ.sender.wlan[0].queue flowQueueingTime:vector:starttime nan
scalar SimpleRREQ.sender.wlan[0].queue flowQueueingTime:vector:endtime nan
scalar SimpleRREQ.sender.wlan[0].queue flowIncomingDataRate:vector:count 1000
scalar SimpleRREQ.sender.wlan[0].queue flowIncomingDataRate:vector:sum 0
scalar SimpleRREQ.sender.wlan[0].queue flowIncomingDataRate:vector:sumweights 1000
scalar SimpleRREQ.sender.wlan[0].queue flowIncomingDataRate:vector:mean 0
scalar SimpleRREQ.sender.wlan[0].queue flowIncomingDataRate:vector:stddev 0
scalar SimpleRREQ.sender.wlan[0].queue flowIncomingDataRate:vector:min 0
scalar SimpleRREQ.sender.wlan[0].queue flowIncomingDataRate:vector:max 0
scalar SimpleRREQ.sender.wlan[0].queue flowIncomingDataRate:vector:starttime 0.10000000000000001
scalar SimpleRREQ.sender.wlan[0].queue flowIncomingDataRate:vector:endtime 100
scalar SimpleRREQ.sender.wlan[0].queue flowOutgoingDataRate:vector:count 1000
scalar SimpleRREQ.sender.wlan[0].queue flowOutgoingDataRate:vector:sum 0
scalar SimpleRREQ.sender.wlan[0].queue flowOutgoingDataRate:vector:sumweights 1000
scalar SimpleRREQ.sender.wlan[0].queue flowOutgoingDataRate:vector:mean 0
scalar SimpleRREQ.sender.wlan[0].queue flowOutgoingDataRate:vector:stddev 0
scalar SimpleRREQ.sender.wlan[0].queue flowOutgoingDataRate:vector:min 0
scalar SimpleRREQ.sender.wlan[0].queue flowOutgoingDataRate:vector:max 0
scalar SimpleRREQ.sender.wlan[0].queue flowOutgoingDataRate:vector:starttime 0.10000000000000001
scalar SimpleRREQ.sender.wlan[0].queue flowOutgoingDataRate:vector:endtime 100
scalar SimpleRREQ.sender.wlan[0].mac passedUpPk:vector(packetBytes):count 100
scalar SimpleRREQ.sender.wlan[0].mac passedUpPk:vector(packetBytes):sum 8276
scalar SimpleRREQ.sender.wlan[0].mac passedUpPk:vector(packetBytes):sumweights 100
scalar SimpleRREQ.sender.wlan[0].mac passedUpPk:vector(packetBytes):mean 82.760000000000005
scalar SimpleRREQ.sender.wlan[0].mac passedUpPk:vector(packetBytes):stddev 7.3183317633173548
scalar SimpleRREQ.sender.wlan[0].mac passedUpPk:vector(packetBytes):min 28
scalar SimpleRREQ.sender.wlan[0].mac passedUpPk:vector(packetBytes):max 84
scalar SimpleRREQ.sender.wlan[0].mac passedUpPk:vector(packetBytes):starttime 3.2024912665420007
scalar SimpleRREQ.sender.wlan[0].mac passedUpPk:vector(packetBytes):endtime 99.197160184053018
scalar SimpleRREQ.sender.wlan[0].mac sentDownPk:vector(packetBytes):count 99
scalar SimpleRREQ.sender.wlan[0].mac sentDownPk:vector(packetBytes):sum 10505
scalar SimpleRREQ.sender.wlan[0].mac sentDownPk:vector(packetBytes):sumweights 99
scalar SimpleRREQ.sender.wlan[0].mac sentDownPk:vector(packetBytes):mean 106.11111111111111
scalar SimpleRREQ.sender.wlan[0].mac sentDownPk:vector(packetBytes):stddev 6.453742608037091
scalar SimpleRREQ.sender.wlan[0].mac sentDownPk:vector(packetBytes):min 51
scalar SimpleRREQ.sender.wlan[0].mac sentDownPk:vector(packetBytes):max 107
scalar SimpleRREQ.sender.wlan[0].mac sentDownPk:vector(packetBytes):starttime 3.1982182322990007
scalar SimpleRREQ.sender.wlan[0].mac sentDownPk:vector(packetBytes):endtime 99.195254009217024
scalar SimpleRREQ.sender.wlan[0].mac rcvdPkFromHl:vector(packetBytes):count 99
scalar SimpleRREQ.sender.wlan[0].mac rcvdPkFromHl:vector(packetBytes):sum 8228
scalar SimpleRREQ.sender.wlan[0].mac rcvdPkFromHl:vector(packetBytes):sumweights 99
scalar SimpleRREQ.sender.wlan[0].mac rcvdPkFromHl:vector(packetBytes):mean 83.111111111111114
scalar SimpleRREQ.sender.wlan[0].mac rcvdPkFromHl:vector(packetBytes):stddev 6.453742608037091
scalar SimpleRREQ.sender.wlan[0].mac rcvdPkFromHl:vector(packetBytes):min 28
scalar SimpleRREQ.sender.wlan[0].mac rcvdPkFromHl:vector(packetBytes):max 84
scalar SimpleRREQ.sender.wlan[0].mac rcvdPkFromHl:vector(packetBytes):starttime 3.1982182322990007
scalar SimpleRREQ.sender.wlan[0].mac rcvdPkFromHl:vector(packetBytes):endtime 99.195254009217024
scalar SimpleRREQ.sender.wlan[0].mac rcvdPkFromLl:vector(packetBytes):count 198
scalar SimpleRREQ.sender.wlan[0].mac rcvdPkFromLl:vector(packetBytes):sum 21006
scalar SimpleRREQ.sender.wlan[0].mac rcvdPkFromLl:vector(packetBytes):sumweights 198
scalar SimpleRREQ.sender.wlan[0].mac rcvdPkFromLl:vector(packetBytes):mean 106.09090909090909
scalar SimpleRREQ.sender.wlan[0].mac rcvdPkFromLl:vector(packetBytes):stddev 6.540915207995873
scalar SimpleRREQ.sender.wlan[0].mac rcvdPkFromLl:vector(packetBytes):min 51
scalar SimpleRREQ.sender.wlan[0].mac rcvdPkFromLl:vector(packetBytes):max 107
scalar SimpleRREQ.sender.wlan[0].mac rcvdPkFromLl:vector(packetBytes):starttime 3.2024912665420007
scalar SimpleRREQ.sender.wlan[0].mac rcvdPkFromLl:vector(packetBytes):endtime 99.197160184053018
scalar SimpleRREQ.sender.wlan[0].mac packetDropIncorrectlyReceived:vector(packetBytes):count 0
[...]
scalar SimpleRREQ.receiver.wlan[0].mac passedUpPk:vector(packetBytes):sum 8256
scalar SimpleRREQ.receiver.wlan[0].mac passedUpPk:vector(packetBytes):sumweights 100
scalar SimpleRREQ.receiver.wlan[0].mac passedUpPk:vector(packetBytes):mean 82.560000000000002
scalar SimpleRREQ.receiver.wlan[0].mac passedUpPk:vector(packetBytes):stddev 8.4618215676309543
scalar SimpleRREQ.receiver.wlan[0].mac passedUpPk:vector(packetBytes):min 28
scalar SimpleRREQ.receiver.wlan[0].mac passedUpPk:vector(packetBytes):max 84
scalar SimpleRREQ.receiver.wlan[0].mac passedUpPk:vector(packetBytes):starttime 3.2024912665420007
scalar SimpleRREQ.receiver.wlan[0].mac passedUpPk:vector(packetBytes):endtime 99.196207096635021
scalar SimpleRREQ.receiver.wlan[0].mac sentDownPk:vector(packetBytes):count 99
scalar SimpleRREQ.receiver.wlan[0].mac sentDownPk:vector(packetBytes):sum 10501
scalar SimpleRREQ.receiver.wlan[0].mac sentDownPk:vector(packetBytes):sumweights 99
scalar SimpleRREQ.receiver.wlan[0].mac sentDownPk:vector(packetBytes):mean 106.07070707070707
scalar SimpleRREQ.receiver.wlan[0].mac sentDownPk:vector(packetBytes):stddev 6.6597366578636059
scalar SimpleRREQ.receiver.wlan[0].mac sentDownPk:vector(packetBytes):min 51
scalar SimpleRREQ.receiver.wlan[0].mac sentDownPk:vector(packetBytes):max 107
scalar SimpleRREQ.receiver.wlan[0].mac sentDownPk:vector(packetBytes):starttime 3.2024912665420007
scalar SimpleRREQ.receiver.wlan[0].mac sentDownPk:vector(packetBytes):endtime 99.196207096635021
scalar SimpleRREQ.receiver.wlan[0].mac rcvdPkFromHl:vector(packetBytes):count 99
scalar SimpleRREQ.receiver.wlan[0].mac rcvdPkFromHl:vector(packetBytes):sum 8224
scalar SimpleRREQ.receiver.wlan[0].mac rcvdPkFromHl:vector(packetBytes):sumweights 99
scalar SimpleRREQ.receiver.wlan[0].mac rcvdPkFromHl:vector(packetBytes):mean 83.070707070707073
scalar SimpleRREQ.receiver.wlan[0].mac rcvdPkFromHl:vector(packetBytes):stddev 6.6597366578636059
scalar SimpleRREQ.receiver.wlan[0].mac rcvdPkFromHl:vector(packetBytes):min 28
scalar SimpleRREQ.receiver.wlan[0].mac rcvdPkFromHl:vector(packetBytes):max 84
scalar SimpleRREQ.receiver.wlan[0].mac rcvdPkFromHl:vector(packetBytes):starttime 3.2024912665420007
scalar SimpleRREQ.receiver.wlan[0].mac rcvdPkFromHl:vector(packetBytes):endtime 99.196207096635021
scalar SimpleRREQ.receiver.wlan[0].mac rcvdPkFromLl:vector(packetBytes):count 198
scalar SimpleRREQ.receiver.wlan[0].mac rcvdPkFromLl:vector(packetBytes):sum 21006
scalar SimpleRREQ.receiver.wlan[0].mac rcvdPkFromLl:vector(packetBytes):sumweights 198
scalar SimpleRREQ.receiver.wlan[0].mac rcvdPkFromLl:vector(packetBytes):mean 106.09090909090909
scalar SimpleRREQ.receiver.wlan[0].mac rcvdPkFromLl:vector(packetBytes):stddev 6.540915207995873
scalar SimpleRREQ.receiver.wlan[0].mac rcvdPkFromLl:vector(packetBytes):min 51
scalar SimpleRREQ.receiver.wlan[0].mac rcvdPkFromLl:vector(packetBytes):max 107
scalar SimpleRREQ.receiver.wlan[0].mac rcvdPkFromLl:vector(packetBytes):starttime 3.2024912665420007
scalar SimpleRREQ.receiver.wlan[0].mac rcvdPkFromLl:vector(packetBytes):endtime 99.197160184053018
scalar SimpleRREQ.receiver.wlan[0].mac packetDropIncorrectlyReceived:vector(packetBytes):count 0
scalar SimpleRREQ.receiver.wlan[0].mac packetDropIncorrectlyReceived:vector(packetBytes):sum 0
scalar SimpleRREQ.receiver.wlan[0].mac packetDropIncorrectlyReceived:vector(packetBytes):sumweights 0
scalar SimpleRREQ.receiver.wlan[0].mac packetDropIncorrectlyReceived:vector(packetBytes):mean -nan
scalar SimpleRREQ.receiver.wlan[0].mac packetDropIncorrectlyReceived:vector(packetBytes):stddev nan
scalar SimpleRREQ.receiver.wlan[0].mac packetDropIncorrectlyReceived:vector(packetBytes):min inf
scalar SimpleRREQ.receiver.wlan[0].mac packetDropIncorrectlyReceived:vector(packetBytes):max -inf
scalar SimpleRREQ.receiver.wlan[0].mac packetDropIncorrectlyReceived:vector(packetBytes):starttime nan
scalar SimpleRREQ.receiver.wlan[0].mac packetDropIncorrectlyReceived:vector(packetBytes):endtime nan
scalar SimpleRREQ.receiver.wlan[0].mac packetDropInterfaceDown:vector(packetBytes):count 0
scalar SimpleRREQ.receiver.wlan[0].mac packetDropInterfaceDown:vector(packetBytes):sum 0
scalar SimpleRREQ.receiver.wlan[0].mac packetDropInterfaceDown:vector(packetBytes):sumweights 0
scalar SimpleRREQ.receiver.wlan[0].mac packetDropInterfaceDown:vector(packetBytes):mean -nan
scalar SimpleRREQ.receiver.wlan[0].mac packetDropInterfaceDown:vector(packetBytes):stddev nan
scalar SimpleRREQ.receiver.wlan[0].mac packetDropInterfaceDown:vector(packetBytes):min inf
scalar SimpleRREQ.receiver.wlan[0].mac packetDropInterfaceDown:vector(packetBytes):max -inf
scalar SimpleRREQ.receiver.wlan[0].mac packetDropInterfaceDown:vector(packetBytes):starttime nan
scalar SimpleRREQ.receiver.wlan[0].mac packetDropInterfaceDown:vector(packetBytes):endtime nan
scalar SimpleRREQ.receiver.wlan[0].mac packetDropNotAddressedToUs:vector(packetBytes):count 98
scalar SimpleRREQ.receiver.wlan[0].mac packetDropNotAddressedToUs:vector(packetBytes):sum 10450
scalar SimpleRREQ.receiver.wlan[0].mac packetDropNotAddressedToUs:vector(packetBytes):sumweights 98
scalar SimpleRREQ.receiver.wlan[0].mac packetDropNotAddressedToUs:vector(packetBytes):mean 106.63265306122449
scalar SimpleRREQ.receiver.wlan[0].mac packetDropNotAddressedToUs:vector(packetBytes):stddev 3.6365491603878781
scalar SimpleRREQ.receiver.wlan[0].mac packetDropNotAddressedToUs:vector(packetBytes):min 71
scalar SimpleRREQ.receiver.wlan[0].mac packetDropNotAddressedToUs:vector(packetBytes):max 107
scalar SimpleRREQ.receiver.wlan[0].mac packetDropNotAddressedToUs:vector(packetBytes):starttime 3.2083878575160005
scalar SimpleRREQ.receiver.wlan[0].mac packetDropNotAddressedToUs:vector(packetBytes):endtime 99.197160184053018
scalar SimpleRREQ.receiver.wlan[0].radio radioMode:vector:count 3
scalar SimpleRREQ.receiver.wlan[0].radio radioMode:vector:sum 4
scalar SimpleRREQ.receiver.wlan[0].radio radioMode:vector:sumweights 3
scalar SimpleRREQ.receiver.wlan[0].radio radioMode:vector:mean 1.3333333333333333
scalar SimpleRREQ.receiver.wlan[0].radio radioMode:vector:stddev 2.3094010767585034
scalar SimpleRREQ.receiver.wlan[0].radio radioMode:vector:min 0
scalar SimpleRREQ.receiver.wlan[0].radio radioMode:vector:max 4
scalar SimpleRREQ.receiver.wlan[0].radio radioMode:vector:starttime 0
scalar SimpleRREQ.receiver.wlan[0].radio radioMode:vector:endtime 0
scalar SimpleRREQ.receiver.wlan[0].radio receptionState:vector:count 397
scalar SimpleRREQ.receiver.wlan[0].radio receptionState:vector:sum 793
scalar SimpleRREQ.receiver.wlan[0].radio receptionState:vector:sumweights 397
scalar SimpleRREQ.receiver.wlan[0].radio receptionState:vector:mean 1.9974811083123425
scalar SimpleRREQ.receiver.wlan[0].radio receptionState:vector:stddev 1.001258653739211
scalar SimpleRREQ.receiver.wlan[0].radio receptionState:vector:min 1
scalar SimpleRREQ.receiver.wlan[0].radio receptionState:vector:max 3
scalar SimpleRREQ.receiver.wlan[0].radio receptionState:vector:starttime 0
scalar SimpleRREQ.receiver.wlan[0].radio receptionState:vector:endtime 99.197160184053018
scalar SimpleRREQ.receiver.wlan[0].radio transmissionState:vector:count 199
scalar SimpleRREQ.receiver.wlan[0].radio transmissionState:vector:sum 298
scalar SimpleRREQ.receiver.wlan[0].radio transmissionState:vector:sumweights 199
scalar SimpleRREQ.receiver.wlan[0].radio transmissionState:vector:mean 1.4974874371859297
scalar SimpleRREQ.receiver.wlan[0].radio transmissionState:vector:stddev 0.50125470711708542
scalar SimpleRREQ.receiver.wlan[0].radio transmissionState:vector:min 1
scalar SimpleRREQ.receiver.wlan[0].radio transmissionState:vector:max 2
scalar SimpleRREQ.receiver.wlan[0].radio transmissionState:vector:starttime 0
scalar SimpleRREQ.receiver.wlan[0].radio transmissionState:vector:endtime 99.196683096635013
scalar SimpleRREQ.receiver.wlan[0] packetDropInterfaceDown:vector(packetBytes):count 0
scalar SimpleRREQ.receiver.wlan[0] packetDropInterfaceDown:vector(packetBytes):sum 0
scalar SimpleRREQ.receiver.wlan[0] packetDropInterfaceDown:vector(packetBytes):sumweights 0
scalar SimpleRREQ.receiver.wlan[0] packetDropInterfaceDown:vector(packetBytes):mean -nan
scalar SimpleRREQ.receiver.wlan[0] packetDropInterfaceDown:vector(packetBytes):stddev nan
scalar SimpleRREQ.receiver.wlan[0] packetDropInterfaceDown:vector(packetBytes):min inf
scalar SimpleRREQ.receiver.wlan[0] packetDropInterfaceDown:vector(packetBytes):max -inf
scalar SimpleRREQ.receiver.wlan[0] packetDropInterfaceDown:vector(packetBytes):starttime nan
scalar SimpleRREQ.receiver.wlan[0] packetDropInterfaceDown:vector(packetBytes):endtime nan
scalar SimpleRREQ.receiver.wlan[0] packetDropNoCarrier:vector(packetBytes):count 0
scalar SimpleRREQ.receiver.wlan[0] packetDropNoCarrier:vector(packetBytes):sum 0
scalar SimpleRREQ.receiver.wlan[0] packetDropNoCarrier:vector(packetBytes):sumweights 0
scalar SimpleRREQ.receiver.wlan[0] packetDropNoCarrier:vector(packetBytes):mean -nan
scalar SimpleRREQ.receiver.wlan[0] packetDropNoCarrier:vector(packetBytes):stddev nan
scalar SimpleRREQ.receiver.wlan[0] packetDropNoCarrier:vector(packetBytes):min inf
scalar SimpleRREQ.receiver.wlan[0] packetDropNoCarrier:vector(packetBytes):max -inf
scalar SimpleRREQ.receiver.wlan[0] packetDropNoCarrier:vector(packetBytes):starttime nan
scalar SimpleRREQ.receiver.wlan[0] packetDropNoCarrier:vector(packetBytes):endtime nan
scalar SimpleRREQ.receiver.ipv4.ip packetDropAddressResolutionFailed:vector(packetBytes):count 0
scalar SimpleRREQ.receiver.ipv4.ip packetDropAddressResolutionFailed:vector(packetBytes):sum 0
scalar SimpleRREQ.receiver.ipv4.ip packetDropAddressResolutionFailed:vector(packetBytes):sumweights 0
scalar SimpleRREQ.receiver.ipv4.ip packetDropAddressResolutionFailed:vector(packetBytes):mean -nan
scalar SimpleRREQ.receiver.ipv4.ip packetDropAddressResolutionFailed:vector(packetBytes):stddev nan
scalar SimpleRREQ.receiver.ipv4.ip packetDropAddressResolutionFailed:vector(packetBytes):min inf
scalar SimpleRREQ.receiver.ipv4.ip packetDropAddressResolutionFailed:vector(packetBytes):max -inf
scalar SimpleRREQ.receiver.ipv4.ip packetDropAddressResolutionFailed:vector(packetBytes):starttime nan
scalar SimpleRREQ.receiver.ipv4.ip packetDropAddressResolutionFailed:vector(packetBytes):endtime nan
scalar SimpleRREQ.receiver.ipv4.ip packetDropHopLimitReached:vector(packetBytes):count 0
scalar SimpleRREQ.receiver.ipv4.ip packetDropHopLimitReached:vector(packetBytes):sum 0
scalar SimpleRREQ.receiver.ipv4.ip packetDropHopLimitReached:vector(packetBytes):sumweights 0
scalar SimpleRREQ.receiver.ipv4.ip packetDropHopLimitReached:vector(packetBytes):mean -nan
scalar SimpleRREQ.receiver.ipv4.ip packetDropHopLimitReached:vector(packetBytes):stddev nan
scalar SimpleRREQ.receiver.ipv4.ip packetDropHopLimitReached:vector(packetBytes):min inf
scalar SimpleRREQ.receiver.ipv4.ip packetDropHopLimitReached:vector(packetBytes):max -inf
scalar SimpleRREQ.receiver.ipv4.ip packetDropHopLimitReached:vector(packetBytes):starttime nan
scalar SimpleRREQ.receiver.ipv4.ip packetDropHopLimitReached:vector(packetBytes):endtime nan
scalar SimpleRREQ.receiver.ipv4.ip packetDropForwardingDisabled:vector(packetBytes):count 0
scalar SimpleRREQ.receiver.ipv4.ip packetDropForwardingDisabled:vector(packetBytes):sum 0
scalar SimpleRREQ.receiver.ipv4.ip packetDropForwardingDisabled:vector(packetBytes):sumweights 0
scalar SimpleRREQ.receiver.ipv4.ip packetDropForwardingDisabled:vector(packetBytes):mean -nan
scalar SimpleRREQ.receiver.ipv4.ip packetDropForwardingDisabled:vector(packetBytes):stddev nan
scalar SimpleRREQ.receiver.ipv4.ip packetDropForwardingDisabled:vector(packetBytes):min inf
scalar SimpleRREQ.receiver.ipv4.ip packetDropForwardingDisabled:vector(packetBytes):max -inf
scalar SimpleRREQ.receiver.ipv4.ip packetDropForwardingDisabled:vector(packetBytes):starttime nan
scalar SimpleRREQ.receiver.ipv4.ip packetDropForwardingDisabled:vector(packetBytes):endtime nan
scalar SimpleRREQ.receiver.ipv4.ip packetDropLifetimeExpired:vector(packetBytes):count 0
scalar SimpleRREQ.receiver.ipv4.ip packetDropLifetimeExpired:vector(packetBytes):sum 0
scalar SimpleRREQ.receiver.ipv4.ip packetDropLifetimeExpired:vector(packetBytes):sumweights 0
scalar SimpleRREQ.receiver.ipv4.ip packetDropLifetimeExpired:vector(packetBytes):mean -nan
scalar SimpleRREQ.receiver.ipv4.ip packetDropLifetimeExpired:vector(packetBytes):stddev nan
scalar SimpleRREQ.receiver.ipv4.ip packetDropLifetimeExpired:vector(packetBytes):min inf
scalar SimpleRREQ.receiver.ipv4.ip packetDropLifetimeExpired:vector(packetBytes):max -inf
scalar SimpleRREQ.receiver.ipv4.ip packetDropLifetimeExpired:vector(packetBytes):starttime nan
scalar SimpleRREQ.receiver.ipv4.ip packetDropLifetimeExpired:vector(packetBytes):endtime nan
scalar SimpleRREQ.receiver.ipv4.ip packetDropNoInterfaceFound:vector(packetBytes):count 0
scalar SimpleRREQ.receiver.ipv4.ip packetDropNoInterfaceFound:vector(packetBytes):sum 0
scalar SimpleRREQ.receiver.ipv4.ip packetDropNoInterfaceFound:vector(packetBytes):sumweights 0
scalar SimpleRREQ.receiver.ipv4.ip packetDropNoInterfaceFound:vector(packetBytes):mean -nan
scalar SimpleRREQ.receiver.ipv4.ip packetDropNoInterfaceFound:vector(packetBytes):stddev nan
scalar SimpleRREQ.receiver.ipv4.ip packetDropNoInterfaceFound:vector(packetBytes):min inf
scalar SimpleRREQ.receiver.ipv4.ip packetDropNoInterfaceFound:vector(packetBytes):max -inf
scalar SimpleRREQ.receiver.ipv4.ip packetDropNoInterfaceFound:vector(packetBytes):starttime nan
scalar SimpleRREQ.receiver.ipv4.ip packetDropNoInterfaceFound:vector(packetBytes):endtime nan
scalar SimpleRREQ.receiver.ipv4.ip packetDropNoRouteFound:vector(packetBytes):count 0
scalar SimpleRREQ.receiver.ipv4.ip packetDropNoRouteFound:vector(packetBytes):sum 0
scalar SimpleRREQ.receiver.ipv4.ip packetDropNoRouteFound:vector(packetBytes):sumweights 0
scalar SimpleRREQ.receiver.ipv4.ip packetDropNoRouteFound:vector(packetBytes):mean -nan
scalar SimpleRREQ.receiver.ipv4.ip packetDropNoRouteFound:vector(packetBytes):stddev nan
scalar SimpleRREQ.receiver.ipv4.ip packetDropNoRouteFound:vector(packetBytes):min inf
scalar SimpleRREQ.receiver.ipv4.ip packetDropNoRouteFound:vector(packetBytes):max -inf
scalar SimpleRREQ.receiver.ipv4.ip packetDropNoRouteFound:vector(packetBytes):starttime nan
scalar SimpleRREQ.receiver.ipv4.ip packetDropNoRouteFound:vector(packetBytes):endtime nan
scalar SimpleRREQ.receiver.ipv4.ip packetDropUndefined:vector(packetBytes):count 0
scalar SimpleRREQ.receiver.ipv4.ip packetDropUndefined:vector(packetBytes):sum 0
scalar SimpleRREQ.receiver.ipv4.ip packetDropUndefined:vector(packetBytes):sumweights 0
scalar SimpleRREQ.receiver.ipv4.ip packetDropUndefined:vector(packetBytes):mean -nan
scalar SimpleRREQ.receiver.ipv4.ip packetDropUndefined:vector(packetBytes):stddev nan
scalar SimpleRREQ.receiver.ipv4.ip packetDropUndefined:vector(packetBytes):min inf
scalar SimpleRREQ.receiver.ipv4.ip packetDropUndefined:vector(packetBytes):max -inf
scalar SimpleRREQ.receiver.ipv4.ip packetDropUndefined:vector(packetBytes):starttime nan
scalar SimpleRREQ.receiver.ipv4.ip packetDropUndefined:vector(packetBytes):endtime nan
scalar SimpleRREQ.receiver.ipv4.arp arpRequestSent:vector(packetBytes):count 1
scalar SimpleRREQ.receiver.ipv4.arp arpRequestSent:vector(packetBytes):sum 28
scalar SimpleRREQ.receiver.ipv4.arp arpRequestSent:vector(packetBytes):sumweights 1
scalar SimpleRREQ.receiver.ipv4.arp arpRequestSent:vector(packetBytes):mean 28
scalar SimpleRREQ.receiver.ipv4.arp arpRequestSent:vector(packetBytes):stddev nan
scalar SimpleRREQ.receiver.ipv4.arp arpRequestSent:vector(packetBytes):min 28
scalar SimpleRREQ.receiver.ipv4.arp arpRequestSent:vector(packetBytes):max 28
scalar SimpleRREQ.receiver.ipv4.arp arpRequestSent:vector(packetBytes):starttime 3.2024912665420007
scalar SimpleRREQ.receiver.ipv4.arp arpRequestSent:vector(packetBytes):endtime 3.2024912665420007
scalar SimpleRREQ.receiver.ipv4.arp arpReplySent:vector(packetBytes):count 0
scalar SimpleRREQ.receiver.ipv4.arp arpReplySent:vector(packetBytes):sum 0
scalar SimpleRREQ.receiver.ipv4.arp arpReplySent:vector(packetBytes):sumweights 0
scalar SimpleRREQ.receiver.ipv4.arp arpReplySent:vector(packetBytes):mean -nan
scalar SimpleRREQ.receiver.ipv4.arp arpReplySent:vector(packetBytes):stddev nan
scalar SimpleRREQ.receiver.ipv4.arp arpReplySent:vector(packetBytes):min inf
scalar SimpleRREQ.receiver.ipv4.arp arpReplySent:vector(packetBytes):max -inf
scalar SimpleRREQ.receiver.ipv4.arp arpReplySent:vector(packetBytes):starttime nan
scalar SimpleRREQ.receiver.ipv4.arp arpReplySent:vector(packetBytes):endtime nan
scalar SimpleRREQ.receiver.udp packetSent:vector(packetBytes):count 1
scalar SimpleRREQ.receiver.udp packetSent:vector(packetBytes):sum 28
scalar SimpleRREQ.receiver.udp packetSent:vector(packetBytes):sumweights 1
scalar SimpleRREQ.receiver.udp packetSent:vector(packetBytes):mean 28
scalar SimpleRREQ.receiver.udp packetSent:vector(packetBytes):stddev nan
scalar SimpleRREQ.receiver.udp packetSent:vector(packetBytes):min 28
scalar SimpleRREQ.receiver.udp packetSent:vector(packetBytes):max 28
scalar SimpleRREQ.receiver.udp packetSent:vector(packetBytes):starttime 3.2024912665420007
scalar SimpleRREQ.receiver.udp packetSent:vector(packetBytes):endtime 3.2024912665420007
scalar SimpleRREQ.receiver.udp packetReceived:vector(packetBytes):count 1
scalar SimpleRREQ.receiver.udp packetReceived:vector(packetBytes):sum 32
scalar SimpleRREQ.receiver.udp packetReceived:vector(packetBytes):sumweights 1
scalar SimpleRREQ.receiver.udp packetReceived:vector(packetBytes):mean 32
scalar SimpleRREQ.receiver.udp packetReceived:vector(packetBytes):stddev nan
scalar SimpleRREQ.receiver.udp packetReceived:vector(packetBytes):min 32
scalar SimpleRREQ.receiver.udp packetReceived:vector(packetBytes):max 32
scalar SimpleRREQ.receiver.udp packetReceived:vector(packetBytes):starttime 3.2024912665420007
scalar SimpleRREQ.receiver.udp packetReceived:vector(packetBytes):endtime 3.2024912665420007
scalar SimpleRREQ.receiver.udp passedUpPk:vector(count):count 2
scalar SimpleRREQ.receiver.udp passedUpPk:vector(count):sum 1
scalar SimpleRREQ.receiver.udp passedUpPk:vector(count):sumweights 2
scalar SimpleRREQ.receiver.udp passedUpPk:vector(count):mean 0.5
scalar SimpleRREQ.receiver.udp passedUpPk:vector(count):stddev 0.70710678118654757
scalar SimpleRREQ.receiver.udp passedUpPk:vector(count):min 0
scalar SimpleRREQ.receiver.udp passedUpPk:vector(count):max 1
scalar SimpleRREQ.receiver.udp passedUpPk:vector(count):starttime 0
scalar SimpleRREQ.receiver.udp passedUpPk:vector(count):endtime 3.2024912665420007
scalar SimpleRREQ.receiver.udp droppedPkWrongPort:vector(count):count 1
scalar SimpleRREQ.receiver.udp droppedPkWrongPort:vector(count):sum 0
scalar SimpleRREQ.receiver.udp droppedPkWrongPort:vector(count):sumweights 1
scalar SimpleRREQ.receiver.udp droppedPkWrongPort:vector(count):mean 0
scalar SimpleRREQ.receiver.udp droppedPkWrongPort:vector(count):stddev nan
scalar SimpleRREQ.receiver.udp droppedPkWrongPort:vector(count):min 0
scalar SimpleRREQ.receiver.udp droppedPkWrongPort:vector(count):max 0
scalar SimpleRREQ.receiver.udp droppedPkWrongPort:vector(count):starttime 0
scalar SimpleRREQ.receiver.udp droppedPkWrongPort:vector(count):endtime 0
scalar SimpleRREQ.receiver.udp droppedPkBadChecksum:vector(count):count 1
scalar SimpleRREQ.receiver.udp droppedPkBadChecksum:vector(count):sum 0
scalar SimpleRREQ.receiver.udp droppedPkBadChecksum:vector(count):sumweights 1
scalar SimpleRREQ.receiver.udp droppedPkBadChecksum:vector(count):mean 0
scalar SimpleRREQ.receiver.udp droppedPkBadChecksum:vector(count):stddev nan
scalar SimpleRREQ.receiver.udp droppedPkBadChecksum:vector(count):min 0
scalar SimpleRREQ.receiver.udp droppedPkBadChecksum:vector(count):max 0
scalar SimpleRREQ.receiver.udp droppedPkBadChecksum:vector(count):starttime 0
scalar SimpleRREQ.receiver.udp droppedPkBadChecksum:vector(count):endtime 0

