version 3
run General-0-20230511-14:17:57-53932
attr configname General
attr datetime 20230511-14:17:57
attr datetimef 20230511-141757
attr description "Traffic shaping using time-aware shapers"
attr experiment General
attr inifile omnetpp.ini
attr iterationvars ""
attr iterationvarsd ""
attr iterationvarsf ""
attr measurement ""
attr network inet.networks.tsn.TsnLinearNetwork
attr processid 53932
attr repetition 0
attr replication #0
attr resultdir results
attr runnumber 0
attr seedset 0
config **.param-recording false
config **.vector-recording false
config image-path /home/levy/workspace/inet/images
config output-scalar-file results/omnetpp.ini-General-#0.sca
config sim-time-limit 1s
config network inet.networks.tsn.TsnLinearNetwork
config sim-time-limit 1s
config description "Traffic shaping using time-aware shapers"
config **.displayGateSchedules true
config **.gateFilter "\"**.eth[1].**\""
config **.gateScheduleVisualizer.height 16
config **.gateScheduleVisualizer.placementHint "\"top\""
config *.client.numApps 2
config *.client.app[*].typename UdpSourceApp
config *.client.app[0].display-name "best effort"
config *.client.app[1].display-name video
config *.client.app[*].io.destAddress "\"server\""
config *.client.app[0].io.destPort 1000
config *.client.app[1].io.destPort 1001
config *.client.app[*].source.packetLength "1000B - 54B"
config *.client.app[0].source.productionInterval exponential(200us)
config *.client.app[1].source.productionInterval exponential(400us)
config *.server.numApps 2
config *.server.app[*].typename UdpSinkApp
config *.server.app[0].io.localPort 1000
config *.server.app[1].io.localPort 1001
config *.client.hasOutgoingStreams true
config *.client.bridging.streamIdentifier.identifier.mapping "[{stream: \"best effort\", packetFilter: expr(udp.destPort == 1000)},\n                                                         {stream: \"video\", packetFilter: expr(udp.destPort == 1001)}]"
config *.client.bridging.streamCoder.encoder.mapping "[{stream: \"best effort\", pcp: 0},\n                                                 {stream: \"video\", pcp: 4}]"
config *.switch.hasEgressTrafficShaping true
config *.switch.bridging.directionReverser.reverser.excludeEncapsulationProtocols "[\"ieee8021qctag\"]"
config *.switch.eth[*].macLayer.queue.numTrafficClasses 2
config *.switch.eth[*].macLayer.queue.*[0].display-name "best effort"
config *.switch.eth[*].macLayer.queue.*[1].display-name video
config *.switch.eth[*].macLayer.queue.transmissionGate[0].offset 0ms
config *.switch.eth[*].macLayer.queue.transmissionGate[0].durations "[4ms, 6ms]"
config *.switch.eth[*].macLayer.queue.transmissionGate[1].offset 6ms
config *.switch.eth[*].macLayer.queue.transmissionGate[1].durations "[2ms, 8ms]"

scalar TsnLinearNetwork.client.bridging.directionReverser.reverser outgoingPackets:count 0
attr recordingmode count
attr source "merge(packetPushedOut, packetPulledOut)"
attr title "outgoing packets, count"
attr unit pk
scalar TsnLinearNetwork.client.bridging.directionReverser.reverser outgoingPacketLengths:sum 0
attr interpolationmode none
attr recordingmode sum
attr source "packetLength(merge(packetPushedOut, packetPulledOut))"
attr title "outgoing packet lengths, sum"
attr unit b
statistic TsnLinearNetwork.client.bridging.directionReverser.reverser outgoingPacketLengths:histogram
field count 0
field mean -nan
field stddev nan
field min nan
field max nan
field sum 0
field sqrsum 0
attr interpolationmode none
attr recordingmode histogram
attr source "packetLength(merge(packetPushedOut, packetPulledOut))"
attr title "outgoing packet lengths"
attr unit b
bin	-inf	0
bin	0	0
bin	1	0
scalar TsnLinearNetwork.client.bridging.directionReverser.reverser flowOutgoingPacketLengths:sum 0
attr interpolationmode none
attr recordingmode sum
attr source "packetLength(demuxFlow(merge(packetPushedOut, packetPulledOut)))"
attr title "flow specific outgoing packet lengths, sum"
attr unit b
statistic TsnLinearNetwork.client.bridging.directionReverser.reverser flowOutgoingPacketLengths:histogram
field count 0
field mean -nan
field stddev nan
field min nan
field max nan
field sum 0
field sqrsum 0
attr interpolationmode none
attr recordingmode histogram
attr source "packetLength(demuxFlow(merge(packetPushedOut, packetPulledOut)))"
attr title "flow specific outgoing packet lengths"
attr unit b
bin	-inf	0
bin	0	0
bin	1	0
scalar TsnLinearNetwork.client.bridging.directionReverser.reverser incomingPackets:count 0
attr recordingmode count
attr source "merge(packetPushedIn, packetPulledIn)"
attr title "incoming packets, count"
attr unit pk
scalar TsnLinearNetwork.client.bridging.directionReverser.reverser incomingPacketLengths:sum 0
attr interpolationmode none
attr recordingmode sum
attr source "packetLength(merge(packetPushedIn, packetPulledIn))"
attr title "incoming packet lengths, sum"
attr unit b
statistic TsnLinearNetwork.client.bridging.directionReverser.reverser incomingPacketLengths:histogram
field count 0
field mean -nan
field stddev nan
field min nan
field max nan
field sum 0
field sqrsum 0
attr interpolationmode none
attr recordingmode histogram
attr source "packetLength(merge(packetPushedIn, packetPulledIn))"
attr title "incoming packet lengths"
attr unit b
bin	-inf	0
bin	0	0
bin	1	0
scalar TsnLinearNetwork.client.bridging.directionReverser.reverser flowIncomingPacketLengths:sum 0
attr interpolationmode none
attr recordingmode sum
attr source "packetLength(demuxFlow(merge(packetPushedIn, packetPulledIn)))"
attr title "flow specific incoming packet lengths, sum"
attr unit b
statistic TsnLinearNetwork.client.bridging.directionReverser.reverser flowIncomingPacketLengths:histogram
field count 0
field mean -nan
field stddev nan
field min nan
field max nan
field sum 0
field sqrsum 0
attr interpolationmode none
attr recordingmode histogram
attr source "packetLength(demuxFlow(merge(packetPushedIn, packetPulledIn)))"
attr title "flow specific incoming packet lengths"
attr unit b
bin	-inf	0
bin	0	0
bin	1	0
scalar TsnLinearNetwork.client.bridging.directionReverser.join packets:count 0
attr recordingmode count
attr source "merge(packetPushed, packetPulled)"
attr title "packets, count"
attr unit pk
scalar TsnLinearNetwork.client.bridging.directionReverser.join packetLengths:sum 0
attr interpolationmode none
attr recordingmode sum
attr source "packetLength(merge(packetPushed, packetPulled))"
attr title "packet lengths, sum"
attr unit b
statistic TsnLinearNetwork.client.bridging.directionReverser.join packetLengths:histogram
field count 0
field mean -nan
field stddev nan
field min nan
field max nan
field sum 0
field sqrsum 0
attr interpolationmode none
attr recordingmode histogram
attr source "packetLength(merge(packetPushed, packetPulled))"
attr title "packet lengths"
attr unit b
bin	-inf	0
bin	0	0
bin	1	0
scalar TsnLinearNetwork.client.bridging.streamIdentifier.identifier outgoingPackets:count 7362
attr recordingmode count
attr source "merge(packetPushedOut, packetPulledOut)"
attr title "outgoing packets, count"
attr unit pk
scalar TsnLinearNetwork.client.bridging.streamIdentifier.identifier outgoingPacketLengths:sum 57364704
attr interpolationmode none
attr recordingmode sum
attr source "packetLength(merge(packetPushedOut, packetPulledOut))"
attr title "outgoing packet lengths, sum"
attr unit b
statistic TsnLinearNetwork.client.bridging.streamIdentifier.identifier outgoingPacketLengths:histogram
field count 7362
field mean 7792
field stddev 0
field min 7792
field max 7792
field sum 57364704
field sqrsum 446985773568
attr interpolationmode none
attr recordingmode histogram
attr source "packetLength(merge(packetPushedOut, packetPulledOut))"
attr title "outgoing packet lengths"
attr unit b
bin	-inf	0
bin	7791	0
bin	7792	7362
bin	7793	0
scalar TsnLinearNetwork.client.bridging.streamIdentifier.identifier flowOutgoingPacketLengths:sum 0
attr interpolationmode none
attr recordingmode sum
attr source "packetLength(demuxFlow(merge(packetPushedOut, packetPulledOut)))"
attr title "flow specific outgoing packet lengths, sum"
attr unit b
statistic TsnLinearNetwork.client.bridging.streamIdentifier.identifier flowOutgoingPacketLengths:histogram
field count 0
field mean -nan
field stddev nan
field min nan
field max nan
field sum 0
field sqrsum 0
attr interpolationmode none
attr recordingmode histogram
attr source "packetLength(demuxFlow(merge(packetPushedOut, packetPulledOut)))"
attr title "flow specific outgoing packet lengths"
attr unit b
bin	-inf	0
bin	0	0
bin	1	0
scalar TsnLinearNetwork.client.bridging.streamIdentifier.identifier incomingPackets:count 7362
attr recordingmode count
attr source "merge(packetPushedIn, packetPulledIn)"
attr title "incoming packets, count"
attr unit pk
scalar TsnLinearNetwork.client.bridging.streamIdentifier.identifier incomingPacketLengths:sum 57364704
attr interpolationmode none
attr recordingmode sum
attr source "packetLength(merge(packetPushedIn, packetPulledIn))"
attr title "incoming packet lengths, sum"
attr unit b
statistic TsnLinearNetwork.client.bridging.streamIdentifier.identifier incomingPacketLengths:histogram
field count 7362
field mean 7792
field stddev 0
field min 7792
field max 7792
field sum 57364704
field sqrsum 446985773568
attr interpolationmode none
attr recordingmode histogram
attr source "packetLength(merge(packetPushedIn, packetPulledIn))"
attr title "incoming packet lengths"
attr unit b
bin	-inf	0
bin	7791	0
bin	7792	7362
bin	7793	0
scalar TsnLinearNetwork.client.bridging.streamIdentifier.identifier flowIncomingPacketLengths:sum 0
attr interpolationmode none
attr recordingmode sum
attr source "packetLength(demuxFlow(merge(packetPushedIn, packetPulledIn)))"
attr title "flow specific incoming packet lengths, sum"
attr unit b
statistic TsnLinearNetwork.client.bridging.streamIdentifier.identifier flowIncomingPacketLengths:histogram
field count 0
field mean -nan
field stddev nan
field min nan
field max nan
field sum 0
field sqrsum 0
attr interpolationmode none
attr recordingmode histogram
attr source "packetLength(demuxFlow(merge(packetPushedIn, packetPulledIn)))"
attr title "flow specific incoming packet lengths"
attr unit b
bin	-inf	0
bin	0	0
bin	1	0
scalar TsnLinearNetwork.client.bridging.streamCoder.decoder outgoingPackets:count 0
attr recordingmode count
attr source "merge(packetPushedOut, packetPulledOut)"
attr title "outgoing packets, count"
attr unit pk
scalar TsnLinearNetwork.client.bridging.streamCoder.decoder outgoingPacketLengths:sum 0
attr interpolationmode none
attr recordingmode sum
attr source "packetLength(merge(packetPushedOut, packetPulledOut))"
attr title "outgoing packet lengths, sum"
attr unit b
statistic TsnLinearNetwork.client.bridging.streamCoder.decoder outgoingPacketLengths:histogram
field count 0
field mean -nan
field stddev nan
field min nan
field max nan
field sum 0
field sqrsum 0
attr interpolationmode none
attr recordingmode histogram
attr source "packetLength(merge(packetPushedOut, packetPulledOut))"
attr title "outgoing packet lengths"
attr unit b
bin	-inf	0
bin	0	0
bin	1	0
scalar TsnLinearNetwork.client.bridging.streamCoder.decoder flowOutgoingPacketLengths:sum 0
attr interpolationmode none
attr recordingmode sum
attr source "packetLength(demuxFlow(merge(packetPushedOut, packetPulledOut)))"
attr title "flow specific outgoing packet lengths, sum"
attr unit b
statistic TsnLinearNetwork.client.bridging.streamCoder.decoder flowOutgoingPacketLengths:histogram
field count 0
field mean -nan
field stddev nan
field min nan
field max nan
field sum 0
field sqrsum 0
attr interpolationmode none
attr recordingmode histogram
attr source "packetLength(demuxFlow(merge(packetPushedOut, packetPulledOut)))"
attr title "flow specific outgoing packet lengths"
attr unit b
bin	-inf	0
bin	0	0
bin	1	0
scalar TsnLinearNetwork.client.bridging.streamCoder.decoder incomingPackets:count 0
attr recordingmode count
attr source "merge(packetPushedIn, packetPulledIn)"
attr title "incoming packets, count"
attr unit pk
scalar TsnLinearNetwork.client.bridging.streamCoder.decoder incomingPacketLengths:sum 0
attr interpolationmode none
attr recordingmode sum
attr source "packetLength(merge(packetPushedIn, packetPulledIn))"
attr title "incoming packet lengths, sum"
attr unit b
statistic TsnLinearNetwork.client.bridging.streamCoder.decoder incomingPacketLengths:histogram
field count 0
field mean -nan
field stddev nan
field min nan
field max nan
field sum 0
field sqrsum 0
attr interpolationmode none
attr recordingmode histogram
attr source "packetLength(merge(packetPushedIn, packetPulledIn))"
attr title "incoming packet lengths"
attr unit b
bin	-inf	0
bin	0	0
bin	1	0
scalar TsnLinearNetwork.client.bridging.streamCoder.decoder flowIncomingPacketLengths:sum 0
attr interpolationmode none
attr recordingmode sum
attr source "packetLength(demuxFlow(merge(packetPushedIn, packetPulledIn)))"
attr title "flow specific incoming packet lengths, sum"
attr unit b
statistic TsnLinearNetwork.client.bridging.streamCoder.decoder flowIncomingPacketLengths:histogram
field count 0
field mean -nan
field stddev nan
field min nan
field max nan
field sum 0
field sqrsum 0
attr interpolationmode none
attr recordingmode histogram
attr source "packetLength(demuxFlow(merge(packetPushedIn, packetPulledIn)))"
attr title "flow specific incoming packet lengths"
attr unit b
bin	-inf	0
bin	0	0
bin	1	0
scalar TsnLinearNetwork.client.bridging.streamCoder.encoder outgoingPackets:count 7362
attr recordingmode count
attr source "merge(packetPushedOut, packetPulledOut)"
attr title "outgoing packets, count"
attr unit pk
scalar TsnLinearNetwork.client.bridging.streamCoder.encoder outgoingPacketLengths:sum 57364704
attr interpolationmode none
attr recordingmode sum
attr source "packetLength(merge(packetPushedOut, packetPulledOut))"
attr title "outgoing packet lengths, sum"
attr unit b
statistic TsnLinearNetwork.client.bridging.streamCoder.encoder outgoingPacketLengths:histogram
field count 7362
field mean 7792
field stddev 0
field min 7792
field max 7792
field sum 57364704
field sqrsum 446985773568
attr interpolationmode none
attr recordingmode histogram
attr source "packetLength(merge(packetPushedOut, packetPulledOut))"
attr title "outgoing packet lengths"
attr unit b
bin	-inf	0
bin	7791	0
bin	7792	7362
bin	7793	0
scalar TsnLinearNetwork.client.bridging.streamCoder.encoder flowOutgoingPacketLengths:sum 0
attr interpolationmode none
attr recordingmode sum
attr source "packetLength(demuxFlow(merge(packetPushedOut, packetPulledOut)))"
attr title "flow specific outgoing packet lengths, sum"
attr unit b
statistic TsnLinearNetwork.client.bridging.streamCoder.encoder flowOutgoingPacketLengths:histogram
field count 0
field mean -nan
field stddev nan
field min nan
field max nan
field sum 0
field sqrsum 0
attr interpolationmode none
attr recordingmode histogram
attr source "packetLength(demuxFlow(merge(packetPushedOut, packetPulledOut)))"
attr title "flow specific outgoing packet lengths"
attr unit b
bin	-inf	0
bin	0	0
bin	1	0
scalar TsnLinearNetwork.client.bridging.streamCoder.encoder incomingPackets:count 7362
attr recordingmode count
attr source "merge(packetPushedIn, packetPulledIn)"
attr title "incoming packets, count"
attr unit pk
scalar TsnLinearNetwork.client.bridging.streamCoder.encoder incomingPacketLengths:sum 57364704
attr interpolationmode none
attr recordingmode sum
attr source "packetLength(merge(packetPushedIn, packetPulledIn))"
attr title "incoming packet lengths, sum"
attr unit b
statistic TsnLinearNetwork.client.bridging.streamCoder.encoder incomingPacketLengths:histogram
field count 7362
field mean 7792
field stddev 0
field min 7792
field max 7792
field sum 57364704
field sqrsum 446985773568
attr interpolationmode none
attr recordingmode histogram
attr source "packetLength(merge(packetPushedIn, packetPulledIn))"
attr title "incoming packet lengths"
attr unit b
bin	-inf	0
bin	7791	0
bin	7792	7362
bin	7793	0
scalar TsnLinearNetwork.client.bridging.streamCoder.encoder flowIncomingPacketLengths:sum 0
attr interpolationmode none
attr recordingmode sum
attr source "packetLength(demuxFlow(merge(packetPushedIn, packetPulledIn)))"
attr title "flow specific incoming packet lengths, sum"
attr unit b
statistic TsnLinearNetwork.client.bridging.streamCoder.encoder flowIncomingPacketLengths:histogram
field count 0
field mean -nan
field stddev nan
field min nan
field max nan
field sum 0
field sqrsum 0
attr interpolationmode none
attr recordingmode histogram
attr source "packetLength(demuxFlow(merge(packetPushedIn, packetPulledIn)))"
attr title "flow specific incoming packet lengths"
attr unit b
bin	-inf	0
bin	0	0
bin	1	0
scalar TsnLinearNetwork.client.ethernet.macHeaderInserter outgoingPackets:count 7362
attr recordingmode count
attr source "merge(packetPushedOut, packetPulledOut)"
attr title "outgoing packets, count"
attr unit pk
scalar TsnLinearNetwork.client.ethernet.macHeaderInserter outgoingPacketLengths:sum 58424832
attr interpolationmode none
attr recordingmode sum
attr source "packetLength(merge(packetPushedOut, packetPulledOut))"
attr title "outgoing packet lengths, sum"
attr unit b
statistic TsnLinearNetwork.client.ethernet.macHeaderInserter outgoingPacketLengths:histogram
field count 7362
field mean 7936
field stddev 0
field min 7936
field max 7936
field sum 58424832
field sqrsum 463659466752
attr interpolationmode none
attr recordingmode histogram
attr source "packetLength(merge(packetPushedOut, packetPulledOut))"
attr title "outgoing packet lengths"
attr unit b
bin	-inf	0
bin	7935	0
bin	7936	7362
bin	7937	0
scalar TsnLinearNetwork.client.ethernet.macHeaderInserter flowOutgoingPacketLengths:sum 0
attr interpolationmode none
attr recordingmode sum
attr source "packetLength(demuxFlow(merge(packetPushedOut, packetPulledOut)))"
attr title "flow specific outgoing packet lengths, sum"
attr unit b
statistic TsnLinearNetwork.client.ethernet.macHeaderInserter flowOutgoingPacketLengths:histogram
field count 0
field mean -nan
field stddev nan
field min nan
field max nan
field sum 0
field sqrsum 0
attr interpolationmode none
attr recordingmode histogram
attr source "packetLength(demuxFlow(merge(packetPushedOut, packetPulledOut)))"
attr title "flow specific outgoing packet lengths"
attr unit b
bin	-inf	0
bin	0	0
bin	1	0
scalar TsnLinearNetwork.client.ethernet.macHeaderInserter incomingPackets:count 7362
attr recordingmode count
attr source "merge(packetPushedIn, packetPulledIn)"
attr title "incoming packets, count"
attr unit pk
scalar TsnLinearNetwork.client.ethernet.macHeaderInserter incomingPacketLengths:sum 57600288
attr interpolationmode none
attr recordingmode sum
attr source "packetLength(merge(packetPushedIn, packetPulledIn))"
attr title "incoming packet lengths, sum"
attr unit b
statistic TsnLinearNetwork.client.ethernet.macHeaderInserter incomingPacketLengths:histogram
field count 7362
field mean 7824
field stddev 0
field min 7824
field max 7824
field sum 57600288
field sqrsum 450664653312
attr interpolationmode none
attr recordingmode histogram
attr source "packetLength(merge(packetPushedIn, packetPulledIn))"
attr title "incoming packet lengths"
attr unit b
bin	-inf	0
bin	7823	0
bin	7824	7362
bin	7825	0
scalar TsnLinearNetwork.client.ethernet.macHeaderInserter flowIncomingPacketLengths:sum 0
attr interpolationmode none
attr recordingmode sum
attr source "packetLength(demuxFlow(merge(packetPushedIn, packetPulledIn)))"
attr title "flow specific incoming packet lengths, sum"
attr unit b
statistic TsnLinearNetwork.client.ethernet.macHeaderInserter flowIncomingPacketLengths:histogram
field count 0
field mean -nan
field stddev nan
field min nan
field max nan
field sum 0
field sqrsum 0
attr interpolationmode none
attr recordingmode histogram
attr source "packetLength(demuxFlow(merge(packetPushedIn, packetPulledIn)))"
attr title "flow specific incoming packet lengths"
attr unit b
bin	-inf	0
bin	0	0
bin	1	0
scalar TsnLinearNetwork.client.ethernet.paddingInserter outgoingPackets:count 7362
attr recordingmode count
attr source "merge(packetPushedOut, packetPulledOut)"
attr title "outgoing packets, count"
attr unit pk
scalar TsnLinearNetwork.client.ethernet.paddingInserter outgoingPacketLengths:sum 58424832
attr interpolationmode none
attr recordingmode sum
attr source "packetLength(merge(packetPushedOut, packetPulledOut))"
attr title "outgoing packet lengths, sum"
attr unit b
statistic TsnLinearNetwork.client.ethernet.paddingInserter outgoingPacketLengths:histogram
field count 7362
field mean 7936
field stddev 0
field min 7936
field max 7936
field sum 58424832
field sqrsum 463659466752
attr interpolationmode none
attr recordingmode histogram
attr source "packetLength(merge(packetPushedOut, packetPulledOut))"
attr title "outgoing packet lengths"
attr unit b
bin	-inf	0
bin	7935	0
bin	7936	7362
bin	7937	0
scalar TsnLinearNetwork.client.ethernet.paddingInserter flowOutgoingPacketLengths:sum 0
attr interpolationmode none
attr recordingmode sum
attr source "packetLength(demuxFlow(merge(packetPushedOut, packetPulledOut)))"
attr title "flow specific outgoing packet lengths, sum"
attr unit b
statistic TsnLinearNetwork.client.ethernet.paddingInserter flowOutgoingPacketLengths:histogram
field count 0
field mean -nan
field stddev nan
field min nan
field max nan
field sum 0
field sqrsum 0
attr interpolationmode none
attr recordingmode histogram
attr source "packetLength(demuxFlow(merge(packetPushedOut, packetPulledOut)))"
attr title "flow specific outgoing packet lengths"
attr unit b
bin	-inf	0
bin	0	0
bin	1	0
scalar TsnLinearNetwork.client.ethernet.paddingInserter incomingPackets:count 7362
attr recordingmode count
attr source "merge(packetPushedIn, packetPulledIn)"
attr title "incoming packets, count"
attr unit pk
scalar TsnLinearNetwork.client.ethernet.paddingInserter incomingPacketLengths:sum 58424832
attr interpolationmode none
attr recordingmode sum
attr source "packetLength(merge(packetPushedIn, packetPulledIn))"
attr title "incoming packet lengths, sum"
attr unit b
statistic TsnLinearNetwork.client.ethernet.paddingInserter incomingPacketLengths:histogram
field count 7362
field mean 7936
field stddev 0
field min 7936
field max 7936
field sum 58424832
field sqrsum 463659466752
attr interpolationmode none
attr recordingmode histogram
attr source "packetLength(merge(packetPushedIn, packetPulledIn))"
attr title "incoming packet lengths"
attr unit b
bin	-inf	0
bin	7935	0
bin	7936	7362
bin	7937	0
scalar TsnLinearNetwork.client.ethernet.paddingInserter flowIncomingPacketLengths:sum 0
attr interpolationmode none
attr recordingmode sum
attr source "packetLength(demuxFlow(merge(packetPushedIn, packetPulledIn)))"
attr title "flow specific incoming packet lengths, sum"
attr unit b
statistic TsnLinearNetwork.client.ethernet.paddingInserter flowIncomingPacketLengths:histogram
field count 0
field mean -nan
field stddev nan
field min nan
field max nan
field sum 0
field sqrsum 0
attr interpolationmode none
attr recordingmode histogram
attr source "packetLength(demuxFlow(merge(packetPushedIn, packetPulledIn)))"
attr title "flow specific incoming packet lengths"
attr unit b
bin	-inf	0
bin	0	0
bin	1	0
scalar TsnLinearNetwork.client.ethernet.fcsInserter outgoingPackets:count 7362
attr recordingmode count
attr source "merge(packetPushedOut, packetPulledOut)"
attr title "outgoing packets, count"
attr unit pk
scalar TsnLinearNetwork.client.ethernet.fcsInserter outgoingPacketLengths:sum 58660416
attr interpolationmode none
attr recordingmode sum
attr source "packetLength(merge(packetPushedOut, packetPulledOut))"
attr title "outgoing packet lengths, sum"
attr unit b
statistic TsnLinearNetwork.client.ethernet.fcsInserter outgoingPacketLengths:histogram
field count 7362
field mean 7968
field stddev 0
field min 7968
field max 7968
field sum 58660416
field sqrsum 467406194688
attr interpolationmode none
attr recordingmode histogram
attr source "packetLength(merge(packetPushedOut, packetPulledOut))"
attr title "outgoing packet lengths"
attr unit b
bin	-inf	0
bin	7967	0
bin	7968	7362
bin	7969	0
scalar TsnLinearNetwork.client.ethernet.fcsInserter flowOutgoingPacketLengths:sum 0
attr interpolationmode none
attr recordingmode sum
attr source "packetLength(demuxFlow(merge(packetPushedOut, packetPulledOut)))"
attr title "flow specific outgoing packet lengths, sum"
attr unit b
statistic TsnLinearNetwork.client.ethernet.fcsInserter flowOutgoingPacketLengths:histogram
field count 0
field mean -nan
field stddev nan
field min nan
field max nan
field sum 0
field sqrsum 0
attr interpolationmode none
attr recordingmode histogram
attr source "packetLength(demuxFlow(merge(packetPushedOut, packetPulledOut)))"
attr title "flow specific outgoing packet lengths"
attr unit b
bin	-inf	0
bin	0	0
bin	1	0
scalar TsnLinearNetwork.client.ethernet.fcsInserter incomingPackets:count 7362
attr recordingmode count
attr source "merge(packetPushedIn, packetPulledIn)"
attr title "incoming packets, count"
attr unit pk
scalar TsnLinearNetwork.client.ethernet.fcsInserter incomingPacketLengths:sum 58424832
attr interpolationmode none
attr recordingmode sum
attr source "packetLength(merge(packetPushedIn, packetPulledIn))"
attr title "incoming packet lengths, sum"
attr unit b
statistic TsnLinearNetwork.client.ethernet.fcsInserter incomingPacketLengths:histogram
field count 7362
field mean 7936
field stddev 0
field min 7936
field max 7936
field sum 58424832
field sqrsum 463659466752
attr interpolationmode none
attr recordingmode histogram
attr source "packetLength(merge(packetPushedIn, packetPulledIn))"
attr title "incoming packet lengths"
attr unit b
bin	-inf	0
bin	7935	0
bin	7936	7362
bin	7937	0
scalar TsnLinearNetwork.client.ethernet.fcsInserter flowIncomingPacketLengths:sum 0
attr interpolationmode none
attr recordingmode sum
attr source "packetLength(demuxFlow(merge(packetPushedIn, packetPulledIn)))"
attr title "flow specific incoming packet lengths, sum"
attr unit b
statistic TsnLinearNetwork.client.ethernet.fcsInserter flowIncomingPacketLengths:histogram
field count 0
field mean -nan
field stddev nan
field min nan
field max nan
field sum 0
field sqrsum 0
attr interpolationmode none
attr recordingmode histogram
attr source "packetLength(demuxFlow(merge(packetPushedIn, packetPulledIn)))"
attr title "flow specific incoming packet lengths"
attr unit b
bin	-inf	0
bin	0	0
bin	1	0
scalar TsnLinearNetwork.client.ethernet.macHeaderChecker outgoingPackets:count 0
attr recordingmode count
attr source "merge(packetPushedOut, packetPulledOut)"
attr title "outgoing packets, count"
attr unit pk
scalar TsnLinearNetwork.client.ethernet.macHeaderChecker outgoingPacketLengths:sum 0
attr interpolationmode none
attr recordingmode sum
attr source "packetLength(merge(packetPushedOut, packetPulledOut))"
attr title "outgoing packet lengths, sum"
attr unit b
statistic TsnLinearNetwork.client.ethernet.macHeaderChecker outgoingPacketLengths:histogram
field count 0
field mean -nan
field stddev nan
field min nan
field max nan
field sum 0
field sqrsum 0
attr interpolationmode none
attr recordingmode histogram
attr source "packetLength(merge(packetPushedOut, packetPulledOut))"
attr title "outgoing packet lengths"
attr unit b
bin	-inf	0
bin	0	0
bin	1	0
scalar TsnLinearNetwork.client.ethernet.macHeaderChecker flowOutgoingPacketLengths:sum 0
attr interpolationmode none
attr recordingmode sum
attr source "packetLength(demuxFlow(merge(packetPushedOut, packetPulledOut)))"
attr title "flow specific outgoing packet lengths, sum"
attr unit b
statistic TsnLinearNetwork.client.ethernet.macHeaderChecker flowOutgoingPacketLengths:histogram
field count 0
field mean -nan
field stddev nan
field min nan
field max nan
field sum 0
field sqrsum 0
attr interpolationmode none
attr recordingmode histogram
attr source "packetLength(demuxFlow(merge(packetPushedOut, packetPulledOut)))"
attr title "flow specific outgoing packet lengths"
attr unit b
bin	-inf	0
bin	0	0
bin	1	0
scalar TsnLinearNetwork.client.ethernet.macHeaderChecker incomingPackets:count 0
attr recordingmode count
attr source "merge(packetPushedIn, packetPulledIn)"
attr title "incoming packets, count"
attr unit pk
scalar TsnLinearNetwork.client.ethernet.macHeaderChecker incomingPacketLengths:sum 0
attr interpolationmode none
attr recordingmode sum
attr source "packetLength(merge(packetPushedIn, packetPulledIn))"
attr title "incoming packet lengths, sum"
attr unit b
statistic TsnLinearNetwork.client.ethernet.macHeaderChecker incomingPacketLengths:histogram
field count 0
field mean -nan
field stddev nan
field min nan
field max nan
field sum 0
field sqrsum 0
attr interpolationmode none
attr recordingmode histogram
attr source "packetLength(merge(packetPushedIn, packetPulledIn))"
attr title "incoming packet lengths"
attr unit b
bin	-inf	0
bin	0	0
bin	1	0
scalar TsnLinearNetwork.client.ethernet.macHeaderChecker flowIncomingPacketLengths:sum 0
attr interpolationmode none
attr recordingmode sum
attr source "packetLength(demuxFlow(merge(packetPushedIn, packetPulledIn)))"
attr title "flow specific incoming packet lengths, sum"
attr unit b
statistic TsnLinearNetwork.client.ethernet.macHeaderChecker flowIncomingPacketLengths:histogram
field count 0
field mean -nan
field stddev nan
field min nan
field max nan
field sum 0
field sqrsum 0
attr interpolationmode none
attr recordingmode histogram
attr source "packetLength(demuxFlow(merge(packetPushedIn, packetPulledIn)))"
attr title "flow specific incoming packet lengths"
attr unit b
bin	-inf	0
bin	0	0
bin	1	0
scalar TsnLinearNetwork.client.ethernet.macHeaderChecker droppedPackets:count 0
attr recordingmode count
attr source packetDropped
attr title "dropped packets, count"
attr unit pk
scalar TsnLinearNetwork.client.ethernet.macHeaderChecker droppedPacketLengths:sum 0
attr interpolationmode none
attr recordingmode sum
attr source packetLength(packetDropped)
attr title "dropped packet lengths, sum"
attr unit b
statistic TsnLinearNetwork.client.ethernet.macHeaderChecker droppedPacketLengths:histogram
field count 0
field mean -nan
field stddev nan
field min nan
field max nan
field sum 0
field sqrsum 0
attr interpolationmode none
attr recordingmode histogram
attr source packetLength(packetDropped)
attr title "dropped packet lengths"
attr unit b
bin	-inf	0
bin	0	0
bin	1	0
scalar TsnLinearNetwork.client.ethernet.macHeaderChecker flowDroppedPacketLengths:sum 0
attr interpolationmode none
attr recordingmode sum
attr source packetLength(demuxFlow(packetDropped))
attr title "flow specific dropped packet lengths, sum"
attr unit b
statistic TsnLinearNetwork.client.ethernet.macHeaderChecker flowDroppedPacketLengths:histogram
field count 0
field mean -nan
field stddev nan
field min nan
field max nan
field sum 0
field sqrsum 0
attr interpolationmode none
attr recordingmode histogram
attr source packetLength(demuxFlow(packetDropped))
attr title "flow specific dropped packet lengths"
attr unit b
bin	-inf	0
bin	0	0
bin	1	0
scalar TsnLinearNetwork.client.ethernet.fcsChecker outgoingPackets:count 0
attr recordingmode count
attr source "merge(packetPushedOut, packetPulledOut)"
attr title "outgoing packets, count"
attr unit pk
scalar TsnLinearNetwork.client.ethernet.fcsChecker outgoingPacketLengths:sum 0
attr interpolationmode none
attr recordingmode sum
attr source "packetLength(merge(packetPushedOut, packetPulledOut))"
attr title "outgoing packet lengths, sum"
attr unit b
statistic TsnLinearNetwork.client.ethernet.fcsChecker outgoingPacketLengths:histogram
field count 0
field mean -nan
field stddev nan
field min nan
field max nan
field sum 0
field sqrsum 0
attr interpolationmode none
attr recordingmode histogram
attr source "packetLength(merge(packetPushedOut, packetPulledOut))"
attr title "outgoing packet lengths"
attr unit b
bin	-inf	0
bin	0	0
bin	1	0
scalar TsnLinearNetwork.client.ethernet.fcsChecker flowOutgoingPacketLengths:sum 0
attr interpolationmode none
attr recordingmode sum
attr source "packetLength(demuxFlow(merge(packetPushedOut, packetPulledOut)))"
attr title "flow specific outgoing packet lengths, sum"
attr unit b
statistic TsnLinearNetwork.client.ethernet.fcsChecker flowOutgoingPacketLengths:histogram
field count 0
field mean -nan
field stddev nan
field min nan
field max nan
field sum 0
field sqrsum 0
attr interpolationmode none
attr recordingmode histogram
attr source "packetLength(demuxFlow(merge(packetPushedOut, packetPulledOut)))"
attr title "flow specific outgoing packet lengths"
attr unit b
bin	-inf	0
bin	0	0
bin	1	0
scalar TsnLinearNetwork.client.ethernet.fcsChecker incomingPackets:count 0
attr recordingmode count
attr source "merge(packetPushedIn, packetPulledIn)"
attr title "incoming packets, count"
attr unit pk
scalar TsnLinearNetwork.client.ethernet.fcsChecker incomingPacketLengths:sum 0
attr interpolationmode none
attr recordingmode sum
attr source "packetLength(merge(packetPushedIn, packetPulledIn))"
attr title "incoming packet lengths, sum"
attr unit b
statistic TsnLinearNetwork.client.ethernet.fcsChecker incomingPacketLengths:histogram
field count 0
field mean -nan
field stddev nan
field min nan
field max nan
field sum 0
field sqrsum 0
attr interpolationmode none
attr recordingmode histogram
attr source "packetLength(merge(packetPushedIn, packetPulledIn))"
attr title "incoming packet lengths"
attr unit b
bin	-inf	0
bin	0	0
bin	1	0
scalar TsnLinearNetwork.client.ethernet.fcsChecker flowIncomingPacketLengths:sum 0
attr interpolationmode none
attr recordingmode sum
attr source "packetLength(demuxFlow(merge(packetPushedIn, packetPulledIn)))"
attr title "flow specific incoming packet lengths, sum"
attr unit b
statistic TsnLinearNetwork.client.ethernet.fcsChecker flowIncomingPacketLengths:histogram
field count 0
field mean -nan
field stddev nan
field min nan
field max nan
field sum 0
field sqrsum 0
attr interpolationmode none
attr recordingmode histogram
attr source "packetLength(demuxFlow(merge(packetPushedIn, packetPulledIn)))"
attr title "flow specific incoming packet lengths"
attr unit b
bin	-inf	0
bin	0	0
bin	1	0
scalar TsnLinearNetwork.client.ethernet.fcsChecker droppedPackets:count 0
attr recordingmode count
attr source packetDropped
attr title "dropped packets, count"
attr unit pk
scalar TsnLinearNetwork.client.ethernet.fcsChecker droppedPacketLengths:sum 0
attr interpolationmode none
attr recordingmode sum
attr source packetLength(packetDropped)
attr title "dropped packet lengths, sum"
attr unit b
statistic TsnLinearNetwork.client.ethernet.fcsChecker droppedPacketLengths:histogram
field count 0
field mean -nan
field stddev nan
field min nan
field max nan
field sum 0
field sqrsum 0
attr interpolationmode none
attr recordingmode histogram
attr source packetLength(packetDropped)
attr title "dropped packet lengths"
attr unit b
bin	-inf	0
bin	0	0
bin	1	0
scalar TsnLinearNetwork.client.ethernet.fcsChecker flowDroppedPacketLengths:sum 0
attr interpolationmode none
attr recordingmode sum
attr source packetLength(demuxFlow(packetDropped))
attr title "flow specific dropped packet lengths, sum"
attr unit b
statistic TsnLinearNetwork.client.ethernet.fcsChecker flowDroppedPacketLengths:histogram
field count 0
field mean -nan
field stddev nan
field min nan
field max nan
field sum 0
field sqrsum 0
attr interpolationmode none
attr recordingmode histogram
attr source packetLength(demuxFlow(packetDropped))
attr title "flow specific dropped packet lengths"
attr unit b
bin	-inf	0
bin	0	0
bin	1	0
scalar TsnLinearNetwork.client.ieee8021q.qTagHeaderInserter outgoingPackets:count 7362
attr recordingmode count
attr source "merge(packetPushedOut, packetPulledOut)"
attr title "outgoing packets, count"
attr unit pk
scalar TsnLinearNetwork.client.ieee8021q.qTagHeaderInserter outgoingPacketLengths:sum 57600288
attr interpolationmode none
attr recordingmode sum
attr source "packetLength(merge(packetPushedOut, packetPulledOut))"
attr title "outgoing packet lengths, sum"
attr unit b
statistic TsnLinearNetwork.client.ieee8021q.qTagHeaderInserter outgoingPacketLengths:histogram
field count 7362
field mean 7824
field stddev 0
field min 7824
field max 7824
field sum 57600288
field sqrsum 450664653312
attr interpolationmode none
attr recordingmode histogram
attr source "packetLength(merge(packetPushedOut, packetPulledOut))"
attr title "outgoing packet lengths"
attr unit b
bin	-inf	0
bin	7823	0
bin	7824	7362
bin	7825	0
scalar TsnLinearNetwork.client.ieee8021q.qTagHeaderInserter flowOutgoingPacketLengths:sum 0
attr interpolationmode none
attr recordingmode sum
attr source "packetLength(demuxFlow(merge(packetPushedOut, packetPulledOut)))"
attr title "flow specific outgoing packet lengths, sum"
attr unit b
statistic TsnLinearNetwork.client.ieee8021q.qTagHeaderInserter flowOutgoingPacketLengths:histogram
field count 0
field mean -nan
field stddev nan
field min nan
field max nan
field sum 0
field sqrsum 0
attr interpolationmode none
attr recordingmode histogram
attr source "packetLength(demuxFlow(merge(packetPushedOut, packetPulledOut)))"
attr title "flow specific outgoing packet lengths"
attr unit b
bin	-inf	0
bin	0	0
bin	1	0
scalar TsnLinearNetwork.client.ieee8021q.qTagHeaderInserter incomingPackets:count 7362
attr recordingmode count
attr source "merge(packetPushedIn, packetPulledIn)"
attr title "incoming packets, count"
attr unit pk
scalar TsnLinearNetwork.client.ieee8021q.qTagHeaderInserter incomingPacketLengths:sum 57364704
attr interpolationmode none
attr recordingmode sum
attr source "packetLength(merge(packetPushedIn, packetPulledIn))"
attr title "incoming packet lengths, sum"
attr unit b
statistic TsnLinearNetwork.client.ieee8021q.qTagHeaderInserter incomingPacketLengths:histogram
field count 7362
field mean 7792
field stddev 0
field min 7792
field max 7792
field sum 57364704
field sqrsum 446985773568
attr interpolationmode none
attr recordingmode histogram
attr source "packetLength(merge(packetPushedIn, packetPulledIn))"
attr title "incoming packet lengths"
attr unit b
bin	-inf	0
bin	7791	0
bin	7792	7362
bin	7793	0
scalar TsnLinearNetwork.client.ieee8021q.qTagHeaderInserter flowIncomingPacketLengths:sum 0
attr interpolationmode none
attr recordingmode sum
attr source "packetLength(demuxFlow(merge(packetPushedIn, packetPulledIn)))"
attr title "flow specific incoming packet lengths, sum"
attr unit b
statistic TsnLinearNetwork.client.ieee8021q.qTagHeaderInserter flowIncomingPacketLengths:histogram
field count 0
field mean -nan
field stddev nan
field min nan
field max nan
field sum 0
field sqrsum 0
attr interpolationmode none
attr recordingmode histogram
attr source "packetLength(demuxFlow(merge(packetPushedIn, packetPulledIn)))"
attr title "flow specific incoming packet lengths"
attr unit b
bin	-inf	0
bin	0	0
bin	1	0
scalar TsnLinearNetwork.client.ieee8021q.qTagHeaderChecker outgoingPackets:count 0
attr recordingmode count
attr source "merge(packetPushedOut, packetPulledOut)"
attr title "outgoing packets, count"
attr unit pk
scalar TsnLinearNetwork.client.ieee8021q.qTagHeaderChecker outgoingPacketLengths:sum 0
attr interpolationmode none
attr recordingmode sum
attr source "packetLength(merge(packetPushedOut, packetPulledOut))"
attr title "outgoing packet lengths, sum"
attr unit b
statistic TsnLinearNetwork.client.ieee8021q.qTagHeaderChecker outgoingPacketLengths:histogram
field count 0
field mean -nan
field stddev nan
field min nan
field max nan
field sum 0
field sqrsum 0
attr interpolationmode none
attr recordingmode histogram
attr source "packetLength(merge(packetPushedOut, packetPulledOut))"
attr title "outgoing packet lengths"
attr unit b
bin	-inf	0
bin	0	0
bin	1	0
scalar TsnLinearNetwork.client.ieee8021q.qTagHeaderChecker flowOutgoingPacketLengths:sum 0
attr interpolationmode none
attr recordingmode sum
attr source "packetLength(demuxFlow(merge(packetPushedOut, packetPulledOut)))"
attr title "flow specific outgoing packet lengths, sum"
attr unit b
statistic TsnLinearNetwork.client.ieee8021q.qTagHeaderChecker flowOutgoingPacketLengths:histogram
field count 0
field mean -nan
field stddev nan
field min nan
field max nan
field sum 0
field sqrsum 0
attr interpolationmode none
attr recordingmode histogram
attr source "packetLength(demuxFlow(merge(packetPushedOut, packetPulledOut)))"
attr title "flow specific outgoing packet lengths"
attr unit b
bin	-inf	0
bin	0	0
bin	1	0
scalar TsnLinearNetwork.client.ieee8021q.qTagHeaderChecker incomingPackets:count 0
attr recordingmode count
attr source "merge(packetPushedIn, packetPulledIn)"
attr title "incoming packets, count"
attr unit pk
scalar TsnLinearNetwork.client.ieee8021q.qTagHeaderChecker incomingPacketLengths:sum 0
attr interpolationmode none
attr recordingmode sum
attr source "packetLength(merge(packetPushedIn, packetPulledIn))"
attr title "incoming packet lengths, sum"
attr unit b
statistic TsnLinearNetwork.client.ieee8021q.qTagHeaderChecker incomingPacketLengths:histogram
field count 0
field mean -nan
field stddev nan
field min nan
field max nan
field sum 0
field sqrsum 0
attr interpolationmode none
attr recordingmode histogram
attr source "packetLength(merge(packetPushedIn, packetPulledIn))"
attr title "incoming packet lengths"
attr unit b
bin	-inf	0
bin	0	0
bin	1	0
scalar TsnLinearNetwork.client.ieee8021q.qTagHeaderChecker flowIncomingPacketLengths:sum 0
attr interpolationmode none
attr recordingmode sum
attr source "packetLength(demuxFlow(merge(packetPushedIn, packetPulledIn)))"
attr title "flow specific incoming packet lengths, sum"
attr unit b
statistic TsnLinearNetwork.client.ieee8021q.qTagHeaderChecker flowIncomingPacketLengths:histogram
field count 0
field mean -nan
field stddev nan
field min nan
field max nan
field sum 0
field sqrsum 0
attr interpolationmode none
attr recordingmode histogram
attr source "packetLength(demuxFlow(merge(packetPushedIn, packetPulledIn)))"
attr title "flow specific incoming packet lengths"
attr unit b
bin	-inf	0
bin	0	0
bin	1	0
scalar TsnLinearNetwork.client.ieee8021q.qTagHeaderChecker droppedPackets:count 0
attr recordingmode count
attr source packetDropped
attr title "dropped packets, count"
attr unit pk
scalar TsnLinearNetwork.client.ieee8021q.qTagHeaderChecker droppedPacketLengths:sum 0
attr interpolationmode none
attr recordingmode sum
attr source packetLength(packetDropped)
attr title "dropped packet lengths, sum"
attr unit b
statistic TsnLinearNetwork.client.ieee8021q.qTagHeaderChecker droppedPacketLengths:histogram
field count 0
field mean -nan
field stddev nan
field min nan
field max nan
field sum 0
field sqrsum 0
attr interpolationmode none
attr recordingmode histogram
attr source packetLength(packetDropped)
attr title "dropped packet lengths"
attr unit b
bin	-inf	0
bin	0	0
bin	1	0
scalar TsnLinearNetwork.client.ieee8021q.qTagHeaderChecker flowDroppedPacketLengths:sum 0
attr interpolationmode none
attr recordingmode sum
attr source packetLength(demuxFlow(packetDropped))
attr title "flow specific dropped packet lengths, sum"
attr unit b
statistic TsnLinearNetwork.client.ieee8021q.qTagHeaderChecker flowDroppedPacketLengths:histogram
field count 0
field mean -nan
field stddev nan
field min nan
field max nan
field sum 0
field sqrsum 0
attr interpolationmode none
attr recordingmode histogram
attr source packetLength(demuxFlow(packetDropped))
attr title "flow specific dropped packet lengths"
attr unit b
bin	-inf	0
bin	0	0
bin	1	0
scalar TsnLinearNetwork.client.lo[0].lo rcvdPkFromHl:count 0
attr interpolationmode none
attr recordingmode count
attr source packetReceivedFromUpper
attr title "packets received from higher layer, count"
scalar TsnLinearNetwork.client.lo[0].lo rcvdPkFromHl:sum(packetBytes) 0
attr interpolationmode none
attr recordingmode sum(packetBytes)
attr source packetReceivedFromUpper
attr title "packets received from higher layer, sum(packetBytes)"
scalar TsnLinearNetwork.client.lo[0].lo passedUpPk:count 0
attr interpolationmode none
attr recordingmode count
attr source packetSentToUpper
attr title "packets passed to higher layer, count"
scalar TsnLinearNetwork.client.lo[0].lo passedUpPk:sum(packetBytes) 0
attr interpolationmode none
attr recordingmode sum(packetBytes)
attr source packetSentToUpper
attr title "packets passed to higher layer, sum(packetBytes)"
scalar TsnLinearNetwork.client.lo[0] packetDropInterfaceDown:count 0
attr interpolationmode none
attr recordingmode count
attr source packetDropReasonIsInterfaceDown(packetDropped)
attr title "packet drops: interface down, count"
scalar TsnLinearNetwork.client.lo[0] packetDropInterfaceDown:sum(packetBytes) 0
attr interpolationmode none
attr recordingmode sum(packetBytes)
attr source packetDropReasonIsInterfaceDown(packetDropped)
attr title "packet drops: interface down, sum(packetBytes)"
scalar TsnLinearNetwork.client.lo[0] packetDropNoCarrier:count 0
attr interpolationmode none
attr recordingmode count
attr source packetDropReasonIsNoCarrier(packetDropped)
attr title "packet drops: no carrier, count"
scalar TsnLinearNetwork.client.lo[0] packetDropNoCarrier:sum(packetBytes) 0
attr interpolationmode none
attr recordingmode sum(packetBytes)
attr source packetDropReasonIsNoCarrier(packetDropped)
attr title "packet drops: no carrier, sum(packetBytes)"
scalar TsnLinearNetwork.client.eth[0].macLayer.queue queueLength:last 0
attr autoWarmupFilter false
attr interpolationmode sample-hold
attr recordingmode last
attr source "warmup(atomic(constant0(packetPushEnded) + count(packetPushStarted) - count(packetPulled) - count(packetRemoved) - count(packetDropped)))"
attr title "queue length, last"
attr unit pk
scalar TsnLinearNetwork.client.eth[0].macLayer.queue queueLength:max 12
attr autoWarmupFilter false
attr interpolationmode sample-hold
attr recordingmode max
attr source "warmup(atomic(constant0(packetPushEnded) + count(packetPushStarted) - count(packetPulled) - count(packetRemoved) - count(packetDropped)))"
attr title "queue length, max"
attr unit pk
scalar TsnLinearNetwork.client.eth[0].macLayer.queue queueLength:timeavg 0.474668506102
attr autoWarmupFilter false
attr interpolationmode sample-hold
attr recordingmode timeavg
attr source "warmup(atomic(constant0(packetPushEnded) + count(packetPushStarted) - count(packetPulled) - count(packetRemoved) - count(packetDropped)))"
attr title "queue length, timeavg"
attr unit pk
scalar TsnLinearNetwork.client.eth[0].macLayer.queue queueBitLength:last 0
attr autoWarmupFilter false
attr interpolationmode sample-hold
attr recordingmode last
attr source "warmup(atomic(constant0(packetPushEnded) + sum(packetLength(packetPushStarted)) - sum(packetLength(packetPulled)) - sum(packetLength(packetRemoved)) - sum(packetLength(packetDropped))))"
attr title "queue bit length, last"
attr unit b
scalar TsnLinearNetwork.client.eth[0].macLayer.queue queueBitLength:max 95616
attr autoWarmupFilter false
attr interpolationmode sample-hold
attr recordingmode max
attr source "warmup(atomic(constant0(packetPushEnded) + sum(packetLength(packetPushStarted)) - sum(packetLength(packetPulled)) - sum(packetLength(packetRemoved)) - sum(packetLength(packetDropped))))"
attr title "queue bit length, max"
attr unit b
scalar TsnLinearNetwork.client.eth[0].macLayer.queue queueBitLength:timeavg 3782.1586566207
attr autoWarmupFilter false
attr interpolationmode sample-hold
attr recordingmode timeavg
attr source "warmup(atomic(constant0(packetPushEnded) + sum(packetLength(packetPushStarted)) - sum(packetLength(packetPulled)) - sum(packetLength(packetRemoved)) - sum(packetLength(packetDropped))))"
attr title "queue bit length, timeavg"
attr unit b
statistic TsnLinearNetwork.client.eth[0].macLayer.queue queueingTime:histogram
field count 7362
field mean 6.4475483034773e-05
field stddev 8.9032440317499e-05
field min 0
field max 0.000953737194
field sum 0.474668506102
field sqrsum 8.8953475144372e-05
attr interpolationmode none
attr recordingmode histogram
attr source queueingTime(packetPulled)
attr title "queueing times"
attr unit s
bin	-inf	0
bin	0	3327
bin	2e-05	548
bin	4e-05	598
bin	6e-05	715
bin	8e-05	384
bin	0.0001	355
bin	0.00012	290
bin	0.00014	245
bin	0.00016	171
bin	0.00018	172
bin	0.0002	109
bin	0.00022	97
bin	0.00024	60
bin	0.00026	58
bin	0.00028	41
bin	0.0003	31
bin	0.00032	32
bin	0.00034	33
bin	0.00036	20
bin	0.00038	14
bin	0.0004	12
bin	0.00042	8
bin	0.00044	9
bin	0.00046	5
bin	0.00048	6
bin	0.0005	5
bin	0.00052	1
bin	0.00054	3
bin	0.00056	2
bin	0.00058	0
bin	0.0006	2
bin	0.00062	0
bin	0.00064	0
bin	0.00066	1
bin	0.00068	0
bin	0.0007	0
bin	0.00072	0
bin	0.00074	1
bin	0.00076	1
bin	0.00078	1
bin	0.0008	0
bin	0.00082	1
bin	0.00084	1
bin	0.00086	1
bin	0.00088	1
bin	0.0009	0
bin	0.00092	0
bin	0.00094	1
bin	0.00096	0
scalar TsnLinearNetwork.client.eth[0].macLayer.queue outgoingPackets:count 7362
attr recordingmode count
attr source packetPulled
attr title "outgoing packets, count"
attr unit pk
scalar TsnLinearNetwork.client.eth[0].macLayer.queue outgoingPacketLengths:sum 58660416
attr interpolationmode none
attr recordingmode sum
attr source packetLength(packetPulled)
attr title "outgoing packet lengths, sum"
attr unit b
statistic TsnLinearNetwork.client.eth[0].macLayer.queue outgoingPacketLengths:histogram
field count 7362
field mean 7968
field stddev 0
field min 7968
field max 7968
field sum 58660416
field sqrsum 467406194688
attr interpolationmode none
attr recordingmode histogram
attr source packetLength(packetPulled)
attr title "outgoing packet lengths"
attr unit b
bin	-inf	0
bin	7967	0
bin	7968	7362
bin	7969	0
statistic TsnLinearNetwork.client.eth[0].macLayer.queue flowQueueingTime:histogram
field count 0
field mean -nan
field stddev nan
field min nan
field max nan
field sum 0
field sqrsum 0
attr interpolationmode none
attr recordingmode histogram
attr source queueingTime(demuxFlow(packetPulled))
attr title "flow queueing times"
attr unit s
bin	-inf	0
bin	0	0
bin	1	0
scalar TsnLinearNetwork.client.eth[0].macLayer.queue incomingPackets:count 7362
attr recordingmode count
attr source packetPushStarted
attr title "incoming packets, count"
attr unit pk
scalar TsnLinearNetwork.client.eth[0].macLayer.queue incomingPacketLengths:sum 58660416
attr interpolationmode none
attr recordingmode sum
attr source packetLength(packetPushStarted)
attr title "incoming packet lengths, sum"
attr unit b
statistic TsnLinearNetwork.client.eth[0].macLayer.queue incomingPacketLengths:histogram
field count 7362
field mean 7968
field stddev 0
field min 7968
field max 7968
field sum 58660416
field sqrsum 467406194688
attr interpolationmode none
attr recordingmode histogram
attr source packetLength(packetPushStarted)
attr title "incoming packet lengths"
attr unit b
bin	-inf	0
bin	7967	0
bin	7968	7362
bin	7969	0
scalar TsnLinearNetwork.client.eth[0].macLayer.queue droppedPacketsQueueOverflow:count 0
attr interpolationmode none
attr recordingmode count
attr source packetDropReasonIsQueueOverflow(packetDropped)
attr title "dropped packets: queue overflow, count"
attr unit pk
scalar TsnLinearNetwork.client.eth[0].macLayer.queue droppedPacketLengthsQueueOverflow:sum 0
attr interpolationmode none
attr recordingmode sum
attr source packetLength(packetDropReasonIsQueueOverflow(packetDropped))
attr title "dropped packet lengths: queue overflow, sum"
attr unit b
scalar TsnLinearNetwork.client.eth[0].macLayer.server incomingPackets:count 7362
attr recordingmode count
attr source packetPulled
attr title "incoming packets, count"
attr unit pk
scalar TsnLinearNetwork.client.eth[0].macLayer.server incomingPacketLengths:sum 58660416
attr interpolationmode none
attr recordingmode sum
attr source packetLength(packetPulled)
attr title "incoming packet lengths, sum"
attr unit b
statistic TsnLinearNetwork.client.eth[0].macLayer.server incomingPacketLengths:histogram
field count 7362
field mean 7968
field stddev 0
field min 7968
field max 7968
field sum 58660416
field sqrsum 467406194688
attr interpolationmode none
attr recordingmode histogram
attr source packetLength(packetPulled)
attr title "incoming packet lengths"
attr unit b
bin	-inf	0
bin	7967	0
bin	7968	7362
bin	7969	0
scalar TsnLinearNetwork.client.eth[0].macLayer.server outgoingPackets:count 7362
attr recordingmode count
attr source packetPushed
attr title "outgoing packets, count"
attr unit pk
scalar TsnLinearNetwork.client.eth[0].macLayer.server outgoingPacketLengths:sum 58660416
attr interpolationmode none
attr recordingmode sum
attr source packetLength(packetPushed)
attr title "outgoing packet lengths, sum"
attr unit b
statistic TsnLinearNetwork.client.eth[0].macLayer.server outgoingPacketLengths:histogram
field count 7362
field mean 7968
field stddev 0
field min 7968
field max 7968
field sum 58660416
field sqrsum 467406194688
attr interpolationmode none
attr recordingmode histogram
attr source packetLength(packetPushed)
attr title "outgoing packet lengths"
attr unit b
bin	-inf	0
bin	7967	0
bin	7968	7362
bin	7969	0
scalar TsnLinearNetwork.client.eth[0].macLayer.outboundEmitter outgoingPackets:count 7362
attr recordingmode count
attr source "merge(packetPushedOut, packetPulledOut)"
attr title "outgoing packets, count"
attr unit pk
scalar TsnLinearNetwork.client.eth[0].macLayer.outboundEmitter outgoingPacketLengths:sum 58660416
attr interpolationmode none
attr recordingmode sum
attr source "packetLength(merge(packetPushedOut, packetPulledOut))"
attr title "outgoing packet lengths, sum"
attr unit b
statistic TsnLinearNetwork.client.eth[0].macLayer.outboundEmitter outgoingPacketLengths:histogram
field count 7362
field mean 7968
field stddev 0
field min 7968
field max 7968
field sum 58660416
field sqrsum 467406194688
attr interpolationmode none
attr recordingmode histogram
attr source "packetLength(merge(packetPushedOut, packetPulledOut))"
attr title "outgoing packet lengths"
attr unit b
bin	-inf	0
bin	7967	0
bin	7968	7362
bin	7969	0
scalar TsnLinearNetwork.client.eth[0].macLayer.outboundEmitter flowOutgoingPacketLengths:sum 0
attr interpolationmode none
attr recordingmode sum
attr source "packetLength(demuxFlow(merge(packetPushedOut, packetPulledOut)))"
attr title "flow specific outgoing packet lengths, sum"
attr unit b
statistic TsnLinearNetwork.client.eth[0].macLayer.outboundEmitter flowOutgoingPacketLengths:histogram
field count 0
field mean -nan
field stddev nan
field min nan
field max nan
field sum 0
field sqrsum 0
attr interpolationmode none
attr recordingmode histogram
attr source "packetLength(demuxFlow(merge(packetPushedOut, packetPulledOut)))"
attr title "flow specific outgoing packet lengths"
attr unit b
bin	-inf	0
bin	0	0
bin	1	0
scalar TsnLinearNetwork.client.eth[0].macLayer.outboundEmitter incomingPackets:count 7362
attr recordingmode count
attr source "merge(packetPushedIn, packetPulledIn)"
attr title "incoming packets, count"
attr unit pk
scalar TsnLinearNetwork.client.eth[0].macLayer.outboundEmitter incomingPacketLengths:sum 58660416
attr interpolationmode none
attr recordingmode sum
attr source "packetLength(merge(packetPushedIn, packetPulledIn))"
attr title "incoming packet lengths, sum"
attr unit b
statistic TsnLinearNetwork.client.eth[0].macLayer.outboundEmitter incomingPacketLengths:histogram
field count 7362
field mean 7968
field stddev 0
field min 7968
field max 7968
field sum 58660416
field sqrsum 467406194688
attr interpolationmode none
attr recordingmode histogram
attr source "packetLength(merge(packetPushedIn, packetPulledIn))"
attr title "incoming packet lengths"
attr unit b
bin	-inf	0
bin	7967	0
bin	7968	7362
bin	7969	0
scalar TsnLinearNetwork.client.eth[0].macLayer.outboundEmitter flowIncomingPacketLengths:sum 0
attr interpolationmode none
attr recordingmode sum
attr source "packetLength(demuxFlow(merge(packetPushedIn, packetPulledIn)))"
attr title "flow specific incoming packet lengths, sum"
attr unit b
statistic TsnLinearNetwork.client.eth[0].macLayer.outboundEmitter flowIncomingPacketLengths:histogram
field count 0
field mean -nan
field stddev nan
field min nan
field max nan
field sum 0
field sqrsum 0
attr interpolationmode none
attr recordingmode histogram
attr source "packetLength(demuxFlow(merge(packetPushedIn, packetPulledIn)))"
attr title "flow specific incoming packet lengths"
attr unit b
bin	-inf	0
bin	0	0
bin	1	0
scalar TsnLinearNetwork.client.eth[0].macLayer.fcsChecker outgoingPackets:count 0
attr recordingmode count
attr source "merge(packetPushedOut, packetPulledOut)"
attr title "outgoing packets, count"
attr unit pk
scalar TsnLinearNetwork.client.eth[0].macLayer.fcsChecker outgoingPacketLengths:sum 0
attr interpolationmode none
attr recordingmode sum
attr source "packetLength(merge(packetPushedOut, packetPulledOut))"
attr title "outgoing packet lengths, sum"
attr unit b
statistic TsnLinearNetwork.client.eth[0].macLayer.fcsChecker outgoingPacketLengths:histogram
field count 0
field mean -nan
field stddev nan
field min nan
field max nan
field sum 0
field sqrsum 0
attr interpolationmode none
attr recordingmode histogram
attr source "packetLength(merge(packetPushedOut, packetPulledOut))"
attr title "outgoing packet lengths"
attr unit b
bin	-inf	0
bin	0	0
bin	1	0
scalar TsnLinearNetwork.client.eth[0].macLayer.fcsChecker flowOutgoingPacketLengths:sum 0
attr interpolationmode none
attr recordingmode sum
attr source "packetLength(demuxFlow(merge(packetPushedOut, packetPulledOut)))"
attr title "flow specific outgoing packet lengths, sum"
attr unit b
statistic TsnLinearNetwork.client.eth[0].macLayer.fcsChecker flowOutgoingPacketLengths:histogram
field count 0
field mean -nan
field stddev nan
field min nan
field max nan
field sum 0
field sqrsum 0
attr interpolationmode none
attr recordingmode histogram
attr source "packetLength(demuxFlow(merge(packetPushedOut, packetPulledOut)))"
attr title "flow specific outgoing packet lengths"
attr unit b
bin	-inf	0
bin	0	0
bin	1	0
scalar TsnLinearNetwork.client.eth[0].macLayer.fcsChecker incomingPackets:count 0
attr recordingmode count
attr source "merge(packetPushedIn, packetPulledIn)"
attr title "incoming packets, count"
attr unit pk
scalar TsnLinearNetwork.client.eth[0].macLayer.fcsChecker incomingPacketLengths:sum 0
attr interpolationmode none
attr recordingmode sum
attr source "packetLength(merge(packetPushedIn, packetPulledIn))"
attr title "incoming packet lengths, sum"
attr unit b
statistic TsnLinearNetwork.client.eth[0].macLayer.fcsChecker incomingPacketLengths:histogram
field count 0
field mean -nan
field stddev nan
field min nan
field max nan
field sum 0
field sqrsum 0
attr interpolationmode none
attr recordingmode histogram
attr source "packetLength(merge(packetPushedIn, packetPulledIn))"
attr title "incoming packet lengths"
attr unit b
bin	-inf	0
bin	0	0
bin	1	0
scalar TsnLinearNetwork.client.eth[0].macLayer.fcsChecker flowIncomingPacketLengths:sum 0
attr interpolationmode none
attr recordingmode sum
attr source "packetLength(demuxFlow(merge(packetPushedIn, packetPulledIn)))"
attr title "flow specific incoming packet lengths, sum"
attr unit b
statistic TsnLinearNetwork.client.eth[0].macLayer.fcsChecker flowIncomingPacketLengths:histogram
field count 0
field mean -nan
field stddev nan
field min nan
field max nan
field sum 0
field sqrsum 0
attr interpolationmode none
attr recordingmode histogram
attr source "packetLength(demuxFlow(merge(packetPushedIn, packetPulledIn)))"
attr title "flow specific incoming packet lengths"
attr unit b
bin	-inf	0
bin	0	0
bin	1	0
scalar TsnLinearNetwork.client.eth[0].macLayer.fcsChecker droppedPackets:count 0
attr recordingmode count
attr source packetDropped
attr title "dropped packets, count"
attr unit pk
scalar TsnLinearNetwork.client.eth[0].macLayer.fcsChecker droppedPacketLengths:sum 0
attr interpolationmode none
attr recordingmode sum
attr source packetLength(packetDropped)
attr title "dropped packet lengths, sum"
attr unit b
statistic TsnLinearNetwork.client.eth[0].macLayer.fcsChecker droppedPacketLengths:histogram
field count 0
field mean -nan
field stddev nan
field min nan
field max nan
field sum 0
field sqrsum 0
attr interpolationmode none
attr recordingmode histogram
attr source packetLength(packetDropped)
attr title "dropped packet lengths"
attr unit b
bin	-inf	0
bin	0	0
bin	1	0
scalar TsnLinearNetwork.client.eth[0].macLayer.fcsChecker flowDroppedPacketLengths:sum 0
attr interpolationmode none
attr recordingmode sum
attr source packetLength(demuxFlow(packetDropped))
attr title "flow specific dropped packet lengths, sum"
attr unit b
statistic TsnLinearNetwork.client.eth[0].macLayer.fcsChecker flowDroppedPacketLengths:histogram
field count 0
field mean -nan
field stddev nan
field min nan
field max nan
field sum 0
field sqrsum 0
attr interpolationmode none
attr recordingmode histogram
attr source packetLength(demuxFlow(packetDropped))
attr title "flow specific dropped packet lengths"
attr unit b
bin	-inf	0
bin	0	0
bin	1	0
scalar TsnLinearNetwork.client.eth[0].macLayer.inboundEmitter outgoingPackets:count 0
attr recordingmode count
attr source "merge(packetPushedOut, packetPulledOut)"
attr title "outgoing packets, count"
attr unit pk
scalar TsnLinearNetwork.client.eth[0].macLayer.inboundEmitter outgoingPacketLengths:sum 0
attr interpolationmode none
attr recordingmode sum
attr source "packetLength(merge(packetPushedOut, packetPulledOut))"
attr title "outgoing packet lengths, sum"
attr unit b
statistic TsnLinearNetwork.client.eth[0].macLayer.inboundEmitter outgoingPacketLengths:histogram
field count 0
field mean -nan
field stddev nan
field min nan
field max nan
field sum 0
field sqrsum 0
attr interpolationmode none
attr recordingmode histogram
attr source "packetLength(merge(packetPushedOut, packetPulledOut))"
attr title "outgoing packet lengths"
attr unit b
bin	-inf	0
bin	0	0
bin	1	0
scalar TsnLinearNetwork.client.eth[0].macLayer.inboundEmitter flowOutgoingPacketLengths:sum 0
attr interpolationmode none
attr recordingmode sum
attr source "packetLength(demuxFlow(merge(packetPushedOut, packetPulledOut)))"
attr title "flow specific outgoing packet lengths, sum"
attr unit b
statistic TsnLinearNetwork.client.eth[0].macLayer.inboundEmitter flowOutgoingPacketLengths:histogram
field count 0
field mean -nan
field stddev nan
field min nan
field max nan
field sum 0
field sqrsum 0
attr interpolationmode none
attr recordingmode histogram
attr source "packetLength(demuxFlow(merge(packetPushedOut, packetPulledOut)))"
attr title "flow specific outgoing packet lengths"
attr unit b
bin	-inf	0
bin	0	0
bin	1	0
scalar TsnLinearNetwork.client.eth[0].macLayer.inboundEmitter incomingPackets:count 0
attr recordingmode count
attr source "merge(packetPushedIn, packetPulledIn)"
attr title "incoming packets, count"
attr unit pk
scalar TsnLinearNetwork.client.eth[0].macLayer.inboundEmitter incomingPacketLengths:sum 0
attr interpolationmode none
attr recordingmode sum
attr source "packetLength(merge(packetPushedIn, packetPulledIn))"
attr title "incoming packet lengths, sum"
attr unit b
statistic TsnLinearNetwork.client.eth[0].macLayer.inboundEmitter incomingPacketLengths:histogram
field count 0
field mean -nan
field stddev nan
field min nan
field max nan
field sum 0
field sqrsum 0
attr interpolationmode none
attr recordingmode histogram
attr source "packetLength(merge(packetPushedIn, packetPulledIn))"
attr title "incoming packet lengths"
attr unit b
bin	-inf	0
bin	0	0
bin	1	0
scalar TsnLinearNetwork.client.eth[0].macLayer.inboundEmitter flowIncomingPacketLengths:sum 0
attr interpolationmode none
attr recordingmode sum
attr source "packetLength(demuxFlow(merge(packetPushedIn, packetPulledIn)))"
attr title "flow specific incoming packet lengths, sum"
attr unit b
statistic TsnLinearNetwork.client.eth[0].macLayer.inboundEmitter flowIncomingPacketLengths:histogram
field count 0
field mean -nan
field stddev nan
field min nan
field max nan
field sum 0
field sqrsum 0
attr interpolationmode none
attr recordingmode histogram
attr source "packetLength(demuxFlow(merge(packetPushedIn, packetPulledIn)))"
attr title "flow specific incoming packet lengths"
attr unit b
bin	-inf	0
bin	0	0
bin	1	0
scalar TsnLinearNetwork.client.eth[0].phyLayer.phyHeaderInserter outgoingPackets:count 7362
attr recordingmode count
attr source "merge(packetPushedOut, packetPulledOut)"
attr title "outgoing packets, count"
attr unit pk
scalar TsnLinearNetwork.client.eth[0].phyLayer.phyHeaderInserter outgoingPacketLengths:sum 59131584
attr interpolationmode none
attr recordingmode sum
attr source "packetLength(merge(packetPushedOut, packetPulledOut))"
attr title "outgoing packet lengths, sum"
attr unit b
statistic TsnLinearNetwork.client.eth[0].phyLayer.phyHeaderInserter outgoingPacketLengths:histogram
field count 7362
field mean 8032
field stddev 0
field min 8032
field max 8032
field sum 59131584
field sqrsum 474944882688
attr interpolationmode none
attr recordingmode histogram
attr source "packetLength(merge(packetPushedOut, packetPulledOut))"
attr title "outgoing packet lengths"
attr unit b
bin	-inf	0
bin	8031	0
bin	8032	7362
bin	8033	0
scalar TsnLinearNetwork.client.eth[0].phyLayer.phyHeaderInserter flowOutgoingPacketLengths:sum 0
attr interpolationmode none
attr recordingmode sum
attr source "packetLength(demuxFlow(merge(packetPushedOut, packetPulledOut)))"
attr title "flow specific outgoing packet lengths, sum"
attr unit b
statistic TsnLinearNetwork.client.eth[0].phyLayer.phyHeaderInserter flowOutgoingPacketLengths:histogram
field count 0
field mean -nan
field stddev nan
field min nan
field max nan
field sum 0
field sqrsum 0
attr interpolationmode none
attr recordingmode histogram
attr source "packetLength(demuxFlow(merge(packetPushedOut, packetPulledOut)))"
attr title "flow specific outgoing packet lengths"
attr unit b
bin	-inf	0
bin	0	0
bin	1	0
scalar TsnLinearNetwork.client.eth[0].phyLayer.phyHeaderInserter incomingPackets:count 7362
attr recordingmode count
attr source "merge(packetPushedIn, packetPulledIn)"
attr title "incoming packets, count"
attr unit pk
scalar TsnLinearNetwork.client.eth[0].phyLayer.phyHeaderInserter incomingPacketLengths:sum 58660416
attr interpolationmode none
attr recordingmode sum
attr source "packetLength(merge(packetPushedIn, packetPulledIn))"
attr title "incoming packet lengths, sum"
attr unit b
statistic TsnLinearNetwork.client.eth[0].phyLayer.phyHeaderInserter incomingPacketLengths:histogram
field count 7362
field mean 7968
field stddev 0
field min 7968
field max 7968
field sum 58660416
field sqrsum 467406194688
attr interpolationmode none
attr recordingmode histogram
attr source "packetLength(merge(packetPushedIn, packetPulledIn))"
attr title "incoming packet lengths"
attr unit b
bin	-inf	0
bin	7967	0
bin	7968	7362
bin	7969	0
scalar TsnLinearNetwork.client.eth[0].phyLayer.phyHeaderInserter flowIncomingPacketLengths:sum 0
attr interpolationmode none
attr recordingmode sum
attr source "packetLength(demuxFlow(merge(packetPushedIn, packetPulledIn)))"
attr title "flow specific incoming packet lengths, sum"
attr unit b
statistic TsnLinearNetwork.client.eth[0].phyLayer.phyHeaderInserter flowIncomingPacketLengths:histogram
field count 0
field mean -nan
field stddev nan
field min nan
field max nan
field sum 0
field sqrsum 0
attr interpolationmode none
attr recordingmode histogram
attr source "packetLength(demuxFlow(merge(packetPushedIn, packetPulledIn)))"
attr title "flow specific incoming packet lengths"
attr unit b
bin	-inf	0
bin	0	0
bin	1	0
scalar TsnLinearNetwork.client.eth[0].phyLayer.outboundEmitter outgoingPackets:count 7362
attr recordingmode count
attr source "merge(packetPushedOut, packetPulledOut)"
attr title "outgoing packets, count"
attr unit pk
scalar TsnLinearNetwork.client.eth[0].phyLayer.outboundEmitter outgoingPacketLengths:sum 59131584
attr interpolationmode none
attr recordingmode sum
attr source "packetLength(merge(packetPushedOut, packetPulledOut))"
attr title "outgoing packet lengths, sum"
attr unit b
statistic TsnLinearNetwork.client.eth[0].phyLayer.outboundEmitter outgoingPacketLengths:histogram
field count 7362
field mean 8032
field stddev 0
field min 8032
field max 8032
field sum 59131584
field sqrsum 474944882688
attr interpolationmode none
attr recordingmode histogram
attr source "packetLength(merge(packetPushedOut, packetPulledOut))"
attr title "outgoing packet lengths"
attr unit b
bin	-inf	0
bin	8031	0
bin	8032	7362
bin	8033	0
scalar TsnLinearNetwork.client.eth[0].phyLayer.outboundEmitter flowOutgoingPacketLengths:sum 0
attr interpolationmode none
attr recordingmode sum
attr source "packetLength(demuxFlow(merge(packetPushedOut, packetPulledOut)))"
attr title "flow specific outgoing packet lengths, sum"
attr unit b
statistic TsnLinearNetwork.client.eth[0].phyLayer.outboundEmitter flowOutgoingPacketLengths:histogram
field count 0
field mean -nan
field stddev nan
field min nan
field max nan
field sum 0
field sqrsum 0
attr interpolationmode none
attr recordingmode histogram
attr source "packetLength(demuxFlow(merge(packetPushedOut, packetPulledOut)))"
attr title "flow specific outgoing packet lengths"
attr unit b
bin	-inf	0
bin	0	0
bin	1	0
scalar TsnLinearNetwork.client.eth[0].phyLayer.outboundEmitter incomingPackets:count 7362
attr recordingmode count
attr source "merge(packetPushedIn, packetPulledIn)"
attr title "incoming packets, count"
attr unit pk
scalar TsnLinearNetwork.client.eth[0].phyLayer.outboundEmitter incomingPacketLengths:sum 59131584
attr interpolationmode none
attr recordingmode sum
attr source "packetLength(merge(packetPushedIn, packetPulledIn))"
attr title "incoming packet lengths, sum"
attr unit b
statistic TsnLinearNetwork.client.eth[0].phyLayer.outboundEmitter incomingPacketLengths:histogram
field count 7362
field mean 8032
field stddev 0
field min 8032
field max 8032
field sum 59131584
field sqrsum 474944882688
attr interpolationmode none
attr recordingmode histogram
attr source "packetLength(merge(packetPushedIn, packetPulledIn))"
attr title "incoming packet lengths"
attr unit b
bin	-inf	0
bin	8031	0
bin	8032	7362
bin	8033	0
scalar TsnLinearNetwork.client.eth[0].phyLayer.outboundEmitter flowIncomingPacketLengths:sum 0
attr interpolationmode none
attr recordingmode sum
attr source "packetLength(demuxFlow(merge(packetPushedIn, packetPulledIn)))"
attr title "flow specific incoming packet lengths, sum"
attr unit b
statistic TsnLinearNetwork.client.eth[0].phyLayer.outboundEmitter flowIncomingPacketLengths:histogram
field count 0
field mean -nan
field stddev nan
field min nan
field max nan
field sum 0
field sqrsum 0
attr interpolationmode none
attr recordingmode histogram
attr source "packetLength(demuxFlow(merge(packetPushedIn, packetPulledIn)))"
attr title "flow specific incoming packet lengths"
attr unit b
bin	-inf	0
bin	0	0
bin	1	0
scalar TsnLinearNetwork.client.eth[0].phyLayer.transmitter propagationTime 5e-08
statistic TsnLinearNetwork.client.eth[0].phyLayer.transmitter throughput:histogram
field count 74
field mean 59527144.568207
field stddev 4966672.4525383
field min 48379437.814419
field max 72017602.055961
field sum 4405008698.0473
field sqrsum 2.6401834156618e+17
attr interpolationmode linear
attr recordingmode histogram
attr source throughput(transmissionEnded)
attr title throughput
attr unit bps
bin	-inf	0
bin	42000000	0
bin	42500000	0
bin	43000000	0
bin	43500000	0
bin	44000000	0
bin	44500000	0
bin	45000000	0
bin	45500000	0
bin	46000000	0
bin	46500000	0
bin	47000000	0
bin	47500000	0
bin	48000000	1
bin	48500000	0
bin	49000000	0
bin	49500000	0
bin	50000000	0
bin	50500000	1
bin	51000000	1
bin	51500000	0
bin	52000000	1
bin	52500000	1
bin	53000000	1
bin	53500000	1
bin	54000000	1
bin	54500000	2
bin	55000000	2
bin	55500000	3
bin	56000000	4
bin	56500000	6
bin	57000000	3
bin	57500000	7
bin	58000000	2
bin	58500000	3
bin	59000000	1
bin	59500000	3
bin	60000000	3
bin	60500000	2
bin	61000000	4
bin	61500000	5
bin	62000000	1
bin	62500000	1
bin	63000000	1
bin	63500000	1
bin	64000000	2
bin	64500000	1
bin	65000000	0
bin	65500000	1
bin	66000000	0
bin	66500000	0
bin	67000000	0
bin	67500000	0
bin	68000000	1
bin	68500000	0
bin	69000000	3
bin	69500000	0
bin	70000000	2
bin	70500000	0
bin	71000000	1
bin	71500000	0
bin	72000000	1
bin	72500000	0
bin	73000000	0
bin	73500000	0
bin	74000000	0
bin	74500000	0
bin	75000000	0
bin	75500000	0
bin	76000000	0
bin	76500000	0
bin	77000000	0
bin	77500000	0
bin	78000000	0
statistic TsnLinearNetwork.client.eth[0].phyLayer.transmitter utilization:histogram
field count 74
field mean 59.541156592251
field stddev 4.9835141935653
field min 48.379437814419
field max 72.246469307849
field sum 4406.0455878266
field sqrsum 264154.03549875
attr interpolationmode linear
attr recordingmode histogram
attr source "100 * utilization(count(transmissionStarted) - count(transmissionEnded))"
attr title utilization
attr unit %
bin	-inf	0
bin	42	0
bin	42.5	0
bin	43	0
bin	43.5	0
bin	44	0
bin	44.5	0
bin	45	0
bin	45.5	0
bin	46	0
bin	46.5	0
bin	47	0
bin	47.5	0
bin	48	1
bin	48.5	0
bin	49	0
bin	49.5	0
bin	50	1
bin	50.5	0
bin	51	1
bin	51.5	0
bin	52	1
bin	52.5	1
bin	53	1
bin	53.5	1
bin	54	1
bin	54.5	2
bin	55	1
bin	55.5	4
bin	56	5
bin	56.5	7
bin	57	1
bin	57.5	6
bin	58	1
bin	58.5	3
bin	59	2
bin	59.5	5
bin	60	2
bin	60.5	3
bin	61	3
bin	61.5	2
bin	62	4
bin	62.5	1
bin	63	1
bin	63.5	3
bin	64	0
bin	64.5	1
bin	65	0
bin	65.5	1
bin	66	0
bin	66.5	0
bin	67	0
bin	67.5	1
bin	68	1
bin	68.5	1
bin	69	1
bin	69.5	0
bin	70	1
bin	70.5	1
bin	71	0
bin	71.5	1
bin	72	1
bin	72.5	0
bin	73	0
bin	73.5	0
bin	74	0
bin	74.5	0
bin	75	0
bin	75.5	0
bin	76	0
bin	76.5	0
bin	77	0
bin	77.5	0
bin	78	0
bin	78.5	0
statistic TsnLinearNetwork.client.eth[0].phyLayer.transmitter transmissionTime:histogram
field count 7361
field mean 8.0320000000011e-05
field stddev 0
field min 8.032e-05
field max 8.032e-05
field sum 0.59123552000008
field sqrsum 4.7488036966399e-05
attr interpolationmode none
attr recordingmode histogram
attr source packetDuration(transmissionEnded)
attr title "transmission time"
attr unit s
bin	-inf	0
bin	0	7361
bin	0.01	0
bin	0.02	0
bin	0.03	0
bin	0.04	0
bin	0.05	0
bin	0.06	0
bin	0.07	0
bin	0.08	0
bin	0.09	0
bin	0.1	0
bin	0.11	0
bin	0.12	0
bin	0.13	0
bin	0.14	0
bin	0.15	0
bin	0.16	0
bin	0.17	0
bin	0.18	0
bin	0.19	0
bin	0.2	0
bin	0.21	0
bin	0.22	0
bin	0.23	0
bin	0.24	0
bin	0.25	0
bin	0.26	0
bin	0.27	0
bin	0.28	0
bin	0.29	0
bin	0.3	0
bin	0.31	0
bin	0.32	0
bin	0.33	0
bin	0.34	0
bin	0.35	0
bin	0.36	0
bin	0.37	0
bin	0.38	0
bin	0.39	0
bin	0.4	0
bin	0.41	0
bin	0.42	0
bin	0.43	0
bin	0.44	0
bin	0.45	0
bin	0.46	0
bin	0.47	0
bin	0.48	0
bin	0.49	0
bin	0.5	0
bin	0.51	0
statistic TsnLinearNetwork.client.eth[0].phyLayer.transmitter flowTransmissionTime:histogram
field count 0
field mean -nan
field stddev nan
field min nan
field max nan
field sum 0
field sqrsum 0
attr interpolationmode none
attr recordingmode histogram
attr source packetDuration(demuxFlow(transmissionEnded))
attr title "flow transmission time"
attr unit s
bin	-inf	0
bin	0	0
bin	1	0
scalar TsnLinearNetwork.client.eth[0].phyLayer.phyHeaderChecker outgoingPackets:count 0
attr recordingmode count
attr source "merge(packetPushedOut, packetPulledOut)"
attr title "outgoing packets, count"
attr unit pk
scalar TsnLinearNetwork.client.eth[0].phyLayer.phyHeaderChecker outgoingPacketLengths:sum 0
attr interpolationmode none
attr recordingmode sum
attr source "packetLength(merge(packetPushedOut, packetPulledOut))"
attr title "outgoing packet lengths, sum"
attr unit b
statistic TsnLinearNetwork.client.eth[0].phyLayer.phyHeaderChecker outgoingPacketLengths:histogram
field count 0
field mean -nan
field stddev nan
field min nan
field max nan
field sum 0
field sqrsum 0
attr interpolationmode none
attr recordingmode histogram
attr source "packetLength(merge(packetPushedOut, packetPulledOut))"
attr title "outgoing packet lengths"
attr unit b
bin	-inf	0
bin	0	0
bin	1	0
scalar TsnLinearNetwork.client.eth[0].phyLayer.phyHeaderChecker flowOutgoingPacketLengths:sum 0
attr interpolationmode none
attr recordingmode sum
attr source "packetLength(demuxFlow(merge(packetPushedOut, packetPulledOut)))"
attr title "flow specific outgoing packet lengths, sum"
attr unit b
statistic TsnLinearNetwork.client.eth[0].phyLayer.phyHeaderChecker flowOutgoingPacketLengths:histogram
field count 0
field mean -nan
field stddev nan
field min nan
field max nan
field sum 0
field sqrsum 0
attr interpolationmode none
attr recordingmode histogram
attr source "packetLength(demuxFlow(merge(packetPushedOut, packetPulledOut)))"
attr title "flow specific outgoing packet lengths"
attr unit b
bin	-inf	0
bin	0	0
bin	1	0
scalar TsnLinearNetwork.client.eth[0].phyLayer.phyHeaderChecker incomingPackets:count 0
attr recordingmode count
attr source "merge(packetPushedIn, packetPulledIn)"
attr title "incoming packets, count"
attr unit pk
scalar TsnLinearNetwork.client.eth[0].phyLayer.phyHeaderChecker incomingPacketLengths:sum 0
attr interpolationmode none
attr recordingmode sum
attr source "packetLength(merge(packetPushedIn, packetPulledIn))"
attr title "incoming packet lengths, sum"
attr unit b
statistic TsnLinearNetwork.client.eth[0].phyLayer.phyHeaderChecker incomingPacketLengths:histogram
field count 0
field mean -nan
field stddev nan
field min nan
field max nan
field sum 0
field sqrsum 0
attr interpolationmode none
attr recordingmode histogram
attr source "packetLength(merge(packetPushedIn, packetPulledIn))"
attr title "incoming packet lengths"
attr unit b
bin	-inf	0
bin	0	0
bin	1	0
scalar TsnLinearNetwork.client.eth[0].phyLayer.phyHeaderChecker flowIncomingPacketLengths:sum 0
attr interpolationmode none
attr recordingmode sum
attr source "packetLength(demuxFlow(merge(packetPushedIn, packetPulledIn)))"
attr title "flow specific incoming packet lengths, sum"
attr unit b
statistic TsnLinearNetwork.client.eth[0].phyLayer.phyHeaderChecker flowIncomingPacketLengths:histogram
field count 0
field mean -nan
field stddev nan
field min nan
field max nan
field sum 0
field sqrsum 0
attr interpolationmode none
attr recordingmode histogram
attr source "packetLength(demuxFlow(merge(packetPushedIn, packetPulledIn)))"
attr title "flow specific incoming packet lengths"
attr unit b
bin	-inf	0
bin	0	0
bin	1	0
scalar TsnLinearNetwork.client.eth[0].phyLayer.phyHeaderChecker droppedPackets:count 0
attr recordingmode count
attr source packetDropped
attr title "dropped packets, count"
attr unit pk
scalar TsnLinearNetwork.client.eth[0].phyLayer.phyHeaderChecker droppedPacketLengths:sum 0
attr interpolationmode none
attr recordingmode sum
attr source packetLength(packetDropped)
attr title "dropped packet lengths, sum"
attr unit b
statistic TsnLinearNetwork.client.eth[0].phyLayer.phyHeaderChecker droppedPacketLengths:histogram
field count 0
field mean -nan
field stddev nan
field min nan
field max nan
field sum 0
field sqrsum 0
attr interpolationmode none
attr recordingmode histogram
attr source packetLength(packetDropped)
attr title "dropped packet lengths"
attr unit b
bin	-inf	0
bin	0	0
bin	1	0
scalar TsnLinearNetwork.client.eth[0].phyLayer.phyHeaderChecker flowDroppedPacketLengths:sum 0
attr interpolationmode none
attr recordingmode sum
attr source packetLength(demuxFlow(packetDropped))
attr title "flow specific dropped packet lengths, sum"
attr unit b
statistic TsnLinearNetwork.client.eth[0].phyLayer.phyHeaderChecker flowDroppedPacketLengths:histogram
field count 0
field mean -nan
field stddev nan
field min nan
field max nan
field sum 0
field sqrsum 0
attr interpolationmode none
attr recordingmode histogram
attr source packetLength(demuxFlow(packetDropped))
attr title "flow specific dropped packet lengths"
attr unit b
bin	-inf	0
bin	0	0
bin	1	0
scalar TsnLinearNetwork.client.eth[0].phyLayer.inboundEmitter outgoingPackets:count 0
attr recordingmode count
attr source "merge(packetPushedOut, packetPulledOut)"
attr title "outgoing packets, count"
attr unit pk
scalar TsnLinearNetwork.client.eth[0].phyLayer.inboundEmitter outgoingPacketLengths:sum 0
attr interpolationmode none
attr recordingmode sum
attr source "packetLength(merge(packetPushedOut, packetPulledOut))"
attr title "outgoing packet lengths, sum"
attr unit b
statistic TsnLinearNetwork.client.eth[0].phyLayer.inboundEmitter outgoingPacketLengths:histogram
field count 0
field mean -nan
field stddev nan
field min nan
field max nan
field sum 0
field sqrsum 0
attr interpolationmode none
attr recordingmode histogram
attr source "packetLength(merge(packetPushedOut, packetPulledOut))"
attr title "outgoing packet lengths"
attr unit b
bin	-inf	0
bin	0	0
bin	1	0
[...]
scalar TsnLinearNetwork.server.eth[0] packetDropNoCarrier:sum(packetBytes) 0
attr interpolationmode none
attr recordingmode sum(packetBytes)
attr source packetDropReasonIsNoCarrier(packetDropped)
attr title "packet drops: no carrier, sum(packetBytes)"
scalar TsnLinearNetwork.server.ipv4.ip packetDropAddressResolutionFailed:count 0
attr interpolationmode none
attr recordingmode count
attr source packetDropReasonIsAddressResolutionFailed(packetDropped)
attr title "packet drop: address resolution failed, count"
scalar TsnLinearNetwork.server.ipv4.ip packetDropAddressResolutionFailed:sum(packetBytes) 0
attr interpolationmode none
attr recordingmode sum(packetBytes)
attr source packetDropReasonIsAddressResolutionFailed(packetDropped)
attr title "packet drop: address resolution failed, sum(packetBytes)"
scalar TsnLinearNetwork.server.ipv4.ip packetDropHopLimitReached:count 0
attr interpolationmode none
attr recordingmode count
attr source packetDropReasonIsHopLimitReached(packetDropped)
attr title "packet drop: hop limit reached, count"
scalar TsnLinearNetwork.server.ipv4.ip packetDropHopLimitReached:sum(packetBytes) 0
attr interpolationmode none
attr recordingmode sum(packetBytes)
attr source packetDropReasonIsHopLimitReached(packetDropped)
attr title "packet drop: hop limit reached, sum(packetBytes)"
scalar TsnLinearNetwork.server.ipv4.ip packetDropForwardingDisabled:count 0
attr interpolationmode none
attr recordingmode count
attr source packetDropReasonIsForwardingDisabled(packetDropped)
attr title "packet drop: forwarding disabled, count"
scalar TsnLinearNetwork.server.ipv4.ip packetDropForwardingDisabled:sum(packetBytes) 0
attr interpolationmode none
attr recordingmode sum(packetBytes)
attr source packetDropReasonIsForwardingDisabled(packetDropped)
attr title "packet drop: forwarding disabled, sum(packetBytes)"
scalar TsnLinearNetwork.server.ipv4.ip packetDropNoInterfaceFound:count 0
attr interpolationmode none
attr recordingmode count
attr source packetDropReasonIsNoInterfaceFound(packetDropped)
attr title "packet drop: no interface found, count"
scalar TsnLinearNetwork.server.ipv4.ip packetDropNoInterfaceFound:sum(packetBytes) 0
attr interpolationmode none
attr recordingmode sum(packetBytes)
attr source packetDropReasonIsNoInterfaceFound(packetDropped)
attr title "packet drop: no interface found, sum(packetBytes)"
scalar TsnLinearNetwork.server.ipv4.ip packetDropNoRouteFound:count 0
attr interpolationmode none
attr recordingmode count
attr source packetDropReasonIsNoRouteFound(packetDropped)
attr title "packet drop: no route found, count"
scalar TsnLinearNetwork.server.ipv4.ip packetDropNoRouteFound:sum(packetBytes) 0
attr interpolationmode none
attr recordingmode sum(packetBytes)
attr source packetDropReasonIsNoRouteFound(packetDropped)
attr title "packet drop: no route found, sum(packetBytes)"
scalar TsnLinearNetwork.server.ipv4.ip packetDropUndefined:count 0
attr interpolationmode none
attr recordingmode count
attr source packetDropReasonIsUndefined(packetDropped)
attr title "packet drop: undefined, count"
scalar TsnLinearNetwork.server.ipv4.ip packetDropUndefined:sum(packetBytes) 0
attr interpolationmode none
attr recordingmode sum(packetBytes)
attr source packetDropReasonIsUndefined(packetDropped)
attr title "packet drop: undefined, sum(packetBytes)"
scalar TsnLinearNetwork.server.udp packetReceived:count 7215
attr interpolationmode none
attr recordingmode count
attr source packetReceived
attr title "packets received, count"
scalar TsnLinearNetwork.server.udp packetReceived:sum(packetBytes) 6883110
attr interpolationmode none
attr recordingmode sum(packetBytes)
attr source packetReceived
attr title "packets received, sum(packetBytes)"
scalar TsnLinearNetwork.server.udp packetSent:count 0
attr interpolationmode none
attr recordingmode count
attr source packetSent
attr title "packets sent, count"
scalar TsnLinearNetwork.server.udp packetSent:sum(packetBytes) 0
attr interpolationmode none
attr recordingmode sum(packetBytes)
attr source packetSent
attr title "packets sent, sum(packetBytes)"
scalar TsnLinearNetwork.server.udp passedUpPk:count 7215
attr interpolationmode none
attr recordingmode count
attr source packetSentToUpper
attr title "packets passed up, count"
scalar TsnLinearNetwork.server.udp droppedPkWrongPort:count 0
attr interpolationmode none
attr recordingmode count
attr source packetDropReasonIsNoPortFound(packetDropped)
attr title "packets dropped (wrong port), count"
scalar TsnLinearNetwork.server.udp droppedPkBadChecksum:count 0
attr interpolationmode none
attr recordingmode count
attr source packetDropReasonIsIncorrectlyReceived(packetDropped)
attr title "packets dropped (checksum error), count"
scalar TsnLinearNetwork.server.app[0].sink packets:count 4864
attr recordingmode count
attr source packetPushed
attr title "packets, count"
attr unit pk
scalar TsnLinearNetwork.server.app[0].sink packetLengths:sum 36810752
attr interpolationmode none
attr recordingmode sum
attr source packetLength(packetPushed)
attr title "packet lengths, sum"
attr unit b
statistic TsnLinearNetwork.server.app[0].sink packetLengths:histogram
field count 4864
field mean 7568
field stddev 0
field min 7568
field max 7568
field sum 36810752
field sqrsum 278583771136
attr interpolationmode none
attr recordingmode histogram
attr source packetLength(packetPushed)
attr title "packet lengths"
attr unit b
bin	-inf	0
bin	7567	0
bin	7568	4864
bin	7569	0
statistic TsnLinearNetwork.server.app[0].sink meanBitLifeTimePerPacket:histogram
field count 4864
field mean 0.0094044355563291
field stddev 0.0042098551911001
field min 0.00016042
field max 0.022141097154
field sum 45.743174545985
field sqrsum 0.51637510614978
attr interpolationmode none
attr recordingmode histogram
attr source weightedMeanPerGroup(groupRegionsPerPacket(lifeTimePerRegion(packetPushed)))
attr title "mean bit life time per packet"
attr unit s
bin	-inf	0
bin	0	24
bin	0.0004	16
bin	0.0008	19
bin	0.0012	15
bin	0.0016	23
bin	0.002	35
bin	0.0024	32
bin	0.0028	44
bin	0.0032	82
bin	0.0036	70
bin	0.004	82
bin	0.0044	140
bin	0.0048	125
bin	0.0052	167
bin	0.0056	174
bin	0.006	164
bin	0.0064	191
bin	0.0068	161
bin	0.0072	203
bin	0.0076	201
bin	0.008	190
bin	0.0084	167
bin	0.0088	233
bin	0.0092	202
bin	0.0096	190
bin	0.01	196
bin	0.0104	188
bin	0.0108	139
bin	0.0112	139
bin	0.0116	120
bin	0.012	116
bin	0.0124	73
bin	0.0128	104
bin	0.0132	64
bin	0.0136	71
bin	0.014	63
bin	0.0144	61
bin	0.0148	52
bin	0.0152	61
bin	0.0156	36
bin	0.016	41
bin	0.0164	49
bin	0.0168	36
bin	0.0172	42
bin	0.0176	42
bin	0.018	34
bin	0.0184	40
bin	0.0188	31
bin	0.0192	34
bin	0.0196	26
bin	0.02	18
bin	0.0204	7
bin	0.0208	12
bin	0.0212	14
bin	0.0216	4
bin	0.022	1
bin	0.0224	0
statistic TsnLinearNetwork.server.app[0].sink packetJitter:histogram
field count 4864
field mean 3.0609793963816e-06
field stddev 0.00087933890432816
field min -0.001895636726
field max 0.006107254987
field sum 0.014888603784
field sqrsum 0.0037602966605476
attr interpolationmode none
attr recordingmode histogram
attr source jitter(weightedMeanPerGroup(groupRegionsPerPacket(lifeTimePerRegion(packetPushed))))
attr title "packet jitter"
attr unit s
bin	-inf	0
bin	-0.0028	0
bin	-0.0026	0
bin	-0.0024	0
bin	-0.0022	0
bin	-0.002	2
bin	-0.0018	1
bin	-0.0016	1
bin	-0.0014	6
bin	-0.0012	13
bin	-0.001	25
bin	-0.0008	114
bin	-0.0006	296
bin	-0.0004	725
bin	-0.0002	1976
bin	0	1606
bin	0.0002	0
bin	0.0004	0
bin	0.0006	0
bin	0.0008	0
bin	0.001	0
bin	0.0012	0
bin	0.0014	0
bin	0.0016	0
bin	0.0018	0
bin	0.002	0
bin	0.0022	0
bin	0.0024	0
bin	0.0026	0
bin	0.0028	0
bin	0.003	0
bin	0.0032	0
bin	0.0034	0
bin	0.0036	0
bin	0.0038	0
bin	0.004	0
bin	0.0042	0
bin	0.0044	0
bin	0.0046	0
bin	0.0048	0
bin	0.005	0
bin	0.0052	3
bin	0.0054	5
bin	0.0056	5
bin	0.0058	40
bin	0.006	46
bin	0.0062	0
bin	0.0064	0
bin	0.0066	0
bin	0.0068	0
bin	0.007	0
bin	0.0072	0
bin	0.0074	0
bin	0.0076	0
bin	0.0078	0
bin	0.008	0
statistic TsnLinearNetwork.server.app[0].sink packetDelayDifferenceToMean:histogram
field count 4864
field mean -0.0020579152849481
field stddev 0.00367090142252
field min -0.013103091219226
field max 0.0065757567110065
field sum -10.009699945988
field sqrsum 0.086130554922112
attr interpolationmode none
attr recordingmode histogram
attr source differenceToMean(weightedMeanPerGroup(groupRegionsPerPacket(lifeTimePerRegion(packetPushed))))
attr title "packet delay difference to mean"
attr unit s
bin	-inf	0
bin	-0.0132	2
bin	-0.0128	5
bin	-0.0124	12
bin	-0.012	15
bin	-0.0116	12
bin	-0.0112	30
bin	-0.0108	28
bin	-0.0104	27
bin	-0.01	44
bin	-0.0096	38
bin	-0.0092	48
bin	-0.0088	35
bin	-0.0084	65
bin	-0.008	55
bin	-0.0076	63
bin	-0.0072	115
bin	-0.0068	71
bin	-0.0064	65
bin	-0.006	101
bin	-0.0056	94
bin	-0.0052	131
bin	-0.0048	152
bin	-0.0044	121
bin	-0.004	184
bin	-0.0036	175
bin	-0.0032	162
bin	-0.0028	213
bin	-0.0024	209
bin	-0.002	220
bin	-0.0016	212
bin	-0.0012	237
bin	-0.0008	194
bin	-0.0004	209
bin	0	235
bin	0.0004	188
bin	0.0008	195
bin	0.0012	152
bin	0.0016	123
bin	0.002	136
bin	0.0024	104
bin	0.0028	106
bin	0.0032	75
bin	0.0036	64
bin	0.004	30
bin	0.0044	34
bin	0.0048	26
bin	0.0052	14
bin	0.0056	15
bin	0.006	18
bin	0.0064	5
bin	0.0068	0
statistic TsnLinearNetwork.server.app[0].sink packetDelayVariation:histogram
field count 4864
field mean 0.0031494773222974
field stddev 0.00054991260633368
field min 0
field max 0.004209422458297
field sum 15.319057695655
field sqrsum 0.049717614853633
attr recordingmode histogram
attr source stddev(weightedMeanPerGroup(groupRegionsPerPacket(lifeTimePerRegion(packetPushed))))
attr title "packet delay variation"
attr unit s
bin	-inf	0
bin	0	20
bin	5e-05	0
bin	0.0001	0
bin	0.00015	0
bin	0.0002	0
bin	0.00025	0
bin	0.0003	0
bin	0.00035	0
bin	0.0004	0
bin	0.00045	0
bin	0.0005	0
bin	0.00055	0
bin	0.0006	0
bin	0.00065	0
bin	0.0007	0
bin	0.00075	0
bin	0.0008	0
bin	0.00085	0
bin	0.0009	0
bin	0.00095	0
bin	0.001	0
bin	0.00105	0
bin	0.0011	0
bin	0.00115	0
bin	0.0012	0
bin	0.00125	1
bin	0.0013	0
bin	0.00135	0
bin	0.0014	0
bin	0.00145	0
bin	0.0015	0
bin	0.00155	0
bin	0.0016	0
bin	0.00165	1
bin	0.0017	0
bin	0.00175	0
bin	0.0018	0
bin	0.00185	0
bin	0.0019	0
bin	0.00195	12
bin	0.002	131
bin	0.00205	222
bin	0.0021	39
bin	0.00215	34
bin	0.0022	31
bin	0.00225	57
bin	0.0023	33
bin	0.00235	39
bin	0.0024	60
bin	0.00245	26
bin	0.0025	29
bin	0.00255	42
bin	0.0026	191
bin	0.00265	74
bin	0.0027	64
bin	0.00275	36
bin	0.0028	7
bin	0.00285	11
bin	0.0029	29
bin	0.00295	5
bin	0.003	7
bin	0.00305	216
bin	0.0031	320
bin	0.00315	267
bin	0.0032	249
bin	0.00325	489
bin	0.0033	254
bin	0.00335	171
bin	0.0034	217
bin	0.00345	250
bin	0.0035	241
bin	0.00355	231
bin	0.0036	133
bin	0.00365	138
bin	0.0037	154
bin	0.00375	101
bin	0.0038	26
bin	0.00385	20
bin	0.0039	17
bin	0.00395	29
bin	0.004	43
bin	0.00405	26
bin	0.0041	30
bin	0.00415	26
bin	0.0042	15
bin	0.00425	0
scalar TsnLinearNetwork.server.app[0].sink droppedPackets:count 4864
attr recordingmode count
attr source packetDropped
attr title "dropped packets, count"
attr unit pk
scalar TsnLinearNetwork.server.app[0].sink droppedPacketLengths:sum 36810752
attr interpolationmode none
attr recordingmode sum
attr source packetLength(packetDropped)
attr title "dropped packet lengths, sum"
attr unit b
statistic TsnLinearNetwork.server.app[0].sink droppedPacketLengths:histogram
field count 4864
field mean 7568
field stddev 0
field min 7568
field max 7568
field sum 36810752
field sqrsum 278583771136
attr interpolationmode none
attr recordingmode histogram
attr source packetLength(packetDropped)
attr title "dropped packet lengths"
attr unit b
bin	-inf	0
bin	7567	0
bin	7568	4864
bin	7569	0
scalar TsnLinearNetwork.server.app[0].io "packets sent" 0
scalar TsnLinearNetwork.server.app[0].io "packets received" 4864
scalar TsnLinearNetwork.server.app[0].io packetReceived:count 4864
attr interpolationmode none
attr recordingmode count
attr source packetReceived
attr title "packets received, count"
scalar TsnLinearNetwork.server.app[0].io packetReceived:sum(packetBytes) 4601344
attr interpolationmode none
attr recordingmode sum(packetBytes)
attr source packetReceived
attr title "packets received, sum(packetBytes)"
scalar TsnLinearNetwork.server.app[0].io packetSent:count 0
attr interpolationmode none
attr recordingmode count
attr source packetSent
attr title "packets sent, count"
scalar TsnLinearNetwork.server.app[0].io packetSent:sum(packetBytes) 0
attr interpolationmode none
attr recordingmode sum(packetBytes)
attr source packetSent
attr title "packets sent, sum(packetBytes)"
scalar TsnLinearNetwork.server.app[1].sink packets:count 2351
attr recordingmode count
attr source packetPushed
attr title "packets, count"
attr unit pk
scalar TsnLinearNetwork.server.app[1].sink packetLengths:sum 17792368
attr interpolationmode none
attr recordingmode sum
attr source packetLength(packetPushed)
attr title "packet lengths, sum"
attr unit b
statistic TsnLinearNetwork.server.app[1].sink packetLengths:histogram
field count 2351
field mean 7568
field stddev 0
field min 7568
field max 7568
field sum 17792368
field sqrsum 134652641024
attr interpolationmode none
attr recordingmode histogram
attr source packetLength(packetPushed)
attr title "packet lengths"
attr unit b
bin	-inf	0
bin	7567	0
bin	7568	2351
bin	7569	0
statistic TsnLinearNetwork.server.app[1].sink meanBitLifeTimePerPacket:histogram
field count 2351
field mean 0.0097614132974054
field stddev 0.0045397630213694
field min 0.00016042
field max 0.022559612166
field sum 22.9490826622
field sqrsum 0.27244768414401
attr interpolationmode none
attr recordingmode histogram
attr source weightedMeanPerGroup(groupRegionsPerPacket(lifeTimePerRegion(packetPushed)))
attr title "mean bit life time per packet"
attr unit s
bin	-inf	0
bin	0	11
bin	0.0005	18
bin	0.001	23
bin	0.0015	40
bin	0.002	32
bin	0.0025	34
bin	0.003	42
bin	0.0035	63
bin	0.004	56
bin	0.0045	62
bin	0.005	70
bin	0.0055	65
bin	0.006	90
bin	0.0065	83
bin	0.007	74
bin	0.0075	104
bin	0.008	110
bin	0.0085	100
bin	0.009	85
bin	0.0095	97
bin	0.01	99
bin	0.0105	85
bin	0.011	97
bin	0.0115	58
bin	0.012	78
bin	0.0125	78
bin	0.013	72
bin	0.0135	73
bin	0.014	59
bin	0.0145	65
bin	0.015	57
bin	0.0155	45
bin	0.016	49
bin	0.0165	25
bin	0.017	34
bin	0.0175	34
bin	0.018	23
bin	0.0185	14
bin	0.019	6
bin	0.0195	8
bin	0.02	17
bin	0.0205	7
bin	0.021	0
bin	0.0215	6
bin	0.022	2
bin	0.0225	1
bin	0.023	0
bin	0.0235	0
bin	0.024	0
statistic TsnLinearNetwork.server.app[1].sink packetJitter:histogram
field count 2351
field mean 5.2808680017014e-06
field stddev 0.0016809085261191
field min -0.00401203285
field max 0.008136008087
field sum 0.012415320672
field sqrsum 0.0066398812256427
attr interpolationmode none
attr recordingmode histogram
attr source jitter(weightedMeanPerGroup(groupRegionsPerPacket(lifeTimePerRegion(packetPushed))))
attr title "packet jitter"
attr unit s
bin	-inf	0
bin	-0.0042	1
bin	-0.004	0
bin	-0.0038	0
bin	-0.0036	1
bin	-0.0034	0
bin	-0.0032	0
bin	-0.003	0
bin	-0.0028	0
bin	-0.0026	1
bin	-0.0024	3
bin	-0.0022	1
bin	-0.002	7
bin	-0.0018	14
bin	-0.0016	32
bin	-0.0014	54
bin	-0.0012	69
bin	-0.001	104
bin	-0.0008	161
bin	-0.0006	278
bin	-0.0004	426
bin	-0.0002	704
bin	0	395
bin	0.0002	0
bin	0.0004	0
bin	0.0006	0
bin	0.0008	0
bin	0.001	0
bin	0.0012	0
bin	0.0014	0
bin	0.0016	0
bin	0.0018	0
bin	0.002	0
bin	0.0022	0
bin	0.0024	0
bin	0.0026	0
bin	0.0028	0
bin	0.003	0
bin	0.0032	0
bin	0.0034	0
bin	0.0036	0
bin	0.0038	0
bin	0.004	1
bin	0.0042	0
bin	0.0044	0
bin	0.0046	0
bin	0.0048	0
bin	0.005	0
bin	0.0052	0
bin	0.0054	0
bin	0.0056	0
bin	0.0058	0
bin	0.006	0
bin	0.0062	1
bin	0.0064	0
bin	0.0066	3
bin	0.0068	3
bin	0.007	4
bin	0.0072	4
bin	0.0074	7
bin	0.0076	13
bin	0.0078	39
bin	0.008	25
bin	0.0082	0
bin	0.0084	0
bin	0.0086	0
bin	0.0088	0
bin	0.009	0
bin	0.0092	0
bin	0.0094	0
bin	0.0096	0
bin	0.0098	0
bin	0.01	0
bin	0.0102	0
bin	0.0104	0
bin	0.0106	0
statistic TsnLinearNetwork.server.app[1].sink packetDelayDifferenceToMean:histogram
field count 2351
field mean -0.00020227483097228
field stddev 0.004531695729724
field min -0.012901889685323
field max 0.010092363122122
field sum -0.47554812761584
field sqrsum 0.048356416956109
attr interpolationmode none
attr recordingmode histogram
attr source differenceToMean(weightedMeanPerGroup(groupRegionsPerPacket(lifeTimePerRegion(packetPushed))))
attr title "packet delay difference to mean"
attr unit s
bin	-inf	0
bin	-0.013	1
bin	-0.0126	4
bin	-0.0122	4
bin	-0.0118	1
bin	-0.0114	4
bin	-0.011	10
bin	-0.0106	11
bin	-0.0102	6
bin	-0.0098	5
bin	-0.0094	7
bin	-0.009	10
bin	-0.0086	20
bin	-0.0082	24
bin	-0.0078	33
bin	-0.0074	27
bin	-0.007	26
bin	-0.0066	35
bin	-0.0062	39
bin	-0.0058	44
bin	-0.0054	49
bin	-0.005	56
bin	-0.0046	57
bin	-0.0042	59
bin	-0.0038	76
bin	-0.0034	69
bin	-0.003	79
bin	-0.0026	60
bin	-0.0022	57
bin	-0.0018	71
bin	-0.0014	74
bin	-0.001	74
bin	-0.0006	70
bin	-0.0002	87
bin	0.0002	85
bin	0.0006	68
bin	0.001	64
bin	0.0014	73
bin	0.0018	75
bin	0.0022	54
bin	0.0026	78
bin	0.003	73
bin	0.0034	50
bin	0.0038	59
bin	0.0042	48
bin	0.0046	57
bin	0.005	41
bin	0.0054	36
bin	0.0058	35
bin	0.0062	38
bin	0.0066	29
bin	0.007	25
bin	0.0074	18
bin	0.0078	23
bin	0.0082	34
bin	0.0086	16
bin	0.009	9
bin	0.0094	11
bin	0.0098	3
bin	0.0102	0
statistic TsnLinearNetwork.server.app[1].sink packetDelayVariation:histogram
field count 2351
field mean 0.0038264059991086
field stddev 0.00056294848888232
field min 0
field max 0.0046007357255977
field sum 8.9958805039044
field sqrsum 0.035166631980071
attr recordingmode histogram
attr source stddev(weightedMeanPerGroup(groupRegionsPerPacket(lifeTimePerRegion(packetPushed))))
attr title "packet delay variation"
attr unit s
bin	-inf	0
bin	0	1
bin	0.0001	1
bin	0.0002	0
bin	0.0003	1
bin	0.0004	0
bin	0.0005	0
bin	0.0006	3
bin	0.0007	0
bin	0.0008	1
bin	0.0009	0
bin	0.001	1
bin	0.0011	0
bin	0.0012	1
bin	0.0013	0
bin	0.0014	0
bin	0.0015	0
bin	0.0016	0
bin	0.0017	0
bin	0.0018	0
bin	0.0019	6
bin	0.002	4
bin	0.0021	8
bin	0.0022	8
bin	0.0023	8
bin	0.0024	7
bin	0.0025	5
bin	0.0026	1
bin	0.0027	9
bin	0.0028	38
bin	0.0029	47
bin	0.003	2
bin	0.0031	9
bin	0.0032	18
bin	0.0033	145
bin	0.0034	383
bin	0.0035	360
bin	0.0036	141
bin	0.0037	73
bin	0.0038	73
bin	0.0039	49
bin	0.004	22
bin	0.0041	43
bin	0.0042	44
bin	0.0043	469
bin	0.0044	95
bin	0.0045	274
bin	0.0046	1
bin	0.0047	0
bin	0.0048	0
bin	0.0049	0
bin	0.005	0
bin	0.0051	0
scalar TsnLinearNetwork.server.app[1].sink droppedPackets:count 2351
attr recordingmode count
attr source packetDropped
attr title "dropped packets, count"
attr unit pk
scalar TsnLinearNetwork.server.app[1].sink droppedPacketLengths:sum 17792368
attr interpolationmode none
attr recordingmode sum
attr source packetLength(packetDropped)
attr title "dropped packet lengths, sum"
attr unit b
statistic TsnLinearNetwork.server.app[1].sink droppedPacketLengths:histogram
field count 2351
field mean 7568
field stddev 0
field min 7568
field max 7568
field sum 17792368
field sqrsum 134652641024
attr interpolationmode none
attr recordingmode histogram
attr source packetLength(packetDropped)
attr title "dropped packet lengths"
attr unit b
bin	-inf	0
bin	7567	0
bin	7568	2351
bin	7569	0
scalar TsnLinearNetwork.server.app[1].io "packets sent" 0
scalar TsnLinearNetwork.server.app[1].io "packets received" 2351
scalar TsnLinearNetwork.server.app[1].io packetReceived:count 2351
attr interpolationmode none
attr recordingmode count
attr source packetReceived
attr title "packets received, count"
scalar TsnLinearNetwork.server.app[1].io packetReceived:sum(packetBytes) 2224046
attr interpolationmode none
attr recordingmode sum(packetBytes)
attr source packetReceived
attr title "packets received, sum(packetBytes)"
scalar TsnLinearNetwork.server.app[1].io packetSent:count 0
attr interpolationmode none
attr recordingmode count
attr source packetSent
attr title "packets sent, count"
scalar TsnLinearNetwork.server.app[1].io packetSent:sum(packetBytes) 0
attr interpolationmode none
attr recordingmode sum(packetBytes)
attr source packetSent
attr title "packets sent, sum(packetBytes)"

