version 3
run g726-0-20250108-11:31:06-12343
attr configname g726
attr datetime 20250108-11:31:06
attr datetimef 20250108-113106
attr experiment g726
attr inifile omnetpp.ini
attr iterationvars "$sound=\"Beatify_Dabei_cut.mp3\""
attr iterationvarsd sound=Beatify#_Dabei#_cut.mp3
attr iterationvarsf sound=Beatify#_Dabei#_cut.mp3-
attr measurement "$sound=\"Beatify_Dabei_cut.mp3\""
attr network VoIPStreamTest
attr processid 12343
attr repetition 0
attr replication #0
attr resultdir results
attr runnumber 0
attr seedset 0
itervar sound "\"Beatify_Dabei_cut.mp3\""
config **.param-recording false
config image-path /home/levy/workspace/inet/images
config output-scalar-file results/omnetpp.ini-g726-#0.sca
config output-vector-file results/omnetpp.ini-g726-#0.vec
config sim-time-limit 100s
config **.server.app[0].codec "\"g726\""
config **.server.app[0].sampleRate 8000Hz
config **.server.app[0].compressedBitRate 40000bps
config network VoIPStreamTest
config warnings true
config num-rngs 8
config rng-class cMersenneTwister
config sim-time-limit 100s
config total-stack 2MiB
config **.client.numApps 1
config **.client.app[0].typename VoipStreamReceiver
config **.client.app[0].localPort 1000
config **.client.app[0].resultFile "\"results/g726_\" + \"Beatify_Dabei_cut.mp3\" + \"_results.wav\""
config **.server.numApps 1
config **.server.app[0].typename VoipStreamSender
config **.server.app[0].packetTimeLength 20ms
config **.server.app[0].voipHeaderSize 28B
config **.server.app[0].traceFileName "\"results/g726_\" + \"Beatify_Dabei_cut.mp3\" + \"_sent.wav\""
config **.server.app[0].voipSilenceThreshold 100
config **.server.app[0].repeatCount 1
config **.server.app[0].soundFile "\"../soundFiles/\" +         \"Beatify_Dabei_cut.mp3\""
config **.server.app[0].localPort 1000
config **.server.app[0].destPort 1000
config **.server.app[0].destAddress "\"client\""
config **.forwarding false
config **.arp.retryTimeout 1s
config **.arp.retryCount 3
config **.arp.cacheTimeout 100s
config **.ipv4.arp.proxyArpInterfaces "\"*\""
config **.eth[*].duplexMode true
config **.eth[*].queue.packetCapacity 10
config **.switch*.bridging.typename MacRelayUnit

scalar VoIPStreamTest.client.ethernet pauseSent:count 0
scalar VoIPStreamTest.client.ethernet pauseSent:sum 0
scalar VoIPStreamTest.client.ethernet decapPk:count 2309
scalar VoIPStreamTest.client.ethernet decapPk:sum(packetBytes) 359475
scalar VoIPStreamTest.client.ethernet encapPk:count 1
scalar VoIPStreamTest.client.ethernet encapPk:sum(packetBytes) 28
scalar VoIPStreamTest.client.lo[0].lo rcvdPkFromHl:count 0
scalar VoIPStreamTest.client.lo[0].lo rcvdPkFromHl:sum(packetBytes) 0
scalar VoIPStreamTest.client.lo[0].lo passedUpPk:count 0
scalar VoIPStreamTest.client.lo[0].lo passedUpPk:sum(packetBytes) 0
scalar VoIPStreamTest.client.lo[0] packetDropInterfaceDown:count 0
scalar VoIPStreamTest.client.lo[0] packetDropInterfaceDown:sum(packetBytes) 0
scalar VoIPStreamTest.client.lo[0] packetDropNoCarrier:count 0
scalar VoIPStreamTest.client.lo[0] packetDropNoCarrier:sum(packetBytes) 0
scalar VoIPStreamTest.client.eth[0].queue queueLength:last 0
scalar VoIPStreamTest.client.eth[0].queue queueLength:max 0
scalar VoIPStreamTest.client.eth[0].queue queueLength:timeavg 0
scalar VoIPStreamTest.client.eth[0].queue queueBitLength:last 0
scalar VoIPStreamTest.client.eth[0].queue queueBitLength:max 0
scalar VoIPStreamTest.client.eth[0].queue queueBitLength:timeavg 0
scalar VoIPStreamTest.client.eth[0].queue outgoingPackets:count 1
scalar VoIPStreamTest.client.eth[0].queue outgoingPacketLengths:sum 368
scalar VoIPStreamTest.client.eth[0].queue incomingPackets:count 1
scalar VoIPStreamTest.client.eth[0].queue incomingPacketLengths:sum 368
scalar VoIPStreamTest.client.eth[0].queue droppedPacketsQueueOverflow:count 0
scalar VoIPStreamTest.client.eth[0].queue droppedPacketLengthsQueueOverflow:sum 0
scalar VoIPStreamTest.client.eth[0].mac "simulated time" 100
scalar VoIPStreamTest.client.eth[0].mac full-duplex 1
scalar VoIPStreamTest.client.eth[0].mac "frames/sec sent" 0.01
scalar VoIPStreamTest.client.eth[0].mac "frames/sec rcvd" 23.09
scalar VoIPStreamTest.client.eth[0].mac "bits/sec sent" 5.12
scalar VoIPStreamTest.client.eth[0].mac "bits/sec rcvd" 32082.96
scalar VoIPStreamTest.client.eth[0].mac "rx channel idle (%)" 99.96643928
scalar VoIPStreamTest.client.eth[0].mac "rx channel utilization (%)" 0.03356072
scalar VoIPStreamTest.client.eth[0].mac rxPausePkUnits:count 0
scalar VoIPStreamTest.client.eth[0].mac rxPausePkUnits:sum 0
scalar VoIPStreamTest.client.eth[0].mac txPausePkUnits:count 0
scalar VoIPStreamTest.client.eth[0].mac txPausePkUnits:sum 0
scalar VoIPStreamTest.client.eth[0].mac rxPkOk:count 2309
scalar VoIPStreamTest.client.eth[0].mac rxPkOk:sum(packetBytes) 401037
scalar VoIPStreamTest.client.eth[0].mac txPk:count 1
scalar VoIPStreamTest.client.eth[0].mac txPk:sum(packetBytes) 64
scalar VoIPStreamTest.client.eth[0].mac packetReceivedFromUpper:count 1
scalar VoIPStreamTest.client.eth[0].mac packetReceivedFromUpper:sum(packetBytes) 46
scalar VoIPStreamTest.client.eth[0].mac passedUpPk:count 2309
scalar VoIPStreamTest.client.eth[0].mac passedUpPk:sum(packetBytes) 401037
scalar VoIPStreamTest.client.eth[0].mac packetDropIncorrectlyReceived:count 0
scalar VoIPStreamTest.client.eth[0].mac packetDropIncorrectlyReceived:sum(packetBytes) 0
scalar VoIPStreamTest.client.eth[0].mac packetDropInterfaceDown:count 0
scalar VoIPStreamTest.client.eth[0].mac packetDropInterfaceDown:sum(packetBytes) 0
scalar VoIPStreamTest.client.eth[0].mac packetDropNotAddressedToUs:count 0
scalar VoIPStreamTest.client.eth[0].mac packetDropNotAddressedToUs:sum(packetBytes) 0
scalar VoIPStreamTest.client.eth[0] packetDropInterfaceDown:count 0
scalar VoIPStreamTest.client.eth[0] packetDropInterfaceDown:sum(packetBytes) 0
scalar VoIPStreamTest.client.eth[0] packetDropNoCarrier:count 0
scalar VoIPStreamTest.client.eth[0] packetDropNoCarrier:sum(packetBytes) 0
scalar VoIPStreamTest.client.ipv4.ip packetDropAddressResolutionFailed:count 0
scalar VoIPStreamTest.client.ipv4.ip packetDropAddressResolutionFailed:sum(packetBytes) 0
scalar VoIPStreamTest.client.ipv4.ip packetDropHopLimitReached:count 0
scalar VoIPStreamTest.client.ipv4.ip packetDropHopLimitReached:sum(packetBytes) 0
scalar VoIPStreamTest.client.ipv4.ip packetDropForwardingDisabled:count 0
scalar VoIPStreamTest.client.ipv4.ip packetDropForwardingDisabled:sum(packetBytes) 0
scalar VoIPStreamTest.client.ipv4.ip packetDropLifetimeExpired:count 0
scalar VoIPStreamTest.client.ipv4.ip packetDropLifetimeExpired:sum(packetBytes) 0
scalar VoIPStreamTest.client.ipv4.ip packetDropNoInterfaceFound:count 0
scalar VoIPStreamTest.client.ipv4.ip packetDropNoInterfaceFound:sum(packetBytes) 0
scalar VoIPStreamTest.client.ipv4.ip packetDropNoRouteFound:count 0
scalar VoIPStreamTest.client.ipv4.ip packetDropNoRouteFound:sum(packetBytes) 0
scalar VoIPStreamTest.client.ipv4.ip packetDropUndefined:count 0
scalar VoIPStreamTest.client.ipv4.ip packetDropUndefined:sum(packetBytes) 0
scalar VoIPStreamTest.client.ipv4.arp arpResolutionFailed:count 0
scalar VoIPStreamTest.client.ipv4.arp arpResolutionCompleted:count 1
scalar VoIPStreamTest.client.ipv4.arp arpResolutionInitiated:count 0
scalar VoIPStreamTest.client.ipv4.arp arpReplySent:count 1
scalar VoIPStreamTest.client.ipv4.arp arpReplySent:sum(packetBytes) 28
scalar VoIPStreamTest.client.ipv4.arp arpRequestSent:count 0
scalar VoIPStreamTest.client.ipv4.arp arpRequestSent:sum(packetBytes) 0
scalar VoIPStreamTest.client.udp packetReceived:count 2308
scalar VoIPStreamTest.client.udp packetReceived:sum(packetBytes) 313269
scalar VoIPStreamTest.client.udp packetSent:count 0
scalar VoIPStreamTest.client.udp packetSent:sum(packetBytes) 0
scalar VoIPStreamTest.client.udp passedUpPk:count 2308
scalar VoIPStreamTest.client.udp droppedPkWrongPort:count 0
scalar VoIPStreamTest.client.udp droppedPkBadChecksum:count 0
scalar VoIPStreamTest.client.app[0] packetReceived:count 2308
scalar VoIPStreamTest.client.app[0] packetReceived:sum(packetBytes) 294805
scalar VoIPStreamTest.client.app[0] dropPk:count 0
scalar VoIPStreamTest.client.app[0] dropPk:sum(packetBytes) 0
scalar VoIPStreamTest.client.app[0] numActiveSessions:max 1
scalar VoIPStreamTest.client.app[0] numActiveSessions:timeavg 0.9997872768
scalar VoIPStreamTest.client.app[0] numSessions:last 1
scalar VoIPStreamTest.client.app[0] packetHasVoice:mean 0.99740034662045
scalar VoIPStreamTest.switch.bridging "processed frames" 2310
scalar VoIPStreamTest.switch.bridging "discarded frames" 0
scalar VoIPStreamTest.switch.bridging packetDropped:count 0
scalar VoIPStreamTest.switch.bridging packetDropped:sum(packetBytes) 0
scalar VoIPStreamTest.switch.ethernet pauseSent:count 0
scalar VoIPStreamTest.switch.ethernet pauseSent:sum 0
scalar VoIPStreamTest.switch.ethernet decapPk:count 2310
scalar VoIPStreamTest.switch.ethernet decapPk:sum(packetBytes) 359521
scalar VoIPStreamTest.switch.ethernet encapPk:count 2310
scalar VoIPStreamTest.switch.ethernet encapPk:sum(packetBytes) 359521
scalar VoIPStreamTest.switch.eth[0].queue queueLength:last 0
scalar VoIPStreamTest.switch.eth[0].queue queueLength:max 0
scalar VoIPStreamTest.switch.eth[0].queue queueLength:timeavg 0
scalar VoIPStreamTest.switch.eth[0].queue queueBitLength:last 0
scalar VoIPStreamTest.switch.eth[0].queue queueBitLength:max 0
scalar VoIPStreamTest.switch.eth[0].queue queueBitLength:timeavg 0
scalar VoIPStreamTest.switch.eth[0].queue outgoingPackets:count 2309
scalar VoIPStreamTest.switch.eth[0].queue outgoingPacketLengths:sum 3208296
scalar VoIPStreamTest.switch.eth[0].queue incomingPackets:count 2309
scalar VoIPStreamTest.switch.eth[0].queue incomingPacketLengths:sum 3208296
scalar VoIPStreamTest.switch.eth[0].queue droppedPacketsQueueOverflow:count 0
scalar VoIPStreamTest.switch.eth[0].queue droppedPacketLengthsQueueOverflow:sum 0
scalar VoIPStreamTest.switch.eth[0].mac "simulated time" 100
scalar VoIPStreamTest.switch.eth[0].mac full-duplex 1
scalar VoIPStreamTest.switch.eth[0].mac "frames/sec sent" 23.09
scalar VoIPStreamTest.switch.eth[0].mac "frames/sec rcvd" 0.01
scalar VoIPStreamTest.switch.eth[0].mac "bits/sec sent" 32082.96
scalar VoIPStreamTest.switch.eth[0].mac "bits/sec rcvd" 5.12
scalar VoIPStreamTest.switch.eth[0].mac "rx channel idle (%)" 99.99999424
scalar VoIPStreamTest.switch.eth[0].mac "rx channel utilization (%)" 5.76e-06
scalar VoIPStreamTest.switch.eth[0].mac rxPausePkUnits:count 0
scalar VoIPStreamTest.switch.eth[0].mac rxPausePkUnits:sum 0
scalar VoIPStreamTest.switch.eth[0].mac txPausePkUnits:count 0
scalar VoIPStreamTest.switch.eth[0].mac txPausePkUnits:sum 0
scalar VoIPStreamTest.switch.eth[0].mac rxPkOk:count 1
scalar VoIPStreamTest.switch.eth[0].mac rxPkOk:sum(packetBytes) 64
scalar VoIPStreamTest.switch.eth[0].mac txPk:count 2309
scalar VoIPStreamTest.switch.eth[0].mac txPk:sum(packetBytes) 401037
scalar VoIPStreamTest.switch.eth[0].mac packetReceivedFromUpper:count 2309
scalar VoIPStreamTest.switch.eth[0].mac packetReceivedFromUpper:sum(packetBytes) 401037
scalar VoIPStreamTest.switch.eth[0].mac passedUpPk:count 1
scalar VoIPStreamTest.switch.eth[0].mac passedUpPk:sum(packetBytes) 64
scalar VoIPStreamTest.switch.eth[0].mac packetDropIncorrectlyReceived:count 0
scalar VoIPStreamTest.switch.eth[0].mac packetDropIncorrectlyReceived:sum(packetBytes) 0
scalar VoIPStreamTest.switch.eth[0].mac packetDropInterfaceDown:count 0
scalar VoIPStreamTest.switch.eth[0].mac packetDropInterfaceDown:sum(packetBytes) 0
scalar VoIPStreamTest.switch.eth[0].mac packetDropNotAddressedToUs:count 0
scalar VoIPStreamTest.switch.eth[0].mac packetDropNotAddressedToUs:sum(packetBytes) 0
scalar VoIPStreamTest.switch.eth[0] packetDropInterfaceDown:count 0
scalar VoIPStreamTest.switch.eth[0] packetDropInterfaceDown:sum(packetBytes) 0
scalar VoIPStreamTest.switch.eth[0] packetDropNoCarrier:count 0
scalar VoIPStreamTest.switch.eth[0] packetDropNoCarrier:sum(packetBytes) 0
scalar VoIPStreamTest.switch.eth[1].queue queueLength:last 0
scalar VoIPStreamTest.switch.eth[1].queue queueLength:max 0
scalar VoIPStreamTest.switch.eth[1].queue queueLength:timeavg 0
scalar VoIPStreamTest.switch.eth[1].queue queueBitLength:last 0
scalar VoIPStreamTest.switch.eth[1].queue queueBitLength:max 0
scalar VoIPStreamTest.switch.eth[1].queue queueBitLength:timeavg 0
scalar VoIPStreamTest.switch.eth[1].queue outgoingPackets:count 1
scalar VoIPStreamTest.switch.eth[1].queue outgoingPacketLengths:sum 512
scalar VoIPStreamTest.switch.eth[1].queue incomingPackets:count 1
scalar VoIPStreamTest.switch.eth[1].queue incomingPacketLengths:sum 512
scalar VoIPStreamTest.switch.eth[1].queue droppedPacketsQueueOverflow:count 0
scalar VoIPStreamTest.switch.eth[1].queue droppedPacketLengthsQueueOverflow:sum 0
scalar VoIPStreamTest.switch.eth[1].mac "simulated time" 100
scalar VoIPStreamTest.switch.eth[1].mac full-duplex 1
scalar VoIPStreamTest.switch.eth[1].mac "frames/sec sent" 0.01
scalar VoIPStreamTest.switch.eth[1].mac "frames/sec rcvd" 23.09
scalar VoIPStreamTest.switch.eth[1].mac "bits/sec sent" 5.12
scalar VoIPStreamTest.switch.eth[1].mac "bits/sec rcvd" 32082.96
scalar VoIPStreamTest.switch.eth[1].mac "rx channel idle (%)" 99.96643928
scalar VoIPStreamTest.switch.eth[1].mac "rx channel utilization (%)" 0.03356072
scalar VoIPStreamTest.switch.eth[1].mac rxPausePkUnits:count 0
scalar VoIPStreamTest.switch.eth[1].mac rxPausePkUnits:sum 0
scalar VoIPStreamTest.switch.eth[1].mac txPausePkUnits:count 0
scalar VoIPStreamTest.switch.eth[1].mac txPausePkUnits:sum 0
scalar VoIPStreamTest.switch.eth[1].mac rxPkOk:count 2309
scalar VoIPStreamTest.switch.eth[1].mac rxPkOk:sum(packetBytes) 401037
scalar VoIPStreamTest.switch.eth[1].mac txPk:count 1
scalar VoIPStreamTest.switch.eth[1].mac txPk:sum(packetBytes) 64
scalar VoIPStreamTest.switch.eth[1].mac packetReceivedFromUpper:count 1
scalar VoIPStreamTest.switch.eth[1].mac packetReceivedFromUpper:sum(packetBytes) 64
scalar VoIPStreamTest.switch.eth[1].mac passedUpPk:count 2309
scalar VoIPStreamTest.switch.eth[1].mac passedUpPk:sum(packetBytes) 401037
scalar VoIPStreamTest.switch.eth[1].mac packetDropIncorrectlyReceived:count 0
scalar VoIPStreamTest.switch.eth[1].mac packetDropIncorrectlyReceived:sum(packetBytes) 0
scalar VoIPStreamTest.switch.eth[1].mac packetDropInterfaceDown:count 0
scalar VoIPStreamTest.switch.eth[1].mac packetDropInterfaceDown:sum(packetBytes) 0
scalar VoIPStreamTest.switch.eth[1].mac packetDropNotAddressedToUs:count 0
scalar VoIPStreamTest.switch.eth[1].mac packetDropNotAddressedToUs:sum(packetBytes) 0
scalar VoIPStreamTest.switch.eth[1] packetDropInterfaceDown:count 0
scalar VoIPStreamTest.switch.eth[1] packetDropInterfaceDown:sum(packetBytes) 0
scalar VoIPStreamTest.switch.eth[1] packetDropNoCarrier:count 0
scalar VoIPStreamTest.switch.eth[1] packetDropNoCarrier:sum(packetBytes) 0
scalar VoIPStreamTest.net.ethernet pauseSent:count 0
scalar VoIPStreamTest.net.ethernet pauseSent:sum 0
scalar VoIPStreamTest.net.ethernet decapPk:count 2310
scalar VoIPStreamTest.net.ethernet decapPk:sum(packetBytes) 359521
scalar VoIPStreamTest.net.ethernet encapPk:count 2310
scalar VoIPStreamTest.net.ethernet encapPk:sum(packetBytes) 359485
scalar VoIPStreamTest.net.lo[0].lo rcvdPkFromHl:count 0
scalar VoIPStreamTest.net.lo[0].lo rcvdPkFromHl:sum(packetBytes) 0
scalar VoIPStreamTest.net.lo[0].lo passedUpPk:count 0
scalar VoIPStreamTest.net.lo[0].lo passedUpPk:sum(packetBytes) 0
scalar VoIPStreamTest.net.lo[0] packetDropInterfaceDown:count 0
scalar VoIPStreamTest.net.lo[0] packetDropInterfaceDown:sum(packetBytes) 0
scalar VoIPStreamTest.net.lo[0] packetDropNoCarrier:count 0
scalar VoIPStreamTest.net.lo[0] packetDropNoCarrier:sum(packetBytes) 0
scalar VoIPStreamTest.net.eth[0].queue queueLength:last 0
scalar VoIPStreamTest.net.eth[0].queue queueLength:max 0
scalar VoIPStreamTest.net.eth[0].queue queueLength:timeavg 0
scalar VoIPStreamTest.net.eth[0].queue queueBitLength:last 0
scalar VoIPStreamTest.net.eth[0].queue queueBitLength:max 0
scalar VoIPStreamTest.net.eth[0].queue queueBitLength:timeavg 0
scalar VoIPStreamTest.net.eth[0].queue outgoingPackets:count 2309
scalar VoIPStreamTest.net.eth[0].queue outgoingPacketLengths:sum 3208152
scalar VoIPStreamTest.net.eth[0].queue incomingPackets:count 2309
scalar VoIPStreamTest.net.eth[0].queue incomingPacketLengths:sum 3208152
scalar VoIPStreamTest.net.eth[0].queue droppedPacketsQueueOverflow:count 0
scalar VoIPStreamTest.net.eth[0].queue droppedPacketLengthsQueueOverflow:sum 0
scalar VoIPStreamTest.net.eth[0].mac "simulated time" 100
scalar VoIPStreamTest.net.eth[0].mac full-duplex 1
scalar VoIPStreamTest.net.eth[0].mac "frames/sec sent" 23.09
scalar VoIPStreamTest.net.eth[0].mac "frames/sec rcvd" 0.01
scalar VoIPStreamTest.net.eth[0].mac "bits/sec sent" 32082.96
scalar VoIPStreamTest.net.eth[0].mac "bits/sec rcvd" 5.12
scalar VoIPStreamTest.net.eth[0].mac "rx channel idle (%)" 99.99999424
scalar VoIPStreamTest.net.eth[0].mac "rx channel utilization (%)" 5.76e-06
scalar VoIPStreamTest.net.eth[0].mac rxPausePkUnits:count 0
scalar VoIPStreamTest.net.eth[0].mac rxPausePkUnits:sum 0
scalar VoIPStreamTest.net.eth[0].mac txPausePkUnits:count 0
scalar VoIPStreamTest.net.eth[0].mac txPausePkUnits:sum 0
scalar VoIPStreamTest.net.eth[0].mac rxPkOk:count 1
scalar VoIPStreamTest.net.eth[0].mac rxPkOk:sum(packetBytes) 64
scalar VoIPStreamTest.net.eth[0].mac txPk:count 2309
scalar VoIPStreamTest.net.eth[0].mac txPk:sum(packetBytes) 401037
scalar VoIPStreamTest.net.eth[0].mac packetReceivedFromUpper:count 2309
scalar VoIPStreamTest.net.eth[0].mac packetReceivedFromUpper:sum(packetBytes) 401019
scalar VoIPStreamTest.net.eth[0].mac passedUpPk:count 1
scalar VoIPStreamTest.net.eth[0].mac passedUpPk:sum(packetBytes) 64
scalar VoIPStreamTest.net.eth[0].mac packetDropIncorrectlyReceived:count 0
scalar VoIPStreamTest.net.eth[0].mac packetDropIncorrectlyReceived:sum(packetBytes) 0
scalar VoIPStreamTest.net.eth[0].mac packetDropInterfaceDown:count 0
scalar VoIPStreamTest.net.eth[0].mac packetDropInterfaceDown:sum(packetBytes) 0
scalar VoIPStreamTest.net.eth[0].mac packetDropNotAddressedToUs:count 0
scalar VoIPStreamTest.net.eth[0].mac packetDropNotAddressedToUs:sum(packetBytes) 0
scalar VoIPStreamTest.net.eth[0] packetDropInterfaceDown:count 0
scalar VoIPStreamTest.net.eth[0] packetDropInterfaceDown:sum(packetBytes) 0
scalar VoIPStreamTest.net.eth[0] packetDropNoCarrier:count 0
scalar VoIPStreamTest.net.eth[0] packetDropNoCarrier:sum(packetBytes) 0
scalar VoIPStreamTest.net.eth[1].queue queueLength:last 0
scalar VoIPStreamTest.net.eth[1].queue queueLength:max 0
scalar VoIPStreamTest.net.eth[1].queue queueLength:timeavg 0
scalar VoIPStreamTest.net.eth[1].queue queueBitLength:last 0
scalar VoIPStreamTest.net.eth[1].queue queueBitLength:max 0
scalar VoIPStreamTest.net.eth[1].queue queueBitLength:timeavg 0
scalar VoIPStreamTest.net.eth[1].queue outgoingPackets:count 1
scalar VoIPStreamTest.net.eth[1].queue outgoingPacketLengths:sum 368
scalar VoIPStreamTest.net.eth[1].queue incomingPackets:count 1
scalar VoIPStreamTest.net.eth[1].queue incomingPacketLengths:sum 368
scalar VoIPStreamTest.net.eth[1].queue droppedPacketsQueueOverflow:count 0
scalar VoIPStreamTest.net.eth[1].queue droppedPacketLengthsQueueOverflow:sum 0
scalar VoIPStreamTest.net.eth[1].mac "simulated time" 100
scalar VoIPStreamTest.net.eth[1].mac full-duplex 1
scalar VoIPStreamTest.net.eth[1].mac "frames/sec sent" 0.01
scalar VoIPStreamTest.net.eth[1].mac "frames/sec rcvd" 23.09
scalar VoIPStreamTest.net.eth[1].mac "bits/sec sent" 5.12
scalar VoIPStreamTest.net.eth[1].mac "bits/sec rcvd" 32082.96
scalar VoIPStreamTest.net.eth[1].mac "rx channel idle (%)" 99.96643928
scalar VoIPStreamTest.net.eth[1].mac "rx channel utilization (%)" 0.03356072
scalar VoIPStreamTest.net.eth[1].mac rxPausePkUnits:count 0
scalar VoIPStreamTest.net.eth[1].mac rxPausePkUnits:sum 0
scalar VoIPStreamTest.net.eth[1].mac txPausePkUnits:count 0
scalar VoIPStreamTest.net.eth[1].mac txPausePkUnits:sum 0
scalar VoIPStreamTest.net.eth[1].mac rxPkOk:count 2309
scalar VoIPStreamTest.net.eth[1].mac rxPkOk:sum(packetBytes) 401037
scalar VoIPStreamTest.net.eth[1].mac txPk:count 1
scalar VoIPStreamTest.net.eth[1].mac txPk:sum(packetBytes) 64
scalar VoIPStreamTest.net.eth[1].mac packetReceivedFromUpper:count 1
scalar VoIPStreamTest.net.eth[1].mac packetReceivedFromUpper:sum(packetBytes) 46
scalar VoIPStreamTest.net.eth[1].mac passedUpPk:count 2309
scalar VoIPStreamTest.net.eth[1].mac passedUpPk:sum(packetBytes) 401037
scalar VoIPStreamTest.net.eth[1].mac packetDropIncorrectlyReceived:count 0
scalar VoIPStreamTest.net.eth[1].mac packetDropIncorrectlyReceived:sum(packetBytes) 0
scalar VoIPStreamTest.net.eth[1].mac packetDropInterfaceDown:count 0
scalar VoIPStreamTest.net.eth[1].mac packetDropInterfaceDown:sum(packetBytes) 0
scalar VoIPStreamTest.net.eth[1].mac packetDropNotAddressedToUs:count 0
scalar VoIPStreamTest.net.eth[1].mac packetDropNotAddressedToUs:sum(packetBytes) 0
scalar VoIPStreamTest.net.eth[1] packetDropInterfaceDown:count 0
scalar VoIPStreamTest.net.eth[1] packetDropInterfaceDown:sum(packetBytes) 0
scalar VoIPStreamTest.net.eth[1] packetDropNoCarrier:count 0
scalar VoIPStreamTest.net.eth[1] packetDropNoCarrier:sum(packetBytes) 0
scalar VoIPStreamTest.net.ipv4.ip packetDropAddressResolutionFailed:count 0
scalar VoIPStreamTest.net.ipv4.ip packetDropAddressResolutionFailed:sum(packetBytes) 0
scalar VoIPStreamTest.net.ipv4.ip packetDropHopLimitReached:count 0
scalar VoIPStreamTest.net.ipv4.ip packetDropHopLimitReached:sum(packetBytes) 0
scalar VoIPStreamTest.net.ipv4.ip packetDropForwardingDisabled:count 0
scalar VoIPStreamTest.net.ipv4.ip packetDropForwardingDisabled:sum(packetBytes) 0
scalar VoIPStreamTest.net.ipv4.ip packetDropLifetimeExpired:count 0
scalar VoIPStreamTest.net.ipv4.ip packetDropLifetimeExpired:sum(packetBytes) 0
scalar VoIPStreamTest.net.ipv4.ip packetDropNoInterfaceFound:count 0
scalar VoIPStreamTest.net.ipv4.ip packetDropNoInterfaceFound:sum(packetBytes) 0
scalar VoIPStreamTest.net.ipv4.ip packetDropNoRouteFound:count 0
scalar VoIPStreamTest.net.ipv4.ip packetDropNoRouteFound:sum(packetBytes) 0
scalar VoIPStreamTest.net.ipv4.ip packetDropUndefined:count 0
scalar VoIPStreamTest.net.ipv4.ip packetDropUndefined:sum(packetBytes) 0
scalar VoIPStreamTest.net.ipv4.arp arpResolutionFailed:count 0
scalar VoIPStreamTest.net.ipv4.arp arpResolutionCompleted:count 2
scalar VoIPStreamTest.net.ipv4.arp arpResolutionInitiated:count 1
scalar VoIPStreamTest.net.ipv4.arp arpReplySent:count 1
scalar VoIPStreamTest.net.ipv4.arp arpReplySent:sum(packetBytes) 28
scalar VoIPStreamTest.net.ipv4.arp arpRequestSent:count 1
scalar VoIPStreamTest.net.ipv4.arp arpRequestSent:sum(packetBytes) 28
scalar VoIPStreamTest.router.ethernet pauseSent:count 0
scalar VoIPStreamTest.router.ethernet pauseSent:sum 0
scalar VoIPStreamTest.router.ethernet decapPk:count 2310
scalar VoIPStreamTest.router.ethernet decapPk:sum(packetBytes) 359521
scalar VoIPStreamTest.router.ethernet encapPk:count 2310
scalar VoIPStreamTest.router.ethernet encapPk:sum(packetBytes) 359485
scalar VoIPStreamTest.router.lo[0].lo rcvdPkFromHl:count 0
scalar VoIPStreamTest.router.lo[0].lo rcvdPkFromHl:sum(packetBytes) 0
scalar VoIPStreamTest.router.lo[0].lo passedUpPk:count 0
scalar VoIPStreamTest.router.lo[0].lo passedUpPk:sum(packetBytes) 0
scalar VoIPStreamTest.router.lo[0] packetDropInterfaceDown:count 0
scalar VoIPStreamTest.router.lo[0] packetDropInterfaceDown:sum(packetBytes) 0
scalar VoIPStreamTest.router.lo[0] packetDropNoCarrier:count 0
scalar VoIPStreamTest.router.lo[0] packetDropNoCarrier:sum(packetBytes) 0
scalar VoIPStreamTest.router.eth[0].queue queueLength:last 0
scalar VoIPStreamTest.router.eth[0].queue queueLength:max 0
scalar VoIPStreamTest.router.eth[0].queue queueLength:timeavg 0
scalar VoIPStreamTest.router.eth[0].queue queueBitLength:last 0
scalar VoIPStreamTest.router.eth[0].queue queueBitLength:max 0
scalar VoIPStreamTest.router.eth[0].queue queueBitLength:timeavg 0
scalar VoIPStreamTest.router.eth[0].queue outgoingPackets:count 2309
scalar VoIPStreamTest.router.eth[0].queue outgoingPacketLengths:sum 3208152
scalar VoIPStreamTest.router.eth[0].queue incomingPackets:count 2309
scalar VoIPStreamTest.router.eth[0].queue incomingPacketLengths:sum 3208152
scalar VoIPStreamTest.router.eth[0].queue droppedPacketsQueueOverflow:count 0
scalar VoIPStreamTest.router.eth[0].queue droppedPacketLengthsQueueOverflow:sum 0
scalar VoIPStreamTest.router.eth[0].mac "simulated time" 100
scalar VoIPStreamTest.router.eth[0].mac full-duplex 1
scalar VoIPStreamTest.router.eth[0].mac "frames/sec sent" 23.09
scalar VoIPStreamTest.router.eth[0].mac "frames/sec rcvd" 0.01
scalar VoIPStreamTest.router.eth[0].mac "bits/sec sent" 32082.96
scalar VoIPStreamTest.router.eth[0].mac "bits/sec rcvd" 5.12
scalar VoIPStreamTest.router.eth[0].mac "rx channel idle (%)" 99.99999424
scalar VoIPStreamTest.router.eth[0].mac "rx channel utilization (%)" 5.76e-06
scalar VoIPStreamTest.router.eth[0].mac rxPausePkUnits:count 0
scalar VoIPStreamTest.router.eth[0].mac rxPausePkUnits:sum 0
scalar VoIPStreamTest.router.eth[0].mac txPausePkUnits:count 0
scalar VoIPStreamTest.router.eth[0].mac txPausePkUnits:sum 0
scalar VoIPStreamTest.router.eth[0].mac rxPkOk:count 1
scalar VoIPStreamTest.router.eth[0].mac rxPkOk:sum(packetBytes) 64
scalar VoIPStreamTest.router.eth[0].mac txPk:count 2309
scalar VoIPStreamTest.router.eth[0].mac txPk:sum(packetBytes) 401037
scalar VoIPStreamTest.router.eth[0].mac packetReceivedFromUpper:count 2309
scalar VoIPStreamTest.router.eth[0].mac packetReceivedFromUpper:sum(packetBytes) 401019
scalar VoIPStreamTest.router.eth[0].mac passedUpPk:count 1
scalar VoIPStreamTest.router.eth[0].mac passedUpPk:sum(packetBytes) 64
scalar VoIPStreamTest.router.eth[0].mac packetDropIncorrectlyReceived:count 0
scalar VoIPStreamTest.router.eth[0].mac packetDropIncorrectlyReceived:sum(packetBytes) 0
scalar VoIPStreamTest.router.eth[0].mac packetDropInterfaceDown:count 0
scalar VoIPStreamTest.router.eth[0].mac packetDropInterfaceDown:sum(packetBytes) 0
scalar VoIPStreamTest.router.eth[0].mac packetDropNotAddressedToUs:count 0
scalar VoIPStreamTest.router.eth[0].mac packetDropNotAddressedToUs:sum(packetBytes) 0
scalar VoIPStreamTest.router.eth[0] packetDropInterfaceDown:count 0
scalar VoIPStreamTest.router.eth[0] packetDropInterfaceDown:sum(packetBytes) 0
scalar VoIPStreamTest.router.eth[0] packetDropNoCarrier:count 0
scalar VoIPStreamTest.router.eth[0] packetDropNoCarrier:sum(packetBytes) 0
scalar VoIPStreamTest.router.eth[1].queue queueLength:last 0
scalar VoIPStreamTest.router.eth[1].queue queueLength:max 0
scalar VoIPStreamTest.router.eth[1].queue queueLength:timeavg 0
scalar VoIPStreamTest.router.eth[1].queue queueBitLength:last 0
scalar VoIPStreamTest.router.eth[1].queue queueBitLength:max 0
scalar VoIPStreamTest.router.eth[1].queue queueBitLength:timeavg 0
scalar VoIPStreamTest.router.eth[1].queue outgoingPackets:count 1
scalar VoIPStreamTest.router.eth[1].queue outgoingPacketLengths:sum 368
scalar VoIPStreamTest.router.eth[1].queue incomingPackets:count 1
scalar VoIPStreamTest.router.eth[1].queue incomingPacketLengths:sum 368
scalar VoIPStreamTest.router.eth[1].queue droppedPacketsQueueOverflow:count 0
scalar VoIPStreamTest.router.eth[1].queue droppedPacketLengthsQueueOverflow:sum 0
scalar VoIPStreamTest.router.eth[1].mac "simulated time" 100
scalar VoIPStreamTest.router.eth[1].mac full-duplex 1
scalar VoIPStreamTest.router.eth[1].mac "frames/sec sent" 0.01
scalar VoIPStreamTest.router.eth[1].mac "frames/sec rcvd" 23.09
scalar VoIPStreamTest.router.eth[1].mac "bits/sec sent" 5.12
scalar VoIPStreamTest.router.eth[1].mac "bits/sec rcvd" 32082.96
scalar VoIPStreamTest.router.eth[1].mac "rx channel idle (%)" 99.96643928
scalar VoIPStreamTest.router.eth[1].mac "rx channel utilization (%)" 0.03356072
scalar VoIPStreamTest.router.eth[1].mac rxPausePkUnits:count 0
scalar VoIPStreamTest.router.eth[1].mac rxPausePkUnits:sum 0
scalar VoIPStreamTest.router.eth[1].mac txPausePkUnits:count 0
scalar VoIPStreamTest.router.eth[1].mac txPausePkUnits:sum 0
scalar VoIPStreamTest.router.eth[1].mac rxPkOk:count 2309
scalar VoIPStreamTest.router.eth[1].mac rxPkOk:sum(packetBytes) 401037
scalar VoIPStreamTest.router.eth[1].mac txPk:count 1
scalar VoIPStreamTest.router.eth[1].mac txPk:sum(packetBytes) 64
scalar VoIPStreamTest.router.eth[1].mac packetReceivedFromUpper:count 1
scalar VoIPStreamTest.router.eth[1].mac packetReceivedFromUpper:sum(packetBytes) 46
scalar VoIPStreamTest.router.eth[1].mac passedUpPk:count 2309
scalar VoIPStreamTest.router.eth[1].mac passedUpPk:sum(packetBytes) 401037
scalar VoIPStreamTest.router.eth[1].mac packetDropIncorrectlyReceived:count 0
scalar VoIPStreamTest.router.eth[1].mac packetDropIncorrectlyReceived:sum(packetBytes) 0
scalar VoIPStreamTest.router.eth[1].mac packetDropInterfaceDown:count 0
scalar VoIPStreamTest.router.eth[1].mac packetDropInterfaceDown:sum(packetBytes) 0
scalar VoIPStreamTest.router.eth[1].mac packetDropNotAddressedToUs:count 0
scalar VoIPStreamTest.router.eth[1].mac packetDropNotAddressedToUs:sum(packetBytes) 0
scalar VoIPStreamTest.router.eth[1] packetDropInterfaceDown:count 0
scalar VoIPStreamTest.router.eth[1] packetDropInterfaceDown:sum(packetBytes) 0
scalar VoIPStreamTest.router.eth[1] packetDropNoCarrier:count 0
scalar VoIPStreamTest.router.eth[1] packetDropNoCarrier:sum(packetBytes) 0
scalar VoIPStreamTest.router.ipv4.ip packetDropAddressResolutionFailed:count 0
scalar VoIPStreamTest.router.ipv4.ip packetDropAddressResolutionFailed:sum(packetBytes) 0
scalar VoIPStreamTest.router.ipv4.ip packetDropHopLimitReached:count 0
scalar VoIPStreamTest.router.ipv4.ip packetDropHopLimitReached:sum(packetBytes) 0
scalar VoIPStreamTest.router.ipv4.ip packetDropForwardingDisabled:count 0
scalar VoIPStreamTest.router.ipv4.ip packetDropForwardingDisabled:sum(packetBytes) 0
scalar VoIPStreamTest.router.ipv4.ip packetDropLifetimeExpired:count 0
scalar VoIPStreamTest.router.ipv4.ip packetDropLifetimeExpired:sum(packetBytes) 0
scalar VoIPStreamTest.router.ipv4.ip packetDropNoInterfaceFound:count 0
scalar VoIPStreamTest.router.ipv4.ip packetDropNoInterfaceFound:sum(packetBytes) 0
scalar VoIPStreamTest.router.ipv4.ip packetDropNoRouteFound:count 0
scalar VoIPStreamTest.router.ipv4.ip packetDropNoRouteFound:sum(packetBytes) 0
scalar VoIPStreamTest.router.ipv4.ip packetDropUndefined:count 0
scalar VoIPStreamTest.router.ipv4.ip packetDropUndefined:sum(packetBytes) 0
scalar VoIPStreamTest.router.ipv4.arp arpResolutionFailed:count 0
scalar VoIPStreamTest.router.ipv4.arp arpResolutionCompleted:count 2
scalar VoIPStreamTest.router.ipv4.arp arpResolutionInitiated:count 1
scalar VoIPStreamTest.router.ipv4.arp arpReplySent:count 1
scalar VoIPStreamTest.router.ipv4.arp arpReplySent:sum(packetBytes) 28
scalar VoIPStreamTest.router.ipv4.arp arpRequestSent:count 1
scalar VoIPStreamTest.router.ipv4.arp arpRequestSent:sum(packetBytes) 28
scalar VoIPStreamTest.server.ethernet pauseSent:count 0
scalar VoIPStreamTest.server.ethernet pauseSent:sum 0
scalar VoIPStreamTest.server.ethernet decapPk:count 1
scalar VoIPStreamTest.server.ethernet decapPk:sum(packetBytes) 46
scalar VoIPStreamTest.server.ethernet encapPk:count 2309
scalar VoIPStreamTest.server.ethernet encapPk:sum(packetBytes) 359457
scalar VoIPStreamTest.server.lo[0].lo rcvdPkFromHl:count 0
scalar VoIPStreamTest.server.lo[0].lo rcvdPkFromHl:sum(packetBytes) 0
scalar VoIPStreamTest.server.lo[0].lo passedUpPk:count 0
scalar VoIPStreamTest.server.lo[0].lo passedUpPk:sum(packetBytes) 0
scalar VoIPStreamTest.server.lo[0] packetDropInterfaceDown:count 0
scalar VoIPStreamTest.server.lo[0] packetDropInterfaceDown:sum(packetBytes) 0
scalar VoIPStreamTest.server.lo[0] packetDropNoCarrier:count 0
scalar VoIPStreamTest.server.lo[0] packetDropNoCarrier:sum(packetBytes) 0
scalar VoIPStreamTest.server.eth[0].queue queueLength:last 0
scalar VoIPStreamTest.server.eth[0].queue queueLength:max 0
scalar VoIPStreamTest.server.eth[0].queue queueLength:timeavg 0
scalar VoIPStreamTest.server.eth[0].queue queueBitLength:last 0
scalar VoIPStreamTest.server.eth[0].queue queueBitLength:max 0
scalar VoIPStreamTest.server.eth[0].queue queueBitLength:timeavg 0
scalar VoIPStreamTest.server.eth[0].queue outgoingPackets:count 2309
scalar VoIPStreamTest.server.eth[0].queue outgoingPacketLengths:sum 3208152
scalar VoIPStreamTest.server.eth[0].queue incomingPackets:count 2309
scalar VoIPStreamTest.server.eth[0].queue incomingPacketLengths:sum 3208152
scalar VoIPStreamTest.server.eth[0].queue droppedPacketsQueueOverflow:count 0
scalar VoIPStreamTest.server.eth[0].queue droppedPacketLengthsQueueOverflow:sum 0
scalar VoIPStreamTest.server.eth[0].mac "simulated time" 100
scalar VoIPStreamTest.server.eth[0].mac full-duplex 1
scalar VoIPStreamTest.server.eth[0].mac "frames/sec sent" 23.09
scalar VoIPStreamTest.server.eth[0].mac "frames/sec rcvd" 0.01
scalar VoIPStreamTest.server.eth[0].mac "bits/sec sent" 32082.96
scalar VoIPStreamTest.server.eth[0].mac "bits/sec rcvd" 5.12
scalar VoIPStreamTest.server.eth[0].mac "rx channel idle (%)" 99.99999424
scalar VoIPStreamTest.server.eth[0].mac "rx channel utilization (%)" 5.76e-06
scalar VoIPStreamTest.server.eth[0].mac rxPausePkUnits:count 0
scalar VoIPStreamTest.server.eth[0].mac rxPausePkUnits:sum 0
scalar VoIPStreamTest.server.eth[0].mac txPausePkUnits:count 0
scalar VoIPStreamTest.server.eth[0].mac txPausePkUnits:sum 0
scalar VoIPStreamTest.server.eth[0].mac rxPkOk:count 1
scalar VoIPStreamTest.server.eth[0].mac rxPkOk:sum(packetBytes) 64
scalar VoIPStreamTest.server.eth[0].mac txPk:count 2309
scalar VoIPStreamTest.server.eth[0].mac txPk:sum(packetBytes) 401037
scalar VoIPStreamTest.server.eth[0].mac packetReceivedFromUpper:count 2309
scalar VoIPStreamTest.server.eth[0].mac packetReceivedFromUpper:sum(packetBytes) 401019
scalar VoIPStreamTest.server.eth[0].mac passedUpPk:count 1
scalar VoIPStreamTest.server.eth[0].mac passedUpPk:sum(packetBytes) 64
scalar VoIPStreamTest.server.eth[0].mac packetDropIncorrectlyReceived:count 0
scalar VoIPStreamTest.server.eth[0].mac packetDropIncorrectlyReceived:sum(packetBytes) 0
scalar VoIPStreamTest.server.eth[0].mac packetDropInterfaceDown:count 0
scalar VoIPStreamTest.server.eth[0].mac packetDropInterfaceDown:sum(packetBytes) 0
scalar VoIPStreamTest.server.eth[0].mac packetDropNotAddressedToUs:count 0
scalar VoIPStreamTest.server.eth[0].mac packetDropNotAddressedToUs:sum(packetBytes) 0
scalar VoIPStreamTest.server.eth[0] packetDropInterfaceDown:count 0
scalar VoIPStreamTest.server.eth[0] packetDropInterfaceDown:sum(packetBytes) 0
scalar VoIPStreamTest.server.eth[0] packetDropNoCarrier:count 0
scalar VoIPStreamTest.server.eth[0] packetDropNoCarrier:sum(packetBytes) 0
scalar VoIPStreamTest.server.ipv4.ip packetDropAddressResolutionFailed:count 0
scalar VoIPStreamTest.server.ipv4.ip packetDropAddressResolutionFailed:sum(packetBytes) 0
scalar VoIPStreamTest.server.ipv4.ip packetDropHopLimitReached:count 0
scalar VoIPStreamTest.server.ipv4.ip packetDropHopLimitReached:sum(packetBytes) 0
scalar VoIPStreamTest.server.ipv4.ip packetDropForwardingDisabled:count 0
scalar VoIPStreamTest.server.ipv4.ip packetDropForwardingDisabled:sum(packetBytes) 0
scalar VoIPStreamTest.server.ipv4.ip packetDropLifetimeExpired:count 0
scalar VoIPStreamTest.server.ipv4.ip packetDropLifetimeExpired:sum(packetBytes) 0
scalar VoIPStreamTest.server.ipv4.ip packetDropNoInterfaceFound:count 0
scalar VoIPStreamTest.server.ipv4.ip packetDropNoInterfaceFound:sum(packetBytes) 0
scalar VoIPStreamTest.server.ipv4.ip packetDropNoRouteFound:count 0
scalar VoIPStreamTest.server.ipv4.ip packetDropNoRouteFound:sum(packetBytes) 0
scalar VoIPStreamTest.server.ipv4.ip packetDropUndefined:count 0
scalar VoIPStreamTest.server.ipv4.ip packetDropUndefined:sum(packetBytes) 0
scalar VoIPStreamTest.server.ipv4.arp arpResolutionFailed:count 0
scalar VoIPStreamTest.server.ipv4.arp arpResolutionCompleted:count 1
scalar VoIPStreamTest.server.ipv4.arp arpResolutionInitiated:count 1
scalar VoIPStreamTest.server.ipv4.arp arpReplySent:count 0
scalar VoIPStreamTest.server.ipv4.arp arpReplySent:sum(packetBytes) 0
scalar VoIPStreamTest.server.ipv4.arp arpRequestSent:count 1
scalar VoIPStreamTest.server.ipv4.arp arpRequestSent:sum(packetBytes) 28
scalar VoIPStreamTest.server.udp packetReceived:count 0
scalar VoIPStreamTest.server.udp packetReceived:sum(packetBytes) 0
scalar VoIPStreamTest.server.udp packetSent:count 2308
scalar VoIPStreamTest.server.udp packetSent:sum(packetBytes) 313269
scalar VoIPStreamTest.server.udp passedUpPk:count 0
scalar VoIPStreamTest.server.udp droppedPkWrongPort:count 0
scalar VoIPStreamTest.server.udp droppedPkBadChecksum:count 0
scalar VoIPStreamTest.server.app[0] packetSent:count 2308
scalar VoIPStreamTest.server.app[0] packetSent:sum(packetBytes) 294805
scalar VoIPStreamTest.client.app[0] lostPackets:stats:count 0
scalar VoIPStreamTest.client.app[0] lostPackets:stats:sumweights 0
scalar VoIPStreamTest.client.app[0] lostPackets:stats:mean -nan
scalar VoIPStreamTest.client.app[0] lostPackets:stats:stddev nan
scalar VoIPStreamTest.client.app[0] lostPackets:stats:min nan
scalar VoIPStreamTest.client.app[0] lostPackets:stats:max nan
scalar VoIPStreamTest.client.app[0] lostPackets:stats:numbins 0
scalar VoIPStreamTest.client.app[0] lostSamples:stats:count 0
scalar VoIPStreamTest.client.app[0] lostSamples:stats:sumweights 0
scalar VoIPStreamTest.client.app[0] lostSamples:stats:mean -nan
scalar VoIPStreamTest.client.app[0] lostSamples:stats:stddev nan
scalar VoIPStreamTest.client.app[0] lostSamples:stats:min nan
scalar VoIPStreamTest.client.app[0] lostSamples:stats:max nan
scalar VoIPStreamTest.client.app[0] lostSamples:stats:numbins 0
scalar VoIPStreamTest.client.eth[0].queue queueingTime:histogram:count 1
scalar VoIPStreamTest.client.eth[0].queue queueingTime:histogram:sumweights 1
scalar VoIPStreamTest.client.eth[0].queue queueingTime:histogram:mean 0
scalar VoIPStreamTest.client.eth[0].queue queueingTime:histogram:stddev nan
scalar VoIPStreamTest.client.eth[0].queue queueingTime:histogram:min 0
scalar VoIPStreamTest.client.eth[0].queue queueingTime:histogram:max 0
scalar VoIPStreamTest.client.eth[0].queue queueingTime:histogram:numbins 50
scalar VoIPStreamTest.client.eth[0].queue queueingTime:histogram:rangemin -0.5
scalar VoIPStreamTest.client.eth[0].queue queueingTime:histogram:rangemax 0.5
scalar VoIPStreamTest.client.eth[0].queue queueingTime:histogram:underflows 0
scalar VoIPStreamTest.client.eth[0].queue queueingTime:histogram:overflows 0
scalar VoIPStreamTest.client.eth[0].queue outgoingPacketLengths:histogram:count 1
scalar VoIPStreamTest.client.eth[0].queue outgoingPacketLengths:histogram:sumweights 1
scalar VoIPStreamTest.client.eth[0].queue outgoingPacketLengths:histogram:mean 368
scalar VoIPStreamTest.client.eth[0].queue outgoingPacketLengths:histogram:stddev nan
scalar VoIPStreamTest.client.eth[0].queue outgoingPacketLengths:histogram:min 368
scalar VoIPStreamTest.client.eth[0].queue outgoingPacketLengths:histogram:max 368
scalar VoIPStreamTest.client.eth[0].queue outgoingPacketLengths:histogram:numbins 2
scalar VoIPStreamTest.client.eth[0].queue outgoingPacketLengths:histogram:rangemin 367
scalar VoIPStreamTest.client.eth[0].queue outgoingPacketLengths:histogram:rangemax 369
scalar VoIPStreamTest.client.eth[0].queue outgoingPacketLengths:histogram:underflows 0
scalar VoIPStreamTest.client.eth[0].queue outgoingPacketLengths:histogram:overflows 0
scalar VoIPStreamTest.client.eth[0].queue flowQueueingTime:histogram:count 0
scalar VoIPStreamTest.client.eth[0].queue flowQueueingTime:histogram:sumweights 0
scalar VoIPStreamTest.client.eth[0].queue flowQueueingTime:histogram:mean -nan
scalar VoIPStreamTest.client.eth[0].queue flowQueueingTime:histogram:stddev nan
scalar VoIPStreamTest.client.eth[0].queue flowQueueingTime:histogram:min nan
scalar VoIPStreamTest.client.eth[0].queue flowQueueingTime:histogram:max nan
scalar VoIPStreamTest.client.eth[0].queue flowQueueingTime:histogram:numbins 1
scalar VoIPStreamTest.client.eth[0].queue flowQueueingTime:histogram:rangemin 0
scalar VoIPStreamTest.client.eth[0].queue flowQueueingTime:histogram:rangemax 1
scalar VoIPStreamTest.client.eth[0].queue flowQueueingTime:histogram:underflows 0
scalar VoIPStreamTest.client.eth[0].queue flowQueueingTime:histogram:overflows 0
scalar VoIPStreamTest.client.eth[0].queue incomingPacketLengths:histogram:count 1
scalar VoIPStreamTest.client.eth[0].queue incomingPacketLengths:histogram:sumweights 1
scalar VoIPStreamTest.client.eth[0].queue incomingPacketLengths:histogram:mean 368
scalar VoIPStreamTest.client.eth[0].queue incomingPacketLengths:histogram:stddev nan
scalar VoIPStreamTest.client.eth[0].queue incomingPacketLengths:histogram:min 368
scalar VoIPStreamTest.client.eth[0].queue incomingPacketLengths:histogram:max 368
scalar VoIPStreamTest.client.eth[0].queue incomingPacketLengths:histogram:numbins 2
scalar VoIPStreamTest.client.eth[0].queue incomingPacketLengths:histogram:rangemin 367
scalar VoIPStreamTest.client.eth[0].queue incomingPacketLengths:histogram:rangemax 369
scalar VoIPStreamTest.client.eth[0].queue incomingPacketLengths:histogram:underflows 0
scalar VoIPStreamTest.client.eth[0].queue incomingPacketLengths:histogram:overflows 0
scalar VoIPStreamTest.client.eth[0].mac throughput:histogram:count 1000
scalar VoIPStreamTest.client.eth[0].mac throughput:histogram:sumweights 1000
scalar VoIPStreamTest.client.eth[0].mac throughput:histogram:mean 5.76
scalar VoIPStreamTest.client.eth[0].mac throughput:histogram:stddev 182.1471932257
scalar VoIPStreamTest.client.eth[0].mac throughput:histogram:min 0
scalar VoIPStreamTest.client.eth[0].mac throughput:histogram:max 5760
scalar VoIPStreamTest.client.eth[0].mac throughput:histogram:numbins 73
scalar VoIPStreamTest.client.eth[0].mac throughput:histogram:rangemin 0
scalar VoIPStreamTest.client.eth[0].mac throughput:histogram:rangemax 7300
scalar VoIPStreamTest.client.eth[0].mac throughput:histogram:underflows 0
scalar VoIPStreamTest.client.eth[0].mac throughput:histogram:overflows 0
scalar VoIPStreamTest.client.eth[0].mac utilization:histogram:count 1000
scalar VoIPStreamTest.client.eth[0].mac utilization:histogram:sumweights 1000
scalar VoIPStreamTest.client.eth[0].mac utilization:histogram:mean 5.76e-06
scalar VoIPStreamTest.client.eth[0].mac utilization:histogram:stddev 0.0001821471932257
scalar VoIPStreamTest.client.eth[0].mac utilization:histogram:min 0
scalar VoIPStreamTest.client.eth[0].mac utilization:histogram:max 0.00576
scalar VoIPStreamTest.client.eth[0].mac utilization:histogram:numbins 72
scalar VoIPStreamTest.client.eth[0].mac utilization:histogram:rangemin 0
scalar VoIPStreamTest.client.eth[0].mac utilization:histogram:rangemax 0.0072
scalar VoIPStreamTest.client.eth[0].mac utilization:histogram:underflows 0
scalar VoIPStreamTest.client.eth[0].mac utilization:histogram:overflows 0
scalar VoIPStreamTest.client.app[0] delay:histogram:count 2308
scalar VoIPStreamTest.client.app[0] delay:histogram:sumweights 2308
scalar VoIPStreamTest.client.app[0] delay:histogram:mean 0.041272320000001
scalar VoIPStreamTest.client.app[0] delay:histogram:stddev 0
scalar VoIPStreamTest.client.app[0] delay:histogram:min 0.04127232
scalar VoIPStreamTest.client.app[0] delay:histogram:max 0.04127232
scalar VoIPStreamTest.client.app[0] delay:histogram:numbins 55
scalar VoIPStreamTest.client.app[0] delay:histogram:rangemin 0
scalar VoIPStreamTest.client.app[0] delay:histogram:rangemax 0.55
scalar VoIPStreamTest.client.app[0] delay:histogram:underflows 0
scalar VoIPStreamTest.client.app[0] delay:histogram:overflows 0
scalar VoIPStreamTest.switch.eth[0].queue queueingTime:histogram:count 2309
scalar VoIPStreamTest.switch.eth[0].queue queueingTime:histogram:sumweights 2309
scalar VoIPStreamTest.switch.eth[0].queue queueingTime:histogram:mean 0
scalar VoIPStreamTest.switch.eth[0].queue queueingTime:histogram:stddev 0
scalar VoIPStreamTest.switch.eth[0].queue queueingTime:histogram:min 0
scalar VoIPStreamTest.switch.eth[0].queue queueingTime:histogram:max 0
scalar VoIPStreamTest.switch.eth[0].queue queueingTime:histogram:numbins 50
scalar VoIPStreamTest.switch.eth[0].queue queueingTime:histogram:rangemin -0.5
scalar VoIPStreamTest.switch.eth[0].queue queueingTime:histogram:rangemax 0.5
scalar VoIPStreamTest.switch.eth[0].queue queueingTime:histogram:underflows 0
scalar VoIPStreamTest.switch.eth[0].queue queueingTime:histogram:overflows 0
scalar VoIPStreamTest.switch.eth[0].queue outgoingPacketLengths:histogram:count 2309
scalar VoIPStreamTest.switch.eth[0].queue outgoingPacketLengths:histogram:sumweights 2309
scalar VoIPStreamTest.switch.eth[0].queue outgoingPacketLengths:histogram:mean 1389.4742312689
scalar VoIPStreamTest.switch.eth[0].queue outgoingPacketLengths:histogram:stddev 44.754160543404
scalar VoIPStreamTest.switch.eth[0].queue outgoingPacketLengths:histogram:min 512
scalar VoIPStreamTest.switch.eth[0].queue outgoingPacketLengths:histogram:max 1392
scalar VoIPStreamTest.switch.eth[0].queue outgoingPacketLengths:histogram:numbins 67
scalar VoIPStreamTest.switch.eth[0].queue outgoingPacketLengths:histogram:rangemin 280
scalar VoIPStreamTest.switch.eth[0].queue outgoingPacketLengths:histogram:rangemax 1620
scalar VoIPStreamTest.switch.eth[0].queue outgoingPacketLengths:histogram:underflows 0
scalar VoIPStreamTest.switch.eth[0].queue outgoingPacketLengths:histogram:overflows 0
scalar VoIPStreamTest.switch.eth[0].queue flowQueueingTime:histogram:count 0
scalar VoIPStreamTest.switch.eth[0].queue flowQueueingTime:histogram:sumweights 0
scalar VoIPStreamTest.switch.eth[0].queue flowQueueingTime:histogram:mean -nan
scalar VoIPStreamTest.switch.eth[0].queue flowQueueingTime:histogram:stddev nan
scalar VoIPStreamTest.switch.eth[0].queue flowQueueingTime:histogram:min nan
scalar VoIPStreamTest.switch.eth[0].queue flowQueueingTime:histogram:max nan
scalar VoIPStreamTest.switch.eth[0].queue flowQueueingTime:histogram:numbins 1
scalar VoIPStreamTest.switch.eth[0].queue flowQueueingTime:histogram:rangemin 0
scalar VoIPStreamTest.switch.eth[0].queue flowQueueingTime:histogram:rangemax 1
scalar VoIPStreamTest.switch.eth[0].queue flowQueueingTime:histogram:underflows 0
scalar VoIPStreamTest.switch.eth[0].queue flowQueueingTime:histogram:overflows 0
scalar VoIPStreamTest.switch.eth[0].queue incomingPacketLengths:histogram:count 2309
scalar VoIPStreamTest.switch.eth[0].queue incomingPacketLengths:histogram:sumweights 2309
scalar VoIPStreamTest.switch.eth[0].queue incomingPacketLengths:histogram:mean 1389.4742312689
scalar VoIPStreamTest.switch.eth[0].queue incomingPacketLengths:histogram:stddev 44.754160543404
scalar VoIPStreamTest.switch.eth[0].queue incomingPacketLengths:histogram:min 512
scalar VoIPStreamTest.switch.eth[0].queue incomingPacketLengths:histogram:max 1392
scalar VoIPStreamTest.switch.eth[0].queue incomingPacketLengths:histogram:numbins 67
scalar VoIPStreamTest.switch.eth[0].queue incomingPacketLengths:histogram:rangemin 280
scalar VoIPStreamTest.switch.eth[0].queue incomingPacketLengths:histogram:rangemax 1620
scalar VoIPStreamTest.switch.eth[0].queue incomingPacketLengths:histogram:underflows 0
scalar VoIPStreamTest.switch.eth[0].queue incomingPacketLengths:histogram:overflows 0
scalar VoIPStreamTest.switch.eth[0].mac throughput:histogram:count 1000
scalar VoIPStreamTest.switch.eth[0].mac throughput:histogram:sumweights 1000
scalar VoIPStreamTest.switch.eth[0].mac throughput:histogram:mean 33560.72
scalar VoIPStreamTest.switch.eth[0].mac throughput:histogram:stddev 36264.129916492
scalar VoIPStreamTest.switch.eth[0].mac throughput:histogram:min 0
scalar VoIPStreamTest.switch.eth[0].mac throughput:histogram:max 72800
scalar VoIPStreamTest.switch.eth[0].mac throughput:histogram:numbins 83
scalar VoIPStreamTest.switch.eth[0].mac throughput:histogram:rangemin 0
scalar VoIPStreamTest.switch.eth[0].mac throughput:histogram:rangemax 83000
scalar VoIPStreamTest.switch.eth[0].mac throughput:histogram:underflows 0
scalar VoIPStreamTest.switch.eth[0].mac throughput:histogram:overflows 0
scalar VoIPStreamTest.switch.eth[0].mac utilization:histogram:count 1000
scalar VoIPStreamTest.switch.eth[0].mac utilization:histogram:sumweights 1000
scalar VoIPStreamTest.switch.eth[0].mac utilization:histogram:mean 0.03356072
scalar VoIPStreamTest.switch.eth[0].mac utilization:histogram:stddev 0.036264129916492
scalar VoIPStreamTest.switch.eth[0].mac utilization:histogram:min 0
scalar VoIPStreamTest.switch.eth[0].mac utilization:histogram:max 0.0728
scalar VoIPStreamTest.switch.eth[0].mac utilization:histogram:numbins 83
scalar VoIPStreamTest.switch.eth[0].mac utilization:histogram:rangemin 0
scalar VoIPStreamTest.switch.eth[0].mac utilization:histogram:rangemax 0.083
scalar VoIPStreamTest.switch.eth[0].mac utilization:histogram:underflows 0
scalar VoIPStreamTest.switch.eth[0].mac utilization:histogram:overflows 0
scalar VoIPStreamTest.switch.eth[1].queue queueingTime:histogram:count 1
scalar VoIPStreamTest.switch.eth[1].queue queueingTime:histogram:sumweights 1
scalar VoIPStreamTest.switch.eth[1].queue queueingTime:histogram:mean 0
scalar VoIPStreamTest.switch.eth[1].queue queueingTime:histogram:stddev nan
scalar VoIPStreamTest.switch.eth[1].queue queueingTime:histogram:min 0
scalar VoIPStreamTest.switch.eth[1].queue queueingTime:histogram:max 0
scalar VoIPStreamTest.switch.eth[1].queue queueingTime:histogram:numbins 50
scalar VoIPStreamTest.switch.eth[1].queue queueingTime:histogram:rangemin -0.5
scalar VoIPStreamTest.switch.eth[1].queue queueingTime:histogram:rangemax 0.5
scalar VoIPStreamTest.switch.eth[1].queue queueingTime:histogram:underflows 0
scalar VoIPStreamTest.switch.eth[1].queue queueingTime:histogram:overflows 0
scalar VoIPStreamTest.switch.eth[1].queue outgoingPacketLengths:histogram:count 1
scalar VoIPStreamTest.switch.eth[1].queue outgoingPacketLengths:histogram:sumweights 1
scalar VoIPStreamTest.switch.eth[1].queue outgoingPacketLengths:histogram:mean 512
scalar VoIPStreamTest.switch.eth[1].queue outgoingPacketLengths:histogram:stddev nan
scalar VoIPStreamTest.switch.eth[1].queue outgoingPacketLengths:histogram:min 512
scalar VoIPStreamTest.switch.eth[1].queue outgoingPacketLengths:histogram:max 512
scalar VoIPStreamTest.switch.eth[1].queue outgoingPacketLengths:histogram:numbins 2
scalar VoIPStreamTest.switch.eth[1].queue outgoingPacketLengths:histogram:rangemin 511
scalar VoIPStreamTest.switch.eth[1].queue outgoingPacketLengths:histogram:rangemax 513
scalar VoIPStreamTest.switch.eth[1].queue outgoingPacketLengths:histogram:underflows 0
scalar VoIPStreamTest.switch.eth[1].queue outgoingPacketLengths:histogram:overflows 0
scalar VoIPStreamTest.switch.eth[1].queue flowQueueingTime:histogram:count 0
scalar VoIPStreamTest.switch.eth[1].queue flowQueueingTime:histogram:sumweights 0
scalar VoIPStreamTest.switch.eth[1].queue flowQueueingTime:histogram:mean -nan
scalar VoIPStreamTest.switch.eth[1].queue flowQueueingTime:histogram:stddev nan
scalar VoIPStreamTest.switch.eth[1].queue flowQueueingTime:histogram:min nan
scalar VoIPStreamTest.switch.eth[1].queue flowQueueingTime:histogram:max nan
scalar VoIPStreamTest.switch.eth[1].queue flowQueueingTime:histogram:numbins 1
scalar VoIPStreamTest.switch.eth[1].queue flowQueueingTime:histogram:rangemin 0
scalar VoIPStreamTest.switch.eth[1].queue flowQueueingTime:histogram:rangemax 1
scalar VoIPStreamTest.switch.eth[1].queue flowQueueingTime:histogram:underflows 0
scalar VoIPStreamTest.switch.eth[1].queue flowQueueingTime:histogram:overflows 0
scalar VoIPStreamTest.switch.eth[1].queue incomingPacketLengths:histogram:count 1
scalar VoIPStreamTest.switch.eth[1].queue incomingPacketLengths:histogram:sumweights 1
scalar VoIPStreamTest.switch.eth[1].queue incomingPacketLengths:histogram:mean 512
scalar VoIPStreamTest.switch.eth[1].queue incomingPacketLengths:histogram:stddev nan
scalar VoIPStreamTest.switch.eth[1].queue incomingPacketLengths:histogram:min 512
scalar VoIPStreamTest.switch.eth[1].queue incomingPacketLengths:histogram:max 512
scalar VoIPStreamTest.switch.eth[1].queue incomingPacketLengths:histogram:numbins 2
scalar VoIPStreamTest.switch.eth[1].queue incomingPacketLengths:histogram:rangemin 511
scalar VoIPStreamTest.switch.eth[1].queue incomingPacketLengths:histogram:rangemax 513
scalar VoIPStreamTest.switch.eth[1].queue incomingPacketLengths:histogram:underflows 0
scalar VoIPStreamTest.switch.eth[1].queue incomingPacketLengths:histogram:overflows 0
scalar VoIPStreamTest.switch.eth[1].mac throughput:histogram:count 1000
scalar VoIPStreamTest.switch.eth[1].mac throughput:histogram:sumweights 1000
scalar VoIPStreamTest.switch.eth[1].mac throughput:histogram:mean 5.76
scalar VoIPStreamTest.switch.eth[1].mac throughput:histogram:stddev 182.1471932257
scalar VoIPStreamTest.switch.eth[1].mac throughput:histogram:min 0
scalar VoIPStreamTest.switch.eth[1].mac throughput:histogram:max 5760
scalar VoIPStreamTest.switch.eth[1].mac throughput:histogram:numbins 73
scalar VoIPStreamTest.switch.eth[1].mac throughput:histogram:rangemin 0
scalar VoIPStreamTest.switch.eth[1].mac throughput:histogram:rangemax 7300
scalar VoIPStreamTest.switch.eth[1].mac throughput:histogram:underflows 0
scalar VoIPStreamTest.switch.eth[1].mac throughput:histogram:overflows 0
scalar VoIPStreamTest.switch.eth[1].mac utilization:histogram:count 1000
scalar VoIPStreamTest.switch.eth[1].mac utilization:histogram:sumweights 1000
scalar VoIPStreamTest.switch.eth[1].mac utilization:histogram:mean 5.76e-06
scalar VoIPStreamTest.switch.eth[1].mac utilization:histogram:stddev 0.0001821471932257
scalar VoIPStreamTest.switch.eth[1].mac utilization:histogram:min 0
scalar VoIPStreamTest.switch.eth[1].mac utilization:histogram:max 0.00576
scalar VoIPStreamTest.switch.eth[1].mac utilization:histogram:numbins 72
scalar VoIPStreamTest.switch.eth[1].mac utilization:histogram:rangemin 0
scalar VoIPStreamTest.switch.eth[1].mac utilization:histogram:rangemax 0.0072
scalar VoIPStreamTest.switch.eth[1].mac utilization:histogram:underflows 0
scalar VoIPStreamTest.switch.eth[1].mac utilization:histogram:overflows 0
scalar VoIPStreamTest.net.eth[0].queue queueingTime:histogram:count 2309
scalar VoIPStreamTest.net.eth[0].queue queueingTime:histogram:sumweights 2309
scalar VoIPStreamTest.net.eth[0].queue queueingTime:histogram:mean 0
scalar VoIPStreamTest.net.eth[0].queue queueingTime:histogram:stddev 0
scalar VoIPStreamTest.net.eth[0].queue queueingTime:histogram:min 0
scalar VoIPStreamTest.net.eth[0].queue queueingTime:histogram:max 0
scalar VoIPStreamTest.net.eth[0].queue queueingTime:histogram:numbins 50
scalar VoIPStreamTest.net.eth[0].queue queueingTime:histogram:rangemin -0.5
scalar VoIPStreamTest.net.eth[0].queue queueingTime:histogram:rangemax 0.5
scalar VoIPStreamTest.net.eth[0].queue queueingTime:histogram:underflows 0
scalar VoIPStreamTest.net.eth[0].queue queueingTime:histogram:overflows 0
scalar VoIPStreamTest.net.eth[0].queue outgoingPacketLengths:histogram:count 2309
scalar VoIPStreamTest.net.eth[0].queue outgoingPacketLengths:histogram:sumweights 2309
scalar VoIPStreamTest.net.eth[0].queue outgoingPacketLengths:histogram:mean 1389.4118666089
scalar VoIPStreamTest.net.eth[0].queue outgoingPacketLengths:histogram:stddev 46.058762269802
scalar VoIPStreamTest.net.eth[0].queue outgoingPacketLengths:histogram:min 368
scalar VoIPStreamTest.net.eth[0].queue outgoingPacketLengths:histogram:max 1392
scalar VoIPStreamTest.net.eth[0].queue outgoingPacketLengths:histogram:numbins 78
scalar VoIPStreamTest.net.eth[0].queue outgoingPacketLengths:histogram:rangemin 100
scalar VoIPStreamTest.net.eth[0].queue outgoingPacketLengths:histogram:rangemax 1660
scalar VoIPStreamTest.net.eth[0].queue outgoingPacketLengths:histogram:underflows 0
scalar VoIPStreamTest.net.eth[0].queue outgoingPacketLengths:histogram:overflows 0
scalar VoIPStreamTest.net.eth[0].queue flowQueueingTime:histogram:count 0
scalar VoIPStreamTest.net.eth[0].queue flowQueueingTime:histogram:sumweights 0
scalar VoIPStreamTest.net.eth[0].queue flowQueueingTime:histogram:mean -nan
scalar VoIPStreamTest.net.eth[0].queue flowQueueingTime:histogram:stddev nan
scalar VoIPStreamTest.net.eth[0].queue flowQueueingTime:histogram:min nan
scalar VoIPStreamTest.net.eth[0].queue flowQueueingTime:histogram:max nan
scalar VoIPStreamTest.net.eth[0].queue flowQueueingTime:histogram:numbins 1
scalar VoIPStreamTest.net.eth[0].queue flowQueueingTime:histogram:rangemin 0
scalar VoIPStreamTest.net.eth[0].queue flowQueueingTime:histogram:rangemax 1
scalar VoIPStreamTest.net.eth[0].queue flowQueueingTime:histogram:underflows 0
scalar VoIPStreamTest.net.eth[0].queue flowQueueingTime:histogram:overflows 0
scalar VoIPStreamTest.net.eth[0].queue incomingPacketLengths:histogram:count 2309
scalar VoIPStreamTest.net.eth[0].queue incomingPacketLengths:histogram:sumweights 2309
scalar VoIPStreamTest.net.eth[0].queue incomingPacketLengths:histogram:mean 1389.4118666089
scalar VoIPStreamTest.net.eth[0].queue incomingPacketLengths:histogram:stddev 46.058762269802
scalar VoIPStreamTest.net.eth[0].queue incomingPacketLengths:histogram:min 368
scalar VoIPStreamTest.net.eth[0].queue incomingPacketLengths:histogram:max 1392
scalar VoIPStreamTest.net.eth[0].queue incomingPacketLengths:histogram:numbins 78
scalar VoIPStreamTest.net.eth[0].queue incomingPacketLengths:histogram:rangemin 100
scalar VoIPStreamTest.net.eth[0].queue incomingPacketLengths:histogram:rangemax 1660
scalar VoIPStreamTest.net.eth[0].queue incomingPacketLengths:histogram:underflows 0
scalar VoIPStreamTest.net.eth[0].queue incomingPacketLengths:histogram:overflows 0
scalar VoIPStreamTest.net.eth[0].mac throughput:histogram:count 1000
scalar VoIPStreamTest.net.eth[0].mac throughput:histogram:sumweights 1000
scalar VoIPStreamTest.net.eth[0].mac throughput:histogram:mean 33560.72
scalar VoIPStreamTest.net.eth[0].mac throughput:histogram:stddev 36264.129916492
scalar VoIPStreamTest.net.eth[0].mac throughput:histogram:min 0
scalar VoIPStreamTest.net.eth[0].mac throughput:histogram:max 72800
scalar VoIPStreamTest.net.eth[0].mac throughput:histogram:numbins 83
scalar VoIPStreamTest.net.eth[0].mac throughput:histogram:rangemin 0
scalar VoIPStreamTest.net.eth[0].mac throughput:histogram:rangemax 83000
scalar VoIPStreamTest.net.eth[0].mac throughput:histogram:underflows 0
scalar VoIPStreamTest.net.eth[0].mac throughput:histogram:overflows 0
scalar VoIPStreamTest.net.eth[0].mac utilization:histogram:count 1000
scalar VoIPStreamTest.net.eth[0].mac utilization:histogram:sumweights 1000
scalar VoIPStreamTest.net.eth[0].mac utilization:histogram:mean 0.03356072
scalar VoIPStreamTest.net.eth[0].mac utilization:histogram:stddev 0.036264129916492
scalar VoIPStreamTest.net.eth[0].mac utilization:histogram:min 0
scalar VoIPStreamTest.net.eth[0].mac utilization:histogram:max 0.0728
scalar VoIPStreamTest.net.eth[0].mac utilization:histogram:numbins 83
scalar VoIPStreamTest.net.eth[0].mac utilization:histogram:rangemin 0
scalar VoIPStreamTest.net.eth[0].mac utilization:histogram:rangemax 0.083
scalar VoIPStreamTest.net.eth[0].mac utilization:histogram:underflows 0
scalar VoIPStreamTest.net.eth[0].mac utilization:histogram:overflows 0
scalar VoIPStreamTest.net.eth[1].queue queueingTime:histogram:count 1
scalar VoIPStreamTest.net.eth[1].queue queueingTime:histogram:sumweights 1
scalar VoIPStreamTest.net.eth[1].queue queueingTime:histogram:mean 0
scalar VoIPStreamTest.net.eth[1].queue queueingTime:histogram:stddev nan
scalar VoIPStreamTest.net.eth[1].queue queueingTime:histogram:min 0
scalar VoIPStreamTest.net.eth[1].queue queueingTime:histogram:max 0
scalar VoIPStreamTest.net.eth[1].queue queueingTime:histogram:numbins 50
scalar VoIPStreamTest.net.eth[1].queue queueingTime:histogram:rangemin -0.5
scalar VoIPStreamTest.net.eth[1].queue queueingTime:histogram:rangemax 0.5
scalar VoIPStreamTest.net.eth[1].queue queueingTime:histogram:underflows 0
scalar VoIPStreamTest.net.eth[1].queue queueingTime:histogram:overflows 0
scalar VoIPStreamTest.net.eth[1].queue outgoingPacketLengths:histogram:count 1
scalar VoIPStreamTest.net.eth[1].queue outgoingPacketLengths:histogram:sumweights 1
scalar VoIPStreamTest.net.eth[1].queue outgoingPacketLengths:histogram:mean 368
scalar VoIPStreamTest.net.eth[1].queue outgoingPacketLengths:histogram:stddev nan
scalar VoIPStreamTest.net.eth[1].queue outgoingPacketLengths:histogram:min 368
scalar VoIPStreamTest.net.eth[1].queue outgoingPacketLengths:histogram:max 368
scalar VoIPStreamTest.net.eth[1].queue outgoingPacketLengths:histogram:numbins 2
scalar VoIPStreamTest.net.eth[1].queue outgoingPacketLengths:histogram:rangemin 367
scalar VoIPStreamTest.net.eth[1].queue outgoingPacketLengths:histogram:rangemax 369
scalar VoIPStreamTest.net.eth[1].queue outgoingPacketLengths:histogram:underflows 0
scalar VoIPStreamTest.net.eth[1].queue outgoingPacketLengths:histogram:overflows 0
scalar VoIPStreamTest.net.eth[1].queue flowQueueingTime:histogram:count 0
scalar VoIPStreamTest.net.eth[1].queue flowQueueingTime:histogram:sumweights 0
scalar VoIPStreamTest.net.eth[1].queue flowQueueingTime:histogram:mean -nan
scalar VoIPStreamTest.net.eth[1].queue flowQueueingTime:histogram:stddev nan
scalar VoIPStreamTest.net.eth[1].queue flowQueueingTime:histogram:min nan
scalar VoIPStreamTest.net.eth[1].queue flowQueueingTime:histogram:max nan
scalar VoIPStreamTest.net.eth[1].queue flowQueueingTime:histogram:numbins 1
scalar VoIPStreamTest.net.eth[1].queue flowQueueingTime:histogram:rangemin 0
scalar VoIPStreamTest.net.eth[1].queue flowQueueingTime:histogram:rangemax 1
scalar VoIPStreamTest.net.eth[1].queue flowQueueingTime:histogram:underflows 0
scalar VoIPStreamTest.net.eth[1].queue flowQueueingTime:histogram:overflows 0
scalar VoIPStreamTest.net.eth[1].queue incomingPacketLengths:histogram:count 1
scalar VoIPStreamTest.net.eth[1].queue incomingPacketLengths:histogram:sumweights 1
scalar VoIPStreamTest.net.eth[1].queue incomingPacketLengths:histogram:mean 368
scalar VoIPStreamTest.net.eth[1].queue incomingPacketLengths:histogram:stddev nan
scalar VoIPStreamTest.net.eth[1].queue incomingPacketLengths:histogram:min 368
scalar VoIPStreamTest.net.eth[1].queue incomingPacketLengths:histogram:max 368
scalar VoIPStreamTest.net.eth[1].queue incomingPacketLengths:histogram:numbins 2
scalar VoIPStreamTest.net.eth[1].queue incomingPacketLengths:histogram:rangemin 367
scalar VoIPStreamTest.net.eth[1].queue incomingPacketLengths:histogram:rangemax 369
scalar VoIPStreamTest.net.eth[1].queue incomingPacketLengths:histogram:underflows 0
scalar VoIPStreamTest.net.eth[1].queue incomingPacketLengths:histogram:overflows 0
scalar VoIPStreamTest.net.eth[1].mac throughput:histogram:count 1000
scalar VoIPStreamTest.net.eth[1].mac throughput:histogram:sumweights 1000
scalar VoIPStreamTest.net.eth[1].mac throughput:histogram:mean 5.76
scalar VoIPStreamTest.net.eth[1].mac throughput:histogram:stddev 182.1471932257
scalar VoIPStreamTest.net.eth[1].mac throughput:histogram:min 0
scalar VoIPStreamTest.net.eth[1].mac throughput:histogram:max 5760
scalar VoIPStreamTest.net.eth[1].mac throughput:histogram:numbins 73
scalar VoIPStreamTest.net.eth[1].mac throughput:histogram:rangemin 0
scalar VoIPStreamTest.net.eth[1].mac throughput:histogram:rangemax 7300
scalar VoIPStreamTest.net.eth[1].mac throughput:histogram:underflows 0
scalar VoIPStreamTest.net.eth[1].mac throughput:histogram:overflows 0
scalar VoIPStreamTest.net.eth[1].mac utilization:histogram:count 1000
scalar VoIPStreamTest.net.eth[1].mac utilization:histogram:sumweights 1000
scalar VoIPStreamTest.net.eth[1].mac utilization:histogram:mean 5.76e-06
scalar VoIPStreamTest.net.eth[1].mac utilization:histogram:stddev 0.0001821471932257
scalar VoIPStreamTest.net.eth[1].mac utilization:histogram:min 0
scalar VoIPStreamTest.net.eth[1].mac utilization:histogram:max 0.00576
scalar VoIPStreamTest.net.eth[1].mac utilization:histogram:numbins 72
scalar VoIPStreamTest.net.eth[1].mac utilization:histogram:rangemin 0
scalar VoIPStreamTest.net.eth[1].mac utilization:histogram:rangemax 0.0072
scalar VoIPStreamTest.net.eth[1].mac utilization:histogram:underflows 0
scalar VoIPStreamTest.net.eth[1].mac utilization:histogram:overflows 0
scalar VoIPStreamTest.router.eth[0].queue queueingTime:histogram:count 2309
scalar VoIPStreamTest.router.eth[0].queue queueingTime:histogram:sumweights 2309
scalar VoIPStreamTest.router.eth[0].queue queueingTime:histogram:mean 0
scalar VoIPStreamTest.router.eth[0].queue queueingTime:histogram:stddev 0
scalar VoIPStreamTest.router.eth[0].queue queueingTime:histogram:min 0
scalar VoIPStreamTest.router.eth[0].queue queueingTime:histogram:max 0
scalar VoIPStreamTest.router.eth[0].queue queueingTime:histogram:numbins 50
scalar VoIPStreamTest.router.eth[0].queue queueingTime:histogram:rangemin -0.5
scalar VoIPStreamTest.router.eth[0].queue queueingTime:histogram:rangemax 0.5
scalar VoIPStreamTest.router.eth[0].queue queueingTime:histogram:underflows 0
scalar VoIPStreamTest.router.eth[0].queue queueingTime:histogram:overflows 0
scalar VoIPStreamTest.router.eth[0].queue outgoingPacketLengths:histogram:count 2309
scalar VoIPStreamTest.router.eth[0].queue outgoingPacketLengths:histogram:sumweights 2309
scalar VoIPStreamTest.router.eth[0].queue outgoingPacketLengths:histogram:mean 1389.4118666089
scalar VoIPStreamTest.router.eth[0].queue outgoingPacketLengths:histogram:stddev 46.058762269802
scalar VoIPStreamTest.router.eth[0].queue outgoingPacketLengths:histogram:min 368
scalar VoIPStreamTest.router.eth[0].queue outgoingPacketLengths:histogram:max 1392
scalar VoIPStreamTest.router.eth[0].queue outgoingPacketLengths:histogram:numbins 78
scalar VoIPStreamTest.router.eth[0].queue outgoingPacketLengths:histogram:rangemin 100
scalar VoIPStreamTest.router.eth[0].queue outgoingPacketLengths:histogram:rangemax 1660
scalar VoIPStreamTest.router.eth[0].queue outgoingPacketLengths:histogram:underflows 0
scalar VoIPStreamTest.router.eth[0].queue outgoingPacketLengths:histogram:overflows 0
scalar VoIPStreamTest.router.eth[0].queue flowQueueingTime:histogram:count 0
scalar VoIPStreamTest.router.eth[0].queue flowQueueingTime:histogram:sumweights 0
scalar VoIPStreamTest.router.eth[0].queue flowQueueingTime:histogram:mean -nan
scalar VoIPStreamTest.router.eth[0].queue flowQueueingTime:histogram:stddev nan
scalar VoIPStreamTest.router.eth[0].queue flowQueueingTime:histogram:min nan
scalar VoIPStreamTest.router.eth[0].queue flowQueueingTime:histogram:max nan
scalar VoIPStreamTest.router.eth[0].queue flowQueueingTime:histogram:numbins 1
scalar VoIPStreamTest.router.eth[0].queue flowQueueingTime:histogram:rangemin 0
scalar VoIPStreamTest.router.eth[0].queue flowQueueingTime:histogram:rangemax 1
scalar VoIPStreamTest.router.eth[0].queue flowQueueingTime:histogram:underflows 0
scalar VoIPStreamTest.router.eth[0].queue flowQueueingTime:histogram:overflows 0
scalar VoIPStreamTest.router.eth[0].queue incomingPacketLengths:histogram:count 2309
scalar VoIPStreamTest.router.eth[0].queue incomingPacketLengths:histogram:sumweights 2309
scalar VoIPStreamTest.router.eth[0].queue incomingPacketLengths:histogram:mean 1389.4118666089
scalar VoIPStreamTest.router.eth[0].queue incomingPacketLengths:histogram:stddev 46.058762269802
scalar VoIPStreamTest.router.eth[0].queue incomingPacketLengths:histogram:min 368
scalar VoIPStreamTest.router.eth[0].queue incomingPacketLengths:histogram:max 1392
scalar VoIPStreamTest.router.eth[0].queue incomingPacketLengths:histogram:numbins 78
scalar VoIPStreamTest.router.eth[0].queue incomingPacketLengths:histogram:rangemin 100
scalar VoIPStreamTest.router.eth[0].queue incomingPacketLengths:histogram:rangemax 1660
scalar VoIPStreamTest.router.eth[0].queue incomingPacketLengths:histogram:underflows 0
scalar VoIPStreamTest.router.eth[0].queue incomingPacketLengths:histogram:overflows 0
scalar VoIPStreamTest.router.eth[0].mac throughput:histogram:count 1000
scalar VoIPStreamTest.router.eth[0].mac throughput:histogram:sumweights 1000
scalar VoIPStreamTest.router.eth[0].mac throughput:histogram:mean 33560.72
scalar VoIPStreamTest.router.eth[0].mac throughput:histogram:stddev 36264.129916492
scalar VoIPStreamTest.router.eth[0].mac throughput:histogram:min 0
scalar VoIPStreamTest.router.eth[0].mac throughput:histogram:max 72800
scalar VoIPStreamTest.router.eth[0].mac throughput:histogram:numbins 83
scalar VoIPStreamTest.router.eth[0].mac throughput:histogram:rangemin 0
scalar VoIPStreamTest.router.eth[0].mac throughput:histogram:rangemax 83000
scalar VoIPStreamTest.router.eth[0].mac throughput:histogram:underflows 0
scalar VoIPStreamTest.router.eth[0].mac throughput:histogram:overflows 0
scalar VoIPStreamTest.router.eth[0].mac utilization:histogram:count 1000
scalar VoIPStreamTest.router.eth[0].mac utilization:histogram:sumweights 1000
scalar VoIPStreamTest.router.eth[0].mac utilization:histogram:mean 0.03356072
scalar VoIPStreamTest.router.eth[0].mac utilization:histogram:stddev 0.036264129916492
scalar VoIPStreamTest.router.eth[0].mac utilization:histogram:min 0
scalar VoIPStreamTest.router.eth[0].mac utilization:histogram:max 0.0728
scalar VoIPStreamTest.router.eth[0].mac utilization:histogram:numbins 83
scalar VoIPStreamTest.router.eth[0].mac utilization:histogram:rangemin 0
scalar VoIPStreamTest.router.eth[0].mac utilization:histogram:rangemax 0.083
scalar VoIPStreamTest.router.eth[0].mac utilization:histogram:underflows 0
scalar VoIPStreamTest.router.eth[0].mac utilization:histogram:overflows 0
scalar VoIPStreamTest.router.eth[1].queue queueingTime:histogram:count 1
scalar VoIPStreamTest.router.eth[1].queue queueingTime:histogram:sumweights 1
scalar VoIPStreamTest.router.eth[1].queue queueingTime:histogram:mean 0
scalar VoIPStreamTest.router.eth[1].queue queueingTime:histogram:stddev nan
scalar VoIPStreamTest.router.eth[1].queue queueingTime:histogram:min 0
scalar VoIPStreamTest.router.eth[1].queue queueingTime:histogram:max 0
scalar VoIPStreamTest.router.eth[1].queue queueingTime:histogram:numbins 50
scalar VoIPStreamTest.router.eth[1].queue queueingTime:histogram:rangemin -0.5
scalar VoIPStreamTest.router.eth[1].queue queueingTime:histogram:rangemax 0.5
scalar VoIPStreamTest.router.eth[1].queue queueingTime:histogram:underflows 0
scalar VoIPStreamTest.router.eth[1].queue queueingTime:histogram:overflows 0
scalar VoIPStreamTest.router.eth[1].queue outgoingPacketLengths:histogram:count 1
scalar VoIPStreamTest.router.eth[1].queue outgoingPacketLengths:histogram:sumweights 1
scalar VoIPStreamTest.router.eth[1].queue outgoingPacketLengths:histogram:mean 368
scalar VoIPStreamTest.router.eth[1].queue outgoingPacketLengths:histogram:stddev nan
scalar VoIPStreamTest.router.eth[1].queue outgoingPacketLengths:histogram:min 368
scalar VoIPStreamTest.router.eth[1].queue outgoingPacketLengths:histogram:max 368
scalar VoIPStreamTest.router.eth[1].queue outgoingPacketLengths:histogram:numbins 2
scalar VoIPStreamTest.router.eth[1].queue outgoingPacketLengths:histogram:rangemin 367
scalar VoIPStreamTest.router.eth[1].queue outgoingPacketLengths:histogram:rangemax 369
scalar VoIPStreamTest.router.eth[1].queue outgoingPacketLengths:histogram:underflows 0
scalar VoIPStreamTest.router.eth[1].queue outgoingPacketLengths:histogram:overflows 0
scalar VoIPStreamTest.router.eth[1].queue flowQueueingTime:histogram:count 0
scalar VoIPStreamTest.router.eth[1].queue flowQueueingTime:histogram:sumweights 0
scalar VoIPStreamTest.router.eth[1].queue flowQueueingTime:histogram:mean -nan
scalar VoIPStreamTest.router.eth[1].queue flowQueueingTime:histogram:stddev nan
scalar VoIPStreamTest.router.eth[1].queue flowQueueingTime:histogram:min nan
scalar VoIPStreamTest.router.eth[1].queue flowQueueingTime:histogram:max nan
scalar VoIPStreamTest.router.eth[1].queue flowQueueingTime:histogram:numbins 1
scalar VoIPStreamTest.router.eth[1].queue flowQueueingTime:histogram:rangemin 0
scalar VoIPStreamTest.router.eth[1].queue flowQueueingTime:histogram:rangemax 1
scalar VoIPStreamTest.router.eth[1].queue flowQueueingTime:histogram:underflows 0
scalar VoIPStreamTest.router.eth[1].queue flowQueueingTime:histogram:overflows 0
scalar VoIPStreamTest.router.eth[1].queue incomingPacketLengths:histogram:count 1
scalar VoIPStreamTest.router.eth[1].queue incomingPacketLengths:histogram:sumweights 1
scalar VoIPStreamTest.router.eth[1].queue incomingPacketLengths:histogram:mean 368
scalar VoIPStreamTest.router.eth[1].queue incomingPacketLengths:histogram:stddev nan
scalar VoIPStreamTest.router.eth[1].queue incomingPacketLengths:histogram:min 368
scalar VoIPStreamTest.router.eth[1].queue incomingPacketLengths:histogram:max 368
scalar VoIPStreamTest.router.eth[1].queue incomingPacketLengths:histogram:numbins 2
scalar VoIPStreamTest.router.eth[1].queue incomingPacketLengths:histogram:rangemin 367
scalar VoIPStreamTest.router.eth[1].queue incomingPacketLengths:histogram:rangemax 369
scalar VoIPStreamTest.router.eth[1].queue incomingPacketLengths:histogram:underflows 0
scalar VoIPStreamTest.router.eth[1].queue incomingPacketLengths:histogram:overflows 0
scalar VoIPStreamTest.router.eth[1].mac throughput:histogram:count 1000
scalar VoIPStreamTest.router.eth[1].mac throughput:histogram:sumweights 1000
scalar VoIPStreamTest.router.eth[1].mac throughput:histogram:mean 5.76
scalar VoIPStreamTest.router.eth[1].mac throughput:histogram:stddev 182.1471932257
scalar VoIPStreamTest.router.eth[1].mac throughput:histogram:min 0
scalar VoIPStreamTest.router.eth[1].mac throughput:histogram:max 5760
scalar VoIPStreamTest.router.eth[1].mac throughput:histogram:numbins 73
scalar VoIPStreamTest.router.eth[1].mac throughput:histogram:rangemin 0
scalar VoIPStreamTest.router.eth[1].mac throughput:histogram:rangemax 7300
scalar VoIPStreamTest.router.eth[1].mac throughput:histogram:underflows 0
scalar VoIPStreamTest.router.eth[1].mac throughput:histogram:overflows 0
scalar VoIPStreamTest.router.eth[1].mac utilization:histogram:count 1000
scalar VoIPStreamTest.router.eth[1].mac utilization:histogram:sumweights 1000
scalar VoIPStreamTest.router.eth[1].mac utilization:histogram:mean 5.76e-06
scalar VoIPStreamTest.router.eth[1].mac utilization:histogram:stddev 0.0001821471932257
scalar VoIPStreamTest.router.eth[1].mac utilization:histogram:min 0
scalar VoIPStreamTest.router.eth[1].mac utilization:histogram:max 0.00576
scalar VoIPStreamTest.router.eth[1].mac utilization:histogram:numbins 72
scalar VoIPStreamTest.router.eth[1].mac utilization:histogram:rangemin 0
scalar VoIPStreamTest.router.eth[1].mac utilization:histogram:rangemax 0.0072
scalar VoIPStreamTest.router.eth[1].mac utilization:histogram:underflows 0
scalar VoIPStreamTest.router.eth[1].mac utilization:histogram:overflows 0
scalar VoIPStreamTest.server.eth[0].queue queueingTime:histogram:count 2309
scalar VoIPStreamTest.server.eth[0].queue queueingTime:histogram:sumweights 2309
scalar VoIPStreamTest.server.eth[0].queue queueingTime:histogram:mean 0
scalar VoIPStreamTest.server.eth[0].queue queueingTime:histogram:stddev 0
scalar VoIPStreamTest.server.eth[0].queue queueingTime:histogram:min 0
scalar VoIPStreamTest.server.eth[0].queue queueingTime:histogram:max 0
scalar VoIPStreamTest.server.eth[0].queue queueingTime:histogram:numbins 50
scalar VoIPStreamTest.server.eth[0].queue queueingTime:histogram:rangemin -0.5
scalar VoIPStreamTest.server.eth[0].queue queueingTime:histogram:rangemax 0.5
scalar VoIPStreamTest.server.eth[0].queue queueingTime:histogram:underflows 0
scalar VoIPStreamTest.server.eth[0].queue queueingTime:histogram:overflows 0
scalar VoIPStreamTest.server.eth[0].queue outgoingPacketLengths:histogram:count 2309
scalar VoIPStreamTest.server.eth[0].queue outgoingPacketLengths:histogram:sumweights 2309
scalar VoIPStreamTest.server.eth[0].queue outgoingPacketLengths:histogram:mean 1389.4118666089
scalar VoIPStreamTest.server.eth[0].queue outgoingPacketLengths:histogram:stddev 46.058762269802
scalar VoIPStreamTest.server.eth[0].queue outgoingPacketLengths:histogram:min 368
scalar VoIPStreamTest.server.eth[0].queue outgoingPacketLengths:histogram:max 1392
scalar VoIPStreamTest.server.eth[0].queue outgoingPacketLengths:histogram:numbins 78
scalar VoIPStreamTest.server.eth[0].queue outgoingPacketLengths:histogram:rangemin 100
scalar VoIPStreamTest.server.eth[0].queue outgoingPacketLengths:histogram:rangemax 1660
scalar VoIPStreamTest.server.eth[0].queue outgoingPacketLengths:histogram:underflows 0
scalar VoIPStreamTest.server.eth[0].queue outgoingPacketLengths:histogram:overflows 0
scalar VoIPStreamTest.server.eth[0].queue flowQueueingTime:histogram:count 0
scalar VoIPStreamTest.server.eth[0].queue flowQueueingTime:histogram:sumweights 0
scalar VoIPStreamTest.server.eth[0].queue flowQueueingTime:histogram:mean -nan
scalar VoIPStreamTest.server.eth[0].queue flowQueueingTime:histogram:stddev nan
scalar VoIPStreamTest.server.eth[0].queue flowQueueingTime:histogram:min nan
scalar VoIPStreamTest.server.eth[0].queue flowQueueingTime:histogram:max nan
scalar VoIPStreamTest.server.eth[0].queue flowQueueingTime:histogram:numbins 1
scalar VoIPStreamTest.server.eth[0].queue flowQueueingTime:histogram:rangemin 0
scalar VoIPStreamTest.server.eth[0].queue flowQueueingTime:histogram:rangemax 1
scalar VoIPStreamTest.server.eth[0].queue flowQueueingTime:histogram:underflows 0
scalar VoIPStreamTest.server.eth[0].queue flowQueueingTime:histogram:overflows 0
scalar VoIPStreamTest.server.eth[0].queue incomingPacketLengths:histogram:count 2309
scalar VoIPStreamTest.server.eth[0].queue incomingPacketLengths:histogram:sumweights 2309
scalar VoIPStreamTest.server.eth[0].queue incomingPacketLengths:histogram:mean 1389.4118666089
scalar VoIPStreamTest.server.eth[0].queue incomingPacketLengths:histogram:stddev 46.058762269802
scalar VoIPStreamTest.server.eth[0].queue incomingPacketLengths:histogram:min 368
scalar VoIPStreamTest.server.eth[0].queue incomingPacketLengths:histogram:max 1392
scalar VoIPStreamTest.server.eth[0].queue incomingPacketLengths:histogram:numbins 78
scalar VoIPStreamTest.server.eth[0].queue incomingPacketLengths:histogram:rangemin 100
scalar VoIPStreamTest.server.eth[0].queue incomingPacketLengths:histogram:rangemax 1660
scalar VoIPStreamTest.server.eth[0].queue incomingPacketLengths:histogram:underflows 0
scalar VoIPStreamTest.server.eth[0].queue incomingPacketLengths:histogram:overflows 0
scalar VoIPStreamTest.server.eth[0].mac throughput:histogram:count 1000
scalar VoIPStreamTest.server.eth[0].mac throughput:histogram:sumweights 1000
scalar VoIPStreamTest.server.eth[0].mac throughput:histogram:mean 33560.72
scalar VoIPStreamTest.server.eth[0].mac throughput:histogram:stddev 36264.129916492
scalar VoIPStreamTest.server.eth[0].mac throughput:histogram:min 0
scalar VoIPStreamTest.server.eth[0].mac throughput:histogram:max 72800
scalar VoIPStreamTest.server.eth[0].mac throughput:histogram:numbins 83
scalar VoIPStreamTest.server.eth[0].mac throughput:histogram:rangemin 0
scalar VoIPStreamTest.server.eth[0].mac throughput:histogram:rangemax 83000
scalar VoIPStreamTest.server.eth[0].mac throughput:histogram:underflows 0
scalar VoIPStreamTest.server.eth[0].mac throughput:histogram:overflows 0
scalar VoIPStreamTest.server.eth[0].mac utilization:histogram:count 1000
scalar VoIPStreamTest.server.eth[0].mac utilization:histogram:sumweights 1000
scalar VoIPStreamTest.server.eth[0].mac utilization:histogram:mean 0.03356072
scalar VoIPStreamTest.server.eth[0].mac utilization:histogram:stddev 0.036264129916492
scalar VoIPStreamTest.server.eth[0].mac utilization:histogram:min 0
scalar VoIPStreamTest.server.eth[0].mac utilization:histogram:max 0.0728
scalar VoIPStreamTest.server.eth[0].mac utilization:histogram:numbins 83
scalar VoIPStreamTest.server.eth[0].mac utilization:histogram:rangemin 0
scalar VoIPStreamTest.server.eth[0].mac utilization:histogram:rangemax 0.083
scalar VoIPStreamTest.server.eth[0].mac utilization:histogram:underflows 0
[...]
scalar VoIPStreamTest.server.eth[0].mac txPk:vector(packetBytes):sum 401037
scalar VoIPStreamTest.server.eth[0].mac txPk:vector(packetBytes):sumweights 2309
scalar VoIPStreamTest.server.eth[0].mac txPk:vector(packetBytes):mean 173.68427890862
scalar VoIPStreamTest.server.eth[0].mac txPk:vector(packetBytes):stddev 5.5942700679256
scalar VoIPStreamTest.server.eth[0].mac txPk:vector(packetBytes):min 64
scalar VoIPStreamTest.server.eth[0].mac txPk:vector(packetBytes):max 174
scalar VoIPStreamTest.server.eth[0].mac txPk:vector(packetBytes):starttime 0.02000576
scalar VoIPStreamTest.server.eth[0].mac txPk:vector(packetBytes):endtime 46.16001304
scalar VoIPStreamTest.server.eth[0].mac rxPkOk:vector(packetBytes):count 1
scalar VoIPStreamTest.server.eth[0].mac rxPkOk:vector(packetBytes):sum 64
scalar VoIPStreamTest.server.eth[0].mac rxPkOk:vector(packetBytes):sumweights 1
scalar VoIPStreamTest.server.eth[0].mac rxPkOk:vector(packetBytes):mean 64
scalar VoIPStreamTest.server.eth[0].mac rxPkOk:vector(packetBytes):stddev nan
scalar VoIPStreamTest.server.eth[0].mac rxPkOk:vector(packetBytes):min 64
scalar VoIPStreamTest.server.eth[0].mac rxPkOk:vector(packetBytes):max 64
scalar VoIPStreamTest.server.eth[0].mac rxPkOk:vector(packetBytes):starttime 0.02021152
scalar VoIPStreamTest.server.eth[0].mac rxPkOk:vector(packetBytes):endtime 0.02021152
scalar VoIPStreamTest.server.eth[0].mac passedUpPk:vector(packetBytes):count 1
scalar VoIPStreamTest.server.eth[0].mac passedUpPk:vector(packetBytes):sum 64
scalar VoIPStreamTest.server.eth[0].mac passedUpPk:vector(packetBytes):sumweights 1
scalar VoIPStreamTest.server.eth[0].mac passedUpPk:vector(packetBytes):mean 64
scalar VoIPStreamTest.server.eth[0].mac passedUpPk:vector(packetBytes):stddev nan
scalar VoIPStreamTest.server.eth[0].mac passedUpPk:vector(packetBytes):min 64
scalar VoIPStreamTest.server.eth[0].mac passedUpPk:vector(packetBytes):max 64
scalar VoIPStreamTest.server.eth[0].mac passedUpPk:vector(packetBytes):starttime 0.02021152
scalar VoIPStreamTest.server.eth[0].mac passedUpPk:vector(packetBytes):endtime 0.02021152
scalar VoIPStreamTest.server.eth[0].mac txPausePkUnits:vector:count 0
scalar VoIPStreamTest.server.eth[0].mac txPausePkUnits:vector:sum 0
scalar VoIPStreamTest.server.eth[0].mac txPausePkUnits:vector:sumweights 0
scalar VoIPStreamTest.server.eth[0].mac txPausePkUnits:vector:mean -nan
scalar VoIPStreamTest.server.eth[0].mac txPausePkUnits:vector:stddev nan
scalar VoIPStreamTest.server.eth[0].mac txPausePkUnits:vector:min inf
scalar VoIPStreamTest.server.eth[0].mac txPausePkUnits:vector:max -inf
scalar VoIPStreamTest.server.eth[0].mac txPausePkUnits:vector:starttime nan
scalar VoIPStreamTest.server.eth[0].mac txPausePkUnits:vector:endtime nan
scalar VoIPStreamTest.server.eth[0].mac rxPausePkUnits:vector:count 0
scalar VoIPStreamTest.server.eth[0].mac rxPausePkUnits:vector:sum 0
scalar VoIPStreamTest.server.eth[0].mac rxPausePkUnits:vector:sumweights 0
scalar VoIPStreamTest.server.eth[0].mac rxPausePkUnits:vector:mean -nan
scalar VoIPStreamTest.server.eth[0].mac rxPausePkUnits:vector:stddev nan
scalar VoIPStreamTest.server.eth[0].mac rxPausePkUnits:vector:min inf
scalar VoIPStreamTest.server.eth[0].mac rxPausePkUnits:vector:max -inf
scalar VoIPStreamTest.server.eth[0].mac rxPausePkUnits:vector:starttime nan
scalar VoIPStreamTest.server.eth[0].mac rxPausePkUnits:vector:endtime nan
scalar VoIPStreamTest.server.eth[0].mac packetReceivedFromUpper:vector(packetBytes):count 2309
scalar VoIPStreamTest.server.eth[0].mac packetReceivedFromUpper:vector(packetBytes):sum 401019
scalar VoIPStreamTest.server.eth[0].mac packetReceivedFromUpper:vector(packetBytes):sumweights 2309
scalar VoIPStreamTest.server.eth[0].mac packetReceivedFromUpper:vector(packetBytes):mean 173.67648332612
scalar VoIPStreamTest.server.eth[0].mac packetReceivedFromUpper:vector(packetBytes):stddev 5.7573452837252
scalar VoIPStreamTest.server.eth[0].mac packetReceivedFromUpper:vector(packetBytes):min 46
scalar VoIPStreamTest.server.eth[0].mac packetReceivedFromUpper:vector(packetBytes):max 174
scalar VoIPStreamTest.server.eth[0].mac packetReceivedFromUpper:vector(packetBytes):starttime 0.02
scalar VoIPStreamTest.server.eth[0].mac packetReceivedFromUpper:vector(packetBytes):endtime 46.16
scalar VoIPStreamTest.server.eth[0].mac packetDropIncorrectlyReceived:vector(packetBytes):count 0
scalar VoIPStreamTest.server.eth[0].mac packetDropIncorrectlyReceived:vector(packetBytes):sum 0
scalar VoIPStreamTest.server.eth[0].mac packetDropIncorrectlyReceived:vector(packetBytes):sumweights 0
scalar VoIPStreamTest.server.eth[0].mac packetDropIncorrectlyReceived:vector(packetBytes):mean -nan
scalar VoIPStreamTest.server.eth[0].mac packetDropIncorrectlyReceived:vector(packetBytes):stddev nan
scalar VoIPStreamTest.server.eth[0].mac packetDropIncorrectlyReceived:vector(packetBytes):min inf
scalar VoIPStreamTest.server.eth[0].mac packetDropIncorrectlyReceived:vector(packetBytes):max -inf
scalar VoIPStreamTest.server.eth[0].mac packetDropIncorrectlyReceived:vector(packetBytes):starttime nan
scalar VoIPStreamTest.server.eth[0].mac packetDropIncorrectlyReceived:vector(packetBytes):endtime nan
scalar VoIPStreamTest.server.eth[0].mac packetDropInterfaceDown:vector(packetBytes):count 0
scalar VoIPStreamTest.server.eth[0].mac packetDropInterfaceDown:vector(packetBytes):sum 0
scalar VoIPStreamTest.server.eth[0].mac packetDropInterfaceDown:vector(packetBytes):sumweights 0
scalar VoIPStreamTest.server.eth[0].mac packetDropInterfaceDown:vector(packetBytes):mean -nan
scalar VoIPStreamTest.server.eth[0].mac packetDropInterfaceDown:vector(packetBytes):stddev nan
scalar VoIPStreamTest.server.eth[0].mac packetDropInterfaceDown:vector(packetBytes):min inf
scalar VoIPStreamTest.server.eth[0].mac packetDropInterfaceDown:vector(packetBytes):max -inf
scalar VoIPStreamTest.server.eth[0].mac packetDropInterfaceDown:vector(packetBytes):starttime nan
scalar VoIPStreamTest.server.eth[0].mac packetDropInterfaceDown:vector(packetBytes):endtime nan
scalar VoIPStreamTest.server.eth[0].mac packetDropNotAddressedToUs:vector(packetBytes):count 0
scalar VoIPStreamTest.server.eth[0].mac packetDropNotAddressedToUs:vector(packetBytes):sum 0
scalar VoIPStreamTest.server.eth[0].mac packetDropNotAddressedToUs:vector(packetBytes):sumweights 0
scalar VoIPStreamTest.server.eth[0].mac packetDropNotAddressedToUs:vector(packetBytes):mean -nan
scalar VoIPStreamTest.server.eth[0].mac packetDropNotAddressedToUs:vector(packetBytes):stddev nan
scalar VoIPStreamTest.server.eth[0].mac packetDropNotAddressedToUs:vector(packetBytes):min inf
scalar VoIPStreamTest.server.eth[0].mac packetDropNotAddressedToUs:vector(packetBytes):max -inf
scalar VoIPStreamTest.server.eth[0].mac packetDropNotAddressedToUs:vector(packetBytes):starttime nan
scalar VoIPStreamTest.server.eth[0].mac packetDropNotAddressedToUs:vector(packetBytes):endtime nan
scalar VoIPStreamTest.server.eth[0] packetDropInterfaceDown:vector(packetBytes):count 0
scalar VoIPStreamTest.server.eth[0] packetDropInterfaceDown:vector(packetBytes):sum 0
scalar VoIPStreamTest.server.eth[0] packetDropInterfaceDown:vector(packetBytes):sumweights 0
scalar VoIPStreamTest.server.eth[0] packetDropInterfaceDown:vector(packetBytes):mean -nan
scalar VoIPStreamTest.server.eth[0] packetDropInterfaceDown:vector(packetBytes):stddev nan
scalar VoIPStreamTest.server.eth[0] packetDropInterfaceDown:vector(packetBytes):min inf
scalar VoIPStreamTest.server.eth[0] packetDropInterfaceDown:vector(packetBytes):max -inf
scalar VoIPStreamTest.server.eth[0] packetDropInterfaceDown:vector(packetBytes):starttime nan
scalar VoIPStreamTest.server.eth[0] packetDropInterfaceDown:vector(packetBytes):endtime nan
scalar VoIPStreamTest.server.eth[0] packetDropNoCarrier:vector(packetBytes):count 0
scalar VoIPStreamTest.server.eth[0] packetDropNoCarrier:vector(packetBytes):sum 0
scalar VoIPStreamTest.server.eth[0] packetDropNoCarrier:vector(packetBytes):sumweights 0
scalar VoIPStreamTest.server.eth[0] packetDropNoCarrier:vector(packetBytes):mean -nan
scalar VoIPStreamTest.server.eth[0] packetDropNoCarrier:vector(packetBytes):stddev nan
scalar VoIPStreamTest.server.eth[0] packetDropNoCarrier:vector(packetBytes):min inf
scalar VoIPStreamTest.server.eth[0] packetDropNoCarrier:vector(packetBytes):max -inf
scalar VoIPStreamTest.server.eth[0] packetDropNoCarrier:vector(packetBytes):starttime nan
scalar VoIPStreamTest.server.eth[0] packetDropNoCarrier:vector(packetBytes):endtime nan
scalar VoIPStreamTest.server.ipv4.ip packetDropAddressResolutionFailed:vector(packetBytes):count 0
scalar VoIPStreamTest.server.ipv4.ip packetDropAddressResolutionFailed:vector(packetBytes):sum 0
scalar VoIPStreamTest.server.ipv4.ip packetDropAddressResolutionFailed:vector(packetBytes):sumweights 0
scalar VoIPStreamTest.server.ipv4.ip packetDropAddressResolutionFailed:vector(packetBytes):mean -nan
scalar VoIPStreamTest.server.ipv4.ip packetDropAddressResolutionFailed:vector(packetBytes):stddev nan
scalar VoIPStreamTest.server.ipv4.ip packetDropAddressResolutionFailed:vector(packetBytes):min inf
scalar VoIPStreamTest.server.ipv4.ip packetDropAddressResolutionFailed:vector(packetBytes):max -inf
scalar VoIPStreamTest.server.ipv4.ip packetDropAddressResolutionFailed:vector(packetBytes):starttime nan
scalar VoIPStreamTest.server.ipv4.ip packetDropAddressResolutionFailed:vector(packetBytes):endtime nan
scalar VoIPStreamTest.server.ipv4.ip packetDropHopLimitReached:vector(packetBytes):count 0
scalar VoIPStreamTest.server.ipv4.ip packetDropHopLimitReached:vector(packetBytes):sum 0
scalar VoIPStreamTest.server.ipv4.ip packetDropHopLimitReached:vector(packetBytes):sumweights 0
scalar VoIPStreamTest.server.ipv4.ip packetDropHopLimitReached:vector(packetBytes):mean -nan
scalar VoIPStreamTest.server.ipv4.ip packetDropHopLimitReached:vector(packetBytes):stddev nan
scalar VoIPStreamTest.server.ipv4.ip packetDropHopLimitReached:vector(packetBytes):min inf
scalar VoIPStreamTest.server.ipv4.ip packetDropHopLimitReached:vector(packetBytes):max -inf
scalar VoIPStreamTest.server.ipv4.ip packetDropHopLimitReached:vector(packetBytes):starttime nan
scalar VoIPStreamTest.server.ipv4.ip packetDropHopLimitReached:vector(packetBytes):endtime nan
scalar VoIPStreamTest.server.ipv4.ip packetDropForwardingDisabled:vector(packetBytes):count 0
scalar VoIPStreamTest.server.ipv4.ip packetDropForwardingDisabled:vector(packetBytes):sum 0
scalar VoIPStreamTest.server.ipv4.ip packetDropForwardingDisabled:vector(packetBytes):sumweights 0
scalar VoIPStreamTest.server.ipv4.ip packetDropForwardingDisabled:vector(packetBytes):mean -nan
scalar VoIPStreamTest.server.ipv4.ip packetDropForwardingDisabled:vector(packetBytes):stddev nan
scalar VoIPStreamTest.server.ipv4.ip packetDropForwardingDisabled:vector(packetBytes):min inf
scalar VoIPStreamTest.server.ipv4.ip packetDropForwardingDisabled:vector(packetBytes):max -inf
scalar VoIPStreamTest.server.ipv4.ip packetDropForwardingDisabled:vector(packetBytes):starttime nan
scalar VoIPStreamTest.server.ipv4.ip packetDropForwardingDisabled:vector(packetBytes):endtime nan
scalar VoIPStreamTest.server.ipv4.ip packetDropLifetimeExpired:vector(packetBytes):count 0
scalar VoIPStreamTest.server.ipv4.ip packetDropLifetimeExpired:vector(packetBytes):sum 0
scalar VoIPStreamTest.server.ipv4.ip packetDropLifetimeExpired:vector(packetBytes):sumweights 0
scalar VoIPStreamTest.server.ipv4.ip packetDropLifetimeExpired:vector(packetBytes):mean -nan
scalar VoIPStreamTest.server.ipv4.ip packetDropLifetimeExpired:vector(packetBytes):stddev nan
scalar VoIPStreamTest.server.ipv4.ip packetDropLifetimeExpired:vector(packetBytes):min inf
scalar VoIPStreamTest.server.ipv4.ip packetDropLifetimeExpired:vector(packetBytes):max -inf
scalar VoIPStreamTest.server.ipv4.ip packetDropLifetimeExpired:vector(packetBytes):starttime nan
scalar VoIPStreamTest.server.ipv4.ip packetDropLifetimeExpired:vector(packetBytes):endtime nan
scalar VoIPStreamTest.server.ipv4.ip packetDropNoInterfaceFound:vector(packetBytes):count 0
scalar VoIPStreamTest.server.ipv4.ip packetDropNoInterfaceFound:vector(packetBytes):sum 0
scalar VoIPStreamTest.server.ipv4.ip packetDropNoInterfaceFound:vector(packetBytes):sumweights 0
scalar VoIPStreamTest.server.ipv4.ip packetDropNoInterfaceFound:vector(packetBytes):mean -nan
scalar VoIPStreamTest.server.ipv4.ip packetDropNoInterfaceFound:vector(packetBytes):stddev nan
scalar VoIPStreamTest.server.ipv4.ip packetDropNoInterfaceFound:vector(packetBytes):min inf
scalar VoIPStreamTest.server.ipv4.ip packetDropNoInterfaceFound:vector(packetBytes):max -inf
scalar VoIPStreamTest.server.ipv4.ip packetDropNoInterfaceFound:vector(packetBytes):starttime nan
scalar VoIPStreamTest.server.ipv4.ip packetDropNoInterfaceFound:vector(packetBytes):endtime nan
scalar VoIPStreamTest.server.ipv4.ip packetDropNoRouteFound:vector(packetBytes):count 0
scalar VoIPStreamTest.server.ipv4.ip packetDropNoRouteFound:vector(packetBytes):sum 0
scalar VoIPStreamTest.server.ipv4.ip packetDropNoRouteFound:vector(packetBytes):sumweights 0
scalar VoIPStreamTest.server.ipv4.ip packetDropNoRouteFound:vector(packetBytes):mean -nan
scalar VoIPStreamTest.server.ipv4.ip packetDropNoRouteFound:vector(packetBytes):stddev nan
scalar VoIPStreamTest.server.ipv4.ip packetDropNoRouteFound:vector(packetBytes):min inf
scalar VoIPStreamTest.server.ipv4.ip packetDropNoRouteFound:vector(packetBytes):max -inf
scalar VoIPStreamTest.server.ipv4.ip packetDropNoRouteFound:vector(packetBytes):starttime nan
scalar VoIPStreamTest.server.ipv4.ip packetDropNoRouteFound:vector(packetBytes):endtime nan
scalar VoIPStreamTest.server.ipv4.ip packetDropUndefined:vector(packetBytes):count 0
scalar VoIPStreamTest.server.ipv4.ip packetDropUndefined:vector(packetBytes):sum 0
scalar VoIPStreamTest.server.ipv4.ip packetDropUndefined:vector(packetBytes):sumweights 0
scalar VoIPStreamTest.server.ipv4.ip packetDropUndefined:vector(packetBytes):mean -nan
scalar VoIPStreamTest.server.ipv4.ip packetDropUndefined:vector(packetBytes):stddev nan
scalar VoIPStreamTest.server.ipv4.ip packetDropUndefined:vector(packetBytes):min inf
scalar VoIPStreamTest.server.ipv4.ip packetDropUndefined:vector(packetBytes):max -inf
scalar VoIPStreamTest.server.ipv4.ip packetDropUndefined:vector(packetBytes):starttime nan
scalar VoIPStreamTest.server.ipv4.ip packetDropUndefined:vector(packetBytes):endtime nan
scalar VoIPStreamTest.server.ipv4.arp arpRequestSent:vector(packetBytes):count 1
scalar VoIPStreamTest.server.ipv4.arp arpRequestSent:vector(packetBytes):sum 28
scalar VoIPStreamTest.server.ipv4.arp arpRequestSent:vector(packetBytes):sumweights 1
scalar VoIPStreamTest.server.ipv4.arp arpRequestSent:vector(packetBytes):mean 28
scalar VoIPStreamTest.server.ipv4.arp arpRequestSent:vector(packetBytes):stddev nan
scalar VoIPStreamTest.server.ipv4.arp arpRequestSent:vector(packetBytes):min 28
scalar VoIPStreamTest.server.ipv4.arp arpRequestSent:vector(packetBytes):max 28
scalar VoIPStreamTest.server.ipv4.arp arpRequestSent:vector(packetBytes):starttime 0.02
scalar VoIPStreamTest.server.ipv4.arp arpRequestSent:vector(packetBytes):endtime 0.02
scalar VoIPStreamTest.server.ipv4.arp arpReplySent:vector(packetBytes):count 0
scalar VoIPStreamTest.server.ipv4.arp arpReplySent:vector(packetBytes):sum 0
scalar VoIPStreamTest.server.ipv4.arp arpReplySent:vector(packetBytes):sumweights 0
scalar VoIPStreamTest.server.ipv4.arp arpReplySent:vector(packetBytes):mean -nan
scalar VoIPStreamTest.server.ipv4.arp arpReplySent:vector(packetBytes):stddev nan
scalar VoIPStreamTest.server.ipv4.arp arpReplySent:vector(packetBytes):min inf
scalar VoIPStreamTest.server.ipv4.arp arpReplySent:vector(packetBytes):max -inf
scalar VoIPStreamTest.server.ipv4.arp arpReplySent:vector(packetBytes):starttime nan
scalar VoIPStreamTest.server.ipv4.arp arpReplySent:vector(packetBytes):endtime nan
scalar VoIPStreamTest.server.udp packetSent:vector(packetBytes):count 2308
scalar VoIPStreamTest.server.udp packetSent:vector(packetBytes):sum 313269
scalar VoIPStreamTest.server.udp packetSent:vector(packetBytes):sumweights 2308
scalar VoIPStreamTest.server.udp packetSent:vector(packetBytes):mean 135.73180242634
scalar VoIPStreamTest.server.udp packetSent:vector(packetBytes):stddev 5.1080643594818
scalar VoIPStreamTest.server.udp packetSent:vector(packetBytes):min 36
scalar VoIPStreamTest.server.udp packetSent:vector(packetBytes):max 136
scalar VoIPStreamTest.server.udp packetSent:vector(packetBytes):starttime 0.02
scalar VoIPStreamTest.server.udp packetSent:vector(packetBytes):endtime 46.16
scalar VoIPStreamTest.server.udp packetReceived:vector(packetBytes):count 0
scalar VoIPStreamTest.server.udp packetReceived:vector(packetBytes):sum 0
scalar VoIPStreamTest.server.udp packetReceived:vector(packetBytes):sumweights 0
scalar VoIPStreamTest.server.udp packetReceived:vector(packetBytes):mean -nan
scalar VoIPStreamTest.server.udp packetReceived:vector(packetBytes):stddev nan
scalar VoIPStreamTest.server.udp packetReceived:vector(packetBytes):min inf
scalar VoIPStreamTest.server.udp packetReceived:vector(packetBytes):max -inf
scalar VoIPStreamTest.server.udp packetReceived:vector(packetBytes):starttime nan
scalar VoIPStreamTest.server.udp packetReceived:vector(packetBytes):endtime nan
scalar VoIPStreamTest.server.udp passedUpPk:vector(count):count 1
scalar VoIPStreamTest.server.udp passedUpPk:vector(count):sum 0
scalar VoIPStreamTest.server.udp passedUpPk:vector(count):sumweights 1
scalar VoIPStreamTest.server.udp passedUpPk:vector(count):mean 0
scalar VoIPStreamTest.server.udp passedUpPk:vector(count):stddev nan
scalar VoIPStreamTest.server.udp passedUpPk:vector(count):min 0
scalar VoIPStreamTest.server.udp passedUpPk:vector(count):max 0
scalar VoIPStreamTest.server.udp passedUpPk:vector(count):starttime 0
scalar VoIPStreamTest.server.udp passedUpPk:vector(count):endtime 0
scalar VoIPStreamTest.server.udp droppedPkWrongPort:vector(count):count 1
scalar VoIPStreamTest.server.udp droppedPkWrongPort:vector(count):sum 0
scalar VoIPStreamTest.server.udp droppedPkWrongPort:vector(count):sumweights 1
scalar VoIPStreamTest.server.udp droppedPkWrongPort:vector(count):mean 0
scalar VoIPStreamTest.server.udp droppedPkWrongPort:vector(count):stddev nan
scalar VoIPStreamTest.server.udp droppedPkWrongPort:vector(count):min 0
scalar VoIPStreamTest.server.udp droppedPkWrongPort:vector(count):max 0
scalar VoIPStreamTest.server.udp droppedPkWrongPort:vector(count):starttime 0
scalar VoIPStreamTest.server.udp droppedPkWrongPort:vector(count):endtime 0
scalar VoIPStreamTest.server.udp droppedPkBadChecksum:vector(count):count 1
scalar VoIPStreamTest.server.udp droppedPkBadChecksum:vector(count):sum 0
scalar VoIPStreamTest.server.udp droppedPkBadChecksum:vector(count):sumweights 1
scalar VoIPStreamTest.server.udp droppedPkBadChecksum:vector(count):mean 0
scalar VoIPStreamTest.server.udp droppedPkBadChecksum:vector(count):stddev nan
scalar VoIPStreamTest.server.udp droppedPkBadChecksum:vector(count):min 0
scalar VoIPStreamTest.server.udp droppedPkBadChecksum:vector(count):max 0
scalar VoIPStreamTest.server.udp droppedPkBadChecksum:vector(count):starttime 0
scalar VoIPStreamTest.server.udp droppedPkBadChecksum:vector(count):endtime 0
scalar VoIPStreamTest.server.app[0] packetSent:vector(packetBytes):count 2308
scalar VoIPStreamTest.server.app[0] packetSent:vector(packetBytes):sum 294805
scalar VoIPStreamTest.server.app[0] packetSent:vector(packetBytes):sumweights 2308
scalar VoIPStreamTest.server.app[0] packetSent:vector(packetBytes):mean 127.73180242634
scalar VoIPStreamTest.server.app[0] packetSent:vector(packetBytes):stddev 5.1080643594818
scalar VoIPStreamTest.server.app[0] packetSent:vector(packetBytes):min 28
scalar VoIPStreamTest.server.app[0] packetSent:vector(packetBytes):max 128
scalar VoIPStreamTest.server.app[0] packetSent:vector(packetBytes):starttime 0.02
scalar VoIPStreamTest.server.app[0] packetSent:vector(packetBytes):endtime 46.16

