version 3
run General-0-20251118-11:54:57-112657
attr configname General
attr datetime 20251118-11:54:57
attr datetimef 20251118-115457
attr experiment General
attr inifile omnetpp.ini
attr iterationvars ""
attr iterationvarsd ""
attr iterationvarsf ""
attr measurement ""
attr network HandoverNetwork
attr processid 112657
attr repetition 0
attr replication #0
attr resultdir results
attr runnumber 0
attr seedset 0
config **.param-recording false
config image-path /home/zoli/Projects/OMNET/inet/images
config output-scalar-file results/omnetpp.ini-General-#0.sca
config output-scalar-precision 17
config output-vector-file results/omnetpp.ini-General-#0.vec
config output-vector-precision 17
config record-eventlog false
config sim-time-limit 1500s
config sim-time-limit 1500s
config network HandoverNetwork
config **.constraintAreaMinX 0m
config **.constraintAreaMinY 0m
config **.constraintAreaMinZ 0m
config **.constraintAreaMaxX 600m
config **.constraintAreaMaxY 400m
config **.constraintAreaMaxZ 0m
config **.mgmt.numChannels 5
config **.ap1.wlan[*].address "\"10:00:00:00:00:00\""
config **.ap2.wlan[*].address "\"20:00:00:00:00:00\""
config **.ap1.wlan[*].mgmt.ssid "\"AP1\""
config **.ap2.wlan[*].mgmt.ssid "\"AP2\""
config **.ap*.wlan[*].mgmt.beaconInterval 100ms
config **.wlan[*].mgmt.numAuthSteps 4
config **.mobility.initFromDisplayString true
config **.host*.mobility.typename LinearMobility
config **.host*.mobility.speed 10mps
config **.host*.mobility.initialMovementHeading 0deg
config **.host*.mobility.updateInterval 100ms
config **.analogModel.ignorePartialInterference true
config **.ap1.wlan[*].radio.channelNumber 2
config **.ap2.wlan[*].radio.channelNumber 3
config **.host.wlan[*].radio.channelNumber 0
config **.wlan*.bitrate 2Mbps
config **.wlan[*].agent.activeScan true
config **.wlan[*].agent.defaultSsid "\"\""
config **.wlan[*].agent.channelsToScan "\"\""
config **.wlan[*].agent.probeDelay 0.1s
config **.wlan[*].agent.minChannelTime 0.15s
config **.wlan[*].agent.maxChannelTime 0.3s
config **.wlan[*].agent.authenticationTimeout 5s
config **.wlan[*].agent.associationTimeout 5s
config **.wlan[*].mac.dcf.channelAccess.cwMin 7
config **.radio.transmitter.power 2.0mW

scalar HandoverNetwork.radioMedium.propagation "Arrival computation count" 60988
scalar HandoverNetwork.radioMedium "transmission count" 30494
scalar HandoverNetwork.radioMedium "signal send count" 60988
scalar HandoverNetwork.radioMedium "reception computation count" 60988
scalar HandoverNetwork.radioMedium "interference computation count" 213401
scalar HandoverNetwork.radioMedium "reception decision computation count" 15053
scalar HandoverNetwork.radioMedium "listening decision computation count" 137360
scalar HandoverNetwork.radioMedium "reception cache hit" 78.904988049572651
scalar HandoverNetwork.radioMedium "interference cache hit" 66.666666666666671
scalar HandoverNetwork.radioMedium "noise cache hit" 0
scalar HandoverNetwork.radioMedium "snir cache hit" 50
scalar HandoverNetwork.radioMedium "reception decision cache hit" 50
scalar HandoverNetwork.radioMedium "reception result cache hit" 0
scalar HandoverNetwork.host.lo[0].lo rcvdPkFromHl:count 0
scalar HandoverNetwork.host.lo[0].lo rcvdPkFromHl:sum(packetBytes) 0
scalar HandoverNetwork.host.lo[0].lo passedUpPk:count 0
scalar HandoverNetwork.host.lo[0].lo passedUpPk:sum(packetBytes) 0
scalar HandoverNetwork.host.lo[0] packetDropInterfaceDown:count 0
scalar HandoverNetwork.host.lo[0] packetDropInterfaceDown:sum(packetBytes) 0
scalar HandoverNetwork.host.lo[0] packetDropNoCarrier:count 0
scalar HandoverNetwork.host.lo[0] packetDropNoCarrier:sum(packetBytes) 0
scalar HandoverNetwork.host.wlan[0].agent dropConfirm:count 0
scalar HandoverNetwork.host.wlan[0].agent acceptConfirm:count 78
scalar HandoverNetwork.host.wlan[0].agent sentRequest:count 78
scalar HandoverNetwork.host.wlan[0].mac.dcf.channelAccess.pendingQueue queueLength:last 0
scalar HandoverNetwork.host.wlan[0].mac.dcf.channelAccess.pendingQueue queueLength:max 1
scalar HandoverNetwork.host.wlan[0].mac.dcf.channelAccess.pendingQueue queueLength:timeavg 5.8719999999999999e-06
scalar HandoverNetwork.host.wlan[0].mac.dcf.channelAccess.pendingQueue queueBitLength:last 0
scalar HandoverNetwork.host.wlan[0].mac.dcf.channelAccess.pendingQueue queueBitLength:max 320
scalar HandoverNetwork.host.wlan[0].mac.dcf.channelAccess.pendingQueue queueBitLength:timeavg 0.0016471466666666658
scalar HandoverNetwork.host.wlan[0].mac.dcf.channelAccess.pendingQueue outgoingPackets:count 208
scalar HandoverNetwork.host.wlan[0].mac.dcf.channelAccess.pendingQueue outgoingPacketLengths:sum 63232
scalar HandoverNetwork.host.wlan[0].mac.dcf.channelAccess.pendingQueue incomingPackets:count 208
scalar HandoverNetwork.host.wlan[0].mac.dcf.channelAccess.pendingQueue incomingPacketLengths:sum 63232
scalar HandoverNetwork.host.wlan[0].mac.dcf.channelAccess.pendingQueue droppedPacketsQueueOverflow:count 0
scalar HandoverNetwork.host.wlan[0].mac.dcf.channelAccess.pendingQueue droppedPacketLengthsQueueOverflow:sum 0
scalar HandoverNetwork.host.wlan[0].mac.dcf.channelAccess.inProgressFrames queueLength:max 1
scalar HandoverNetwork.host.wlan[0].mac.dcf.channelAccess.inProgressFrames queueLength:timeavg 8.167040020666685e-06
scalar HandoverNetwork.host.wlan[0].mac.dcf.channelAccess.contention channelAccessGranted:count 208
scalar HandoverNetwork.host.wlan[0].mac.dcf.channelAccess.contention stateChanged:count 61250
scalar HandoverNetwork.host.wlan[0].mac.dcf.channelAccess channelOwnershipChanged:count 416
scalar HandoverNetwork.host.wlan[0].mac.dcf.originatorMacDataService packetAggregated:count 0
scalar HandoverNetwork.host.wlan[0].mac.dcf.originatorMacDataService packetFragmented:count 0
scalar HandoverNetwork.host.wlan[0].mac.dcf.recipientMacDataService packetDeaggregated:count 0
scalar HandoverNetwork.host.wlan[0].mac.dcf.recipientMacDataService packetDefragmented:count 14767
scalar HandoverNetwork.host.wlan[0].mac.dcf.recipientMacDataService packetDropDuplicateDetected:count 0
scalar HandoverNetwork.host.wlan[0].mac.dcf.recipientMacDataService packetDropDuplicateDetected:sum(packetBytes) 0
scalar HandoverNetwork.host.wlan[0].mac.dcf.recoveryProcedure retryLimitReached:count 0
scalar HandoverNetwork.host.wlan[0].mac.dcf frameSequenceFinished:count 208
scalar HandoverNetwork.host.wlan[0].mac.dcf packetReceivedFromPeer:count 14845
scalar HandoverNetwork.host.wlan[0].mac.dcf packetReceivedFromPeer:sum(packetBytes) 811899
scalar HandoverNetwork.host.wlan[0].mac.dcf packetReceivedFromPeerUnicast:count 182
scalar HandoverNetwork.host.wlan[0].mac.dcf packetReceivedFromPeerUnicast:sum(packetBytes) 5434
scalar HandoverNetwork.host.wlan[0].mac.dcf packetReceivedFromPeerMulticast:count 14663
scalar HandoverNetwork.host.wlan[0].mac.dcf packetReceivedFromPeerMulticast:sum(packetBytes) 806465
scalar HandoverNetwork.host.wlan[0].mac.dcf packetReceivedFromPeerBroadcast:count 14663
scalar HandoverNetwork.host.wlan[0].mac.dcf packetReceivedFromPeerBroadcast:sum(packetBytes) 806465
scalar HandoverNetwork.host.wlan[0].mac.dcf packetReceivedFromPeerWithRetry:count 0
scalar HandoverNetwork.host.wlan[0].mac.dcf packetReceivedFromPeerWithRetry:sum(packetBytes) 0
scalar HandoverNetwork.host.wlan[0].mac.dcf packetReceivedFromPeerWithoutRetry:count 14845
scalar HandoverNetwork.host.wlan[0].mac.dcf packetReceivedFromPeerWithoutRetry:sum(packetBytes) 811899
scalar HandoverNetwork.host.wlan[0].mac.dcf packetSentToPeer:count 312
scalar HandoverNetwork.host.wlan[0].mac.dcf packetSentToPeer:sum(packetBytes) 9360
scalar HandoverNetwork.host.wlan[0].mac.dcf packetSentToPeerUnicast:count 182
scalar HandoverNetwork.host.wlan[0].mac.dcf packetSentToPeerUnicast:sum(packetBytes) 4160
scalar HandoverNetwork.host.wlan[0].mac.dcf packetSentToPeerMulticast:count 130
scalar HandoverNetwork.host.wlan[0].mac.dcf packetSentToPeerMulticast:sum(packetBytes) 5200
scalar HandoverNetwork.host.wlan[0].mac.dcf packetSentToPeerBroadcast:count 130
scalar HandoverNetwork.host.wlan[0].mac.dcf packetSentToPeerBroadcast:sum(packetBytes) 5200
scalar HandoverNetwork.host.wlan[0].mac.dcf packetSentToPeerWithRetry:count 0
scalar HandoverNetwork.host.wlan[0].mac.dcf packetSentToPeerWithRetry:sum(packetBytes) 0
scalar HandoverNetwork.host.wlan[0].mac.dcf packetSentToPeerWithoutRetry:count 312
scalar HandoverNetwork.host.wlan[0].mac.dcf packetSentToPeerWithoutRetry:sum(packetBytes) 9360
scalar HandoverNetwork.host.wlan[0].mac.dcf packetDrop:count 0
scalar HandoverNetwork.host.wlan[0].mac.dcf packetDrop:sum(packetBytes) 0
scalar HandoverNetwork.host.wlan[0].mac.dcf packetDropNotAddressedToUs:count 0
scalar HandoverNetwork.host.wlan[0].mac.dcf packetDropNotAddressedToUs:sum(packetBytes) 0
scalar HandoverNetwork.host.wlan[0].mac.dcf packetDropQueueOverflow:count 0
scalar HandoverNetwork.host.wlan[0].mac.dcf packetDropQueueOverflow:sum(packetBytes) 0
scalar HandoverNetwork.host.wlan[0].mac.dcf packetDropRetryLimitReached:count 0
scalar HandoverNetwork.host.wlan[0].mac.dcf packetDropRetryLimitReached:sum(packetBytes) 0
scalar HandoverNetwork.host.wlan[0].mac.dcf linkBroken:count 0
scalar HandoverNetwork.host.wlan[0].mac packetReceivedFromLower:count 14845
scalar HandoverNetwork.host.wlan[0].mac packetReceivedFromLower:sum(packetBytes) 811899
scalar HandoverNetwork.host.wlan[0].mac packetSentToLower:count 312
scalar HandoverNetwork.host.wlan[0].mac packetSentToLower:sum(packetBytes) 9360
scalar HandoverNetwork.host.wlan[0].mac packetReceivedFromUpper:count 0
scalar HandoverNetwork.host.wlan[0].mac packetReceivedFromUpper:sum(packetBytes) 0
scalar HandoverNetwork.host.wlan[0].mac packetSentToUpper:count 0
scalar HandoverNetwork.host.wlan[0].mac packetSentToUpper:sum(packetBytes) 0
scalar HandoverNetwork.host.wlan[0].mac packetDrop:count 0
scalar HandoverNetwork.host.wlan[0].mac packetDrop:sum(packetBytes) 0
scalar HandoverNetwork.host.wlan[0].mac packetDropIncorrectlyReceived:count 0
scalar HandoverNetwork.host.wlan[0].mac packetDropIncorrectlyReceived:sum(packetBytes) 0
scalar HandoverNetwork.host.wlan[0].mac packetDropNotAddressedToUs:count 0
scalar HandoverNetwork.host.wlan[0].mac packetDropNotAddressedToUs:sum(packetBytes) 0
scalar HandoverNetwork.host.wlan[0].mac packetDropQueueOverflow:count 0
scalar HandoverNetwork.host.wlan[0].mac packetDropQueueOverflow:sum(packetBytes) 0
scalar HandoverNetwork.host.wlan[0].mac packetDropRetryLimitReached:count 0
scalar HandoverNetwork.host.wlan[0].mac packetDropRetryLimitReached:sum(packetBytes) 0
scalar HandoverNetwork.host.wlan[0].mac packetDropDuplicateDetected:count 0
scalar HandoverNetwork.host.wlan[0].mac packetDropDuplicateDetected:sum(packetBytes) 0
scalar HandoverNetwork.host.wlan[0].mac packetDropOther:count 0
scalar HandoverNetwork.host.wlan[0].mac packetDropOther:sum(packetBytes) 0
scalar HandoverNetwork.host.wlan[0].mac linkBroken:count 0
scalar HandoverNetwork.host.wlan[0].radio radioMode:count 627
scalar HandoverNetwork.host.wlan[0].radio receptionState:count 30365
scalar HandoverNetwork.host.wlan[0].radio transmissionState:count 1248
scalar HandoverNetwork.host.wlan[0] packetDropInterfaceDown:count 0
scalar HandoverNetwork.host.wlan[0] packetDropInterfaceDown:sum(packetBytes) 0
scalar HandoverNetwork.host.wlan[0] packetDropNoCarrier:count 0
scalar HandoverNetwork.host.wlan[0] packetDropNoCarrier:sum(packetBytes) 0
scalar HandoverNetwork.host.ipv4.ip packetDropAddressResolutionFailed:count 0
scalar HandoverNetwork.host.ipv4.ip packetDropAddressResolutionFailed:sum(packetBytes) 0
scalar HandoverNetwork.host.ipv4.ip packetDropHopLimitReached:count 0
scalar HandoverNetwork.host.ipv4.ip packetDropHopLimitReached:sum(packetBytes) 0
scalar HandoverNetwork.host.ipv4.ip packetDropForwardingDisabled:count 0
scalar HandoverNetwork.host.ipv4.ip packetDropForwardingDisabled:sum(packetBytes) 0
scalar HandoverNetwork.host.ipv4.ip packetDropLifetimeExpired:count 0
scalar HandoverNetwork.host.ipv4.ip packetDropLifetimeExpired:sum(packetBytes) 0
scalar HandoverNetwork.host.ipv4.ip packetDropNoInterfaceFound:count 0
scalar HandoverNetwork.host.ipv4.ip packetDropNoInterfaceFound:sum(packetBytes) 0
scalar HandoverNetwork.host.ipv4.ip packetDropNoRouteFound:count 0
scalar HandoverNetwork.host.ipv4.ip packetDropNoRouteFound:sum(packetBytes) 0
scalar HandoverNetwork.host.ipv4.ip packetDropUndefined:count 0
scalar HandoverNetwork.host.ipv4.ip packetDropUndefined:sum(packetBytes) 0
scalar HandoverNetwork.host.ipv4.arp arpResolutionFailed:count 0
scalar HandoverNetwork.host.ipv4.arp arpResolutionCompleted:count 0
scalar HandoverNetwork.host.ipv4.arp arpResolutionInitiated:count 0
scalar HandoverNetwork.host.ipv4.arp arpReplySent:count 0
scalar HandoverNetwork.host.ipv4.arp arpReplySent:sum(packetBytes) 0
scalar HandoverNetwork.host.ipv4.arp arpRequestSent:count 0
scalar HandoverNetwork.host.ipv4.arp arpRequestSent:sum(packetBytes) 0
scalar HandoverNetwork.host.udp packetReceived:count 0
scalar HandoverNetwork.host.udp packetReceived:sum(packetBytes) 0
scalar HandoverNetwork.host.udp packetSent:count 0
scalar HandoverNetwork.host.udp packetSent:sum(packetBytes) 0
scalar HandoverNetwork.host.udp passedUpPk:count 0
scalar HandoverNetwork.host.udp droppedPkWrongPort:count 0
scalar HandoverNetwork.host.udp droppedPkBadChecksum:count 0
scalar HandoverNetwork.ap1.wlan[0].mac.dcf.channelAccess.pendingQueue queueLength:last 0
scalar HandoverNetwork.ap1.wlan[0].mac.dcf.channelAccess.pendingQueue queueLength:max 1
scalar HandoverNetwork.ap1.wlan[0].mac.dcf.channelAccess.pendingQueue queueLength:timeavg 4.9439999999999996e-06
scalar HandoverNetwork.ap1.wlan[0].mac.dcf.channelAccess.pendingQueue queueBitLength:last 0
scalar HandoverNetwork.ap1.wlan[0].mac.dcf.channelAccess.pendingQueue queueBitLength:max 440
scalar HandoverNetwork.ap1.wlan[0].mac.dcf.channelAccess.pendingQueue queueBitLength:timeavg 0.0016465813333333328
scalar HandoverNetwork.ap1.wlan[0].mac.dcf.channelAccess.pendingQueue outgoingPackets:count 15052
scalar HandoverNetwork.ap1.wlan[0].mac.dcf.channelAccess.pendingQueue outgoingPacketLengths:sum 6617368
scalar HandoverNetwork.ap1.wlan[0].mac.dcf.channelAccess.pendingQueue incomingPackets:count 15052
scalar HandoverNetwork.ap1.wlan[0].mac.dcf.channelAccess.pendingQueue incomingPacketLengths:sum 6617368
scalar HandoverNetwork.ap1.wlan[0].mac.dcf.channelAccess.pendingQueue droppedPacketsQueueOverflow:count 0
scalar HandoverNetwork.ap1.wlan[0].mac.dcf.channelAccess.pendingQueue droppedPacketLengthsQueueOverflow:sum 0
scalar HandoverNetwork.ap1.wlan[0].mac.dcf.channelAccess.inProgressFrames queueLength:max 1
scalar HandoverNetwork.ap1.wlan[0].mac.dcf.channelAccess.inProgressFrames queueLength:timeavg 0.00046305237598592494
scalar HandoverNetwork.ap1.wlan[0].mac.dcf.channelAccess.contention channelAccessGranted:count 15052
scalar HandoverNetwork.ap1.wlan[0].mac.dcf.channelAccess.contention stateChanged:count 120782
scalar HandoverNetwork.ap1.wlan[0].mac.dcf.channelAccess channelOwnershipChanged:count 30104
scalar HandoverNetwork.ap1.wlan[0].mac.dcf.originatorMacDataService packetAggregated:count 0
scalar HandoverNetwork.ap1.wlan[0].mac.dcf.originatorMacDataService packetFragmented:count 0
scalar HandoverNetwork.ap1.wlan[0].mac.dcf.recipientMacDataService packetDeaggregated:count 0
scalar HandoverNetwork.ap1.wlan[0].mac.dcf.recipientMacDataService packetDefragmented:count 52
scalar HandoverNetwork.ap1.wlan[0].mac.dcf.recipientMacDataService packetDropDuplicateDetected:count 0
scalar HandoverNetwork.ap1.wlan[0].mac.dcf.recipientMacDataService packetDropDuplicateDetected:sum(packetBytes) 0
scalar HandoverNetwork.ap1.wlan[0].mac.dcf.recoveryProcedure retryLimitReached:count 0
scalar HandoverNetwork.ap1.wlan[0].mac.dcf frameSequenceFinished:count 15052
scalar HandoverNetwork.ap1.wlan[0].mac.dcf packetReceivedFromPeer:count 104
scalar HandoverNetwork.ap1.wlan[0].mac.dcf packetReceivedFromPeer:sum(packetBytes) 2600
scalar HandoverNetwork.ap1.wlan[0].mac.dcf packetReceivedFromPeerUnicast:count 91
scalar HandoverNetwork.ap1.wlan[0].mac.dcf packetReceivedFromPeerUnicast:sum(packetBytes) 2080
scalar HandoverNetwork.ap1.wlan[0].mac.dcf packetReceivedFromPeerMulticast:count 13
scalar HandoverNetwork.ap1.wlan[0].mac.dcf packetReceivedFromPeerMulticast:sum(packetBytes) 520
scalar HandoverNetwork.ap1.wlan[0].mac.dcf packetReceivedFromPeerBroadcast:count 13
scalar HandoverNetwork.ap1.wlan[0].mac.dcf packetReceivedFromPeerBroadcast:sum(packetBytes) 520
scalar HandoverNetwork.ap1.wlan[0].mac.dcf packetReceivedFromPeerWithRetry:count 0
scalar HandoverNetwork.ap1.wlan[0].mac.dcf packetReceivedFromPeerWithRetry:sum(packetBytes) 0
scalar HandoverNetwork.ap1.wlan[0].mac.dcf packetReceivedFromPeerWithoutRetry:count 104
scalar HandoverNetwork.ap1.wlan[0].mac.dcf packetReceivedFromPeerWithoutRetry:sum(packetBytes) 2600
scalar HandoverNetwork.ap1.wlan[0].mac.dcf packetSentToPeer:count 15091
scalar HandoverNetwork.ap1.wlan[0].mac.dcf packetSentToPeer:sum(packetBytes) 827717
scalar HandoverNetwork.ap1.wlan[0].mac.dcf packetSentToPeerUnicast:count 91
scalar HandoverNetwork.ap1.wlan[0].mac.dcf packetSentToPeerUnicast:sum(packetBytes) 2717
scalar HandoverNetwork.ap1.wlan[0].mac.dcf packetSentToPeerMulticast:count 15000
scalar HandoverNetwork.ap1.wlan[0].mac.dcf packetSentToPeerMulticast:sum(packetBytes) 825000
scalar HandoverNetwork.ap1.wlan[0].mac.dcf packetSentToPeerBroadcast:count 15000
scalar HandoverNetwork.ap1.wlan[0].mac.dcf packetSentToPeerBroadcast:sum(packetBytes) 825000
scalar HandoverNetwork.ap1.wlan[0].mac.dcf packetSentToPeerWithRetry:count 0
scalar HandoverNetwork.ap1.wlan[0].mac.dcf packetSentToPeerWithRetry:sum(packetBytes) 0
scalar HandoverNetwork.ap1.wlan[0].mac.dcf packetSentToPeerWithoutRetry:count 15091
scalar HandoverNetwork.ap1.wlan[0].mac.dcf packetSentToPeerWithoutRetry:sum(packetBytes) 827717
scalar HandoverNetwork.ap1.wlan[0].mac.dcf packetDrop:count 0
scalar HandoverNetwork.ap1.wlan[0].mac.dcf packetDrop:sum(packetBytes) 0
scalar HandoverNetwork.ap1.wlan[0].mac.dcf packetDropNotAddressedToUs:count 0
scalar HandoverNetwork.ap1.wlan[0].mac.dcf packetDropNotAddressedToUs:sum(packetBytes) 0
scalar HandoverNetwork.ap1.wlan[0].mac.dcf packetDropQueueOverflow:count 0
scalar HandoverNetwork.ap1.wlan[0].mac.dcf packetDropQueueOverflow:sum(packetBytes) 0
scalar HandoverNetwork.ap1.wlan[0].mac.dcf packetDropRetryLimitReached:count 0
scalar HandoverNetwork.ap1.wlan[0].mac.dcf packetDropRetryLimitReached:sum(packetBytes) 0
scalar HandoverNetwork.ap1.wlan[0].mac.dcf linkBroken:count 0
scalar HandoverNetwork.ap1.wlan[0].mac packetReceivedFromLower:count 104
scalar HandoverNetwork.ap1.wlan[0].mac packetReceivedFromLower:sum(packetBytes) 2600
scalar HandoverNetwork.ap1.wlan[0].mac packetSentToLower:count 15091
scalar HandoverNetwork.ap1.wlan[0].mac packetSentToLower:sum(packetBytes) 827717
scalar HandoverNetwork.ap1.wlan[0].mac packetReceivedFromUpper:count 0
scalar HandoverNetwork.ap1.wlan[0].mac packetReceivedFromUpper:sum(packetBytes) 0
scalar HandoverNetwork.ap1.wlan[0].mac packetSentToUpper:count 0
scalar HandoverNetwork.ap1.wlan[0].mac packetSentToUpper:sum(packetBytes) 0
scalar HandoverNetwork.ap1.wlan[0].mac packetDrop:count 0
scalar HandoverNetwork.ap1.wlan[0].mac packetDrop:sum(packetBytes) 0
scalar HandoverNetwork.ap1.wlan[0].mac packetDropIncorrectlyReceived:count 0
scalar HandoverNetwork.ap1.wlan[0].mac packetDropIncorrectlyReceived:sum(packetBytes) 0
scalar HandoverNetwork.ap1.wlan[0].mac packetDropNotAddressedToUs:count 0
scalar HandoverNetwork.ap1.wlan[0].mac packetDropNotAddressedToUs:sum(packetBytes) 0
scalar HandoverNetwork.ap1.wlan[0].mac packetDropQueueOverflow:count 0
scalar HandoverNetwork.ap1.wlan[0].mac packetDropQueueOverflow:sum(packetBytes) 0
scalar HandoverNetwork.ap1.wlan[0].mac packetDropRetryLimitReached:count 0
scalar HandoverNetwork.ap1.wlan[0].mac packetDropRetryLimitReached:sum(packetBytes) 0
scalar HandoverNetwork.ap1.wlan[0].mac packetDropDuplicateDetected:count 0
scalar HandoverNetwork.ap1.wlan[0].mac packetDropDuplicateDetected:sum(packetBytes) 0
scalar HandoverNetwork.ap1.wlan[0].mac packetDropOther:count 0
scalar HandoverNetwork.ap1.wlan[0].mac packetDropOther:sum(packetBytes) 0
scalar HandoverNetwork.ap1.wlan[0].mac linkBroken:count 0
scalar HandoverNetwork.ap1.wlan[0].radio radioMode:count 30185
scalar HandoverNetwork.ap1.wlan[0].radio receptionState:count 30391
scalar HandoverNetwork.ap1.wlan[0].radio transmissionState:count 60364
scalar HandoverNetwork.ap1.wlan[0] packetDropInterfaceDown:count 0
scalar HandoverNetwork.ap1.wlan[0] packetDropInterfaceDown:sum(packetBytes) 0
scalar HandoverNetwork.ap1.wlan[0] packetDropNoCarrier:count 0
scalar HandoverNetwork.ap1.wlan[0] packetDropNoCarrier:sum(packetBytes) 0
scalar HandoverNetwork.ap2.wlan[0].mac.dcf.channelAccess.pendingQueue queueLength:last 0
scalar HandoverNetwork.ap2.wlan[0].mac.dcf.channelAccess.pendingQueue queueLength:max 1
scalar HandoverNetwork.ap2.wlan[0].mac.dcf.channelAccess.pendingQueue queueLength:timeavg 5.183999999999999e-06
scalar HandoverNetwork.ap2.wlan[0].mac.dcf.channelAccess.pendingQueue queueBitLength:last 0
scalar HandoverNetwork.ap2.wlan[0].mac.dcf.channelAccess.pendingQueue queueBitLength:max 440
scalar HandoverNetwork.ap2.wlan[0].mac.dcf.channelAccess.pendingQueue queueBitLength:timeavg 0.0016669546666666663
scalar HandoverNetwork.ap2.wlan[0].mac.dcf.channelAccess.pendingQueue outgoingPackets:count 15052
scalar HandoverNetwork.ap2.wlan[0].mac.dcf.channelAccess.pendingQueue outgoingPacketLengths:sum 6617368
scalar HandoverNetwork.ap2.wlan[0].mac.dcf.channelAccess.pendingQueue incomingPackets:count 15052
scalar HandoverNetwork.ap2.wlan[0].mac.dcf.channelAccess.pendingQueue incomingPacketLengths:sum 6617368
scalar HandoverNetwork.ap2.wlan[0].mac.dcf.channelAccess.pendingQueue droppedPacketsQueueOverflow:count 0
scalar HandoverNetwork.ap2.wlan[0].mac.dcf.channelAccess.pendingQueue droppedPacketLengthsQueueOverflow:sum 0
scalar HandoverNetwork.ap2.wlan[0].mac.dcf.channelAccess.inProgressFrames queueLength:max 1
scalar HandoverNetwork.ap2.wlan[0].mac.dcf.channelAccess.inProgressFrames queueLength:timeavg 0.00046305370197125841
scalar HandoverNetwork.ap2.wlan[0].mac.dcf.channelAccess.contention channelAccessGranted:count 15052
scalar HandoverNetwork.ap2.wlan[0].mac.dcf.channelAccess.contention stateChanged:count 120782
scalar HandoverNetwork.ap2.wlan[0].mac.dcf.channelAccess channelOwnershipChanged:count 30104
scalar HandoverNetwork.ap2.wlan[0].mac.dcf.originatorMacDataService packetAggregated:count 0
scalar HandoverNetwork.ap2.wlan[0].mac.dcf.originatorMacDataService packetFragmented:count 0
scalar HandoverNetwork.ap2.wlan[0].mac.dcf.recipientMacDataService packetDeaggregated:count 0
scalar HandoverNetwork.ap2.wlan[0].mac.dcf.recipientMacDataService packetDefragmented:count 52
scalar HandoverNetwork.ap2.wlan[0].mac.dcf.recipientMacDataService packetDropDuplicateDetected:count 0
scalar HandoverNetwork.ap2.wlan[0].mac.dcf.recipientMacDataService packetDropDuplicateDetected:sum(packetBytes) 0
scalar HandoverNetwork.ap2.wlan[0].mac.dcf.recoveryProcedure retryLimitReached:count 0
scalar HandoverNetwork.ap2.wlan[0].mac.dcf frameSequenceFinished:count 15052
scalar HandoverNetwork.ap2.wlan[0].mac.dcf packetReceivedFromPeer:count 104
scalar HandoverNetwork.ap2.wlan[0].mac.dcf packetReceivedFromPeer:sum(packetBytes) 2600
scalar HandoverNetwork.ap2.wlan[0].mac.dcf packetReceivedFromPeerUnicast:count 91
scalar HandoverNetwork.ap2.wlan[0].mac.dcf packetReceivedFromPeerUnicast:sum(packetBytes) 2080
scalar HandoverNetwork.ap2.wlan[0].mac.dcf packetReceivedFromPeerMulticast:count 13
scalar HandoverNetwork.ap2.wlan[0].mac.dcf packetReceivedFromPeerMulticast:sum(packetBytes) 520
scalar HandoverNetwork.ap2.wlan[0].mac.dcf packetReceivedFromPeerBroadcast:count 13
scalar HandoverNetwork.ap2.wlan[0].mac.dcf packetReceivedFromPeerBroadcast:sum(packetBytes) 520
scalar HandoverNetwork.ap2.wlan[0].mac.dcf packetReceivedFromPeerWithRetry:count 0
scalar HandoverNetwork.ap2.wlan[0].mac.dcf packetReceivedFromPeerWithRetry:sum(packetBytes) 0
scalar HandoverNetwork.ap2.wlan[0].mac.dcf packetReceivedFromPeerWithoutRetry:count 104
scalar HandoverNetwork.ap2.wlan[0].mac.dcf packetReceivedFromPeerWithoutRetry:sum(packetBytes) 2600
scalar HandoverNetwork.ap2.wlan[0].mac.dcf packetSentToPeer:count 15091
scalar HandoverNetwork.ap2.wlan[0].mac.dcf packetSentToPeer:sum(packetBytes) 827717
scalar HandoverNetwork.ap2.wlan[0].mac.dcf packetSentToPeerUnicast:count 91
scalar HandoverNetwork.ap2.wlan[0].mac.dcf packetSentToPeerUnicast:sum(packetBytes) 2717
scalar HandoverNetwork.ap2.wlan[0].mac.dcf packetSentToPeerMulticast:count 15000
scalar HandoverNetwork.ap2.wlan[0].mac.dcf packetSentToPeerMulticast:sum(packetBytes) 825000
scalar HandoverNetwork.ap2.wlan[0].mac.dcf packetSentToPeerBroadcast:count 15000
scalar HandoverNetwork.ap2.wlan[0].mac.dcf packetSentToPeerBroadcast:sum(packetBytes) 825000
scalar HandoverNetwork.ap2.wlan[0].mac.dcf packetSentToPeerWithRetry:count 0
scalar HandoverNetwork.ap2.wlan[0].mac.dcf packetSentToPeerWithRetry:sum(packetBytes) 0
scalar HandoverNetwork.ap2.wlan[0].mac.dcf packetSentToPeerWithoutRetry:count 15091
scalar HandoverNetwork.ap2.wlan[0].mac.dcf packetSentToPeerWithoutRetry:sum(packetBytes) 827717
scalar HandoverNetwork.ap2.wlan[0].mac.dcf packetDrop:count 0
scalar HandoverNetwork.ap2.wlan[0].mac.dcf packetDrop:sum(packetBytes) 0
scalar HandoverNetwork.ap2.wlan[0].mac.dcf packetDropNotAddressedToUs:count 0
scalar HandoverNetwork.ap2.wlan[0].mac.dcf packetDropNotAddressedToUs:sum(packetBytes) 0
scalar HandoverNetwork.ap2.wlan[0].mac.dcf packetDropQueueOverflow:count 0
scalar HandoverNetwork.ap2.wlan[0].mac.dcf packetDropQueueOverflow:sum(packetBytes) 0
scalar HandoverNetwork.ap2.wlan[0].mac.dcf packetDropRetryLimitReached:count 0
scalar HandoverNetwork.ap2.wlan[0].mac.dcf packetDropRetryLimitReached:sum(packetBytes) 0
scalar HandoverNetwork.ap2.wlan[0].mac.dcf linkBroken:count 0
scalar HandoverNetwork.ap2.wlan[0].mac packetReceivedFromLower:count 104
scalar HandoverNetwork.ap2.wlan[0].mac packetReceivedFromLower:sum(packetBytes) 2600
scalar HandoverNetwork.ap2.wlan[0].mac packetSentToLower:count 15091
scalar HandoverNetwork.ap2.wlan[0].mac packetSentToLower:sum(packetBytes) 827717
scalar HandoverNetwork.ap2.wlan[0].mac packetReceivedFromUpper:count 0
scalar HandoverNetwork.ap2.wlan[0].mac packetReceivedFromUpper:sum(packetBytes) 0
scalar HandoverNetwork.ap2.wlan[0].mac packetSentToUpper:count 0
scalar HandoverNetwork.ap2.wlan[0].mac packetSentToUpper:sum(packetBytes) 0
scalar HandoverNetwork.ap2.wlan[0].mac packetDrop:count 0
scalar HandoverNetwork.ap2.wlan[0].mac packetDrop:sum(packetBytes) 0
scalar HandoverNetwork.ap2.wlan[0].mac packetDropIncorrectlyReceived:count 0
scalar HandoverNetwork.ap2.wlan[0].mac packetDropIncorrectlyReceived:sum(packetBytes) 0
scalar HandoverNetwork.ap2.wlan[0].mac packetDropNotAddressedToUs:count 0
scalar HandoverNetwork.ap2.wlan[0].mac packetDropNotAddressedToUs:sum(packetBytes) 0
scalar HandoverNetwork.ap2.wlan[0].mac packetDropQueueOverflow:count 0
scalar HandoverNetwork.ap2.wlan[0].mac packetDropQueueOverflow:sum(packetBytes) 0
scalar HandoverNetwork.ap2.wlan[0].mac packetDropRetryLimitReached:count 0
scalar HandoverNetwork.ap2.wlan[0].mac packetDropRetryLimitReached:sum(packetBytes) 0
scalar HandoverNetwork.ap2.wlan[0].mac packetDropDuplicateDetected:count 0
scalar HandoverNetwork.ap2.wlan[0].mac packetDropDuplicateDetected:sum(packetBytes) 0
scalar HandoverNetwork.ap2.wlan[0].mac packetDropOther:count 0
scalar HandoverNetwork.ap2.wlan[0].mac packetDropOther:sum(packetBytes) 0
scalar HandoverNetwork.ap2.wlan[0].mac linkBroken:count 0
scalar HandoverNetwork.ap2.wlan[0].radio radioMode:count 30185
scalar HandoverNetwork.ap2.wlan[0].radio receptionState:count 30391
scalar HandoverNetwork.ap2.wlan[0].radio transmissionState:count 60364
scalar HandoverNetwork.ap2.wlan[0] packetDropInterfaceDown:count 0
scalar HandoverNetwork.ap2.wlan[0] packetDropInterfaceDown:sum(packetBytes) 0
scalar HandoverNetwork.ap2.wlan[0] packetDropNoCarrier:count 0
scalar HandoverNetwork.ap2.wlan[0] packetDropNoCarrier:sum(packetBytes) 0
scalar HandoverNetwork.host.wlan[0].mac.dcf.channelAccess.pendingQueue queueingTime:histogram:count 208
scalar HandoverNetwork.host.wlan[0].mac.dcf.channelAccess.pendingQueue queueingTime:histogram:sumweights 208
scalar HandoverNetwork.host.wlan[0].mac.dcf.channelAccess.pendingQueue queueingTime:histogram:mean 4.2346153846153845e-05
scalar HandoverNetwork.host.wlan[0].mac.dcf.channelAccess.pendingQueue queueingTime:histogram:stddev 7.712988846926051e-05
scalar HandoverNetwork.host.wlan[0].mac.dcf.channelAccess.pendingQueue queueingTime:histogram:min 0
scalar HandoverNetwork.host.wlan[0].mac.dcf.channelAccess.pendingQueue queueingTime:histogram:max 0.000234
scalar HandoverNetwork.host.wlan[0].mac.dcf.channelAccess.pendingQueue queueingTime:histogram:numbins 59
scalar HandoverNetwork.host.wlan[0].mac.dcf.channelAccess.pendingQueue queueingTime:histogram:rangemin 0
scalar HandoverNetwork.host.wlan[0].mac.dcf.channelAccess.pendingQueue queueingTime:histogram:rangemax 0.00029500000000000007
scalar HandoverNetwork.host.wlan[0].mac.dcf.channelAccess.pendingQueue queueingTime:histogram:underflows 0
scalar HandoverNetwork.host.wlan[0].mac.dcf.channelAccess.pendingQueue queueingTime:histogram:overflows 0
scalar HandoverNetwork.host.wlan[0].mac.dcf.channelAccess.pendingQueue outgoingPacketLengths:histogram:count 208
scalar HandoverNetwork.host.wlan[0].mac.dcf.channelAccess.pendingQueue outgoingPacketLengths:histogram:sumweights 208
scalar HandoverNetwork.host.wlan[0].mac.dcf.channelAccess.pendingQueue outgoingPacketLengths:histogram:mean 304
scalar HandoverNetwork.host.wlan[0].mac.dcf.channelAccess.pendingQueue outgoingPacketLengths:histogram:stddev 21.217074520483013
scalar HandoverNetwork.host.wlan[0].mac.dcf.channelAccess.pendingQueue outgoingPacketLengths:histogram:min 272
scalar HandoverNetwork.host.wlan[0].mac.dcf.channelAccess.pendingQueue outgoingPacketLengths:histogram:max 320
scalar HandoverNetwork.host.wlan[0].mac.dcf.channelAccess.pendingQueue outgoingPacketLengths:histogram:numbins 72
scalar HandoverNetwork.host.wlan[0].mac.dcf.channelAccess.pendingQueue outgoingPacketLengths:histogram:rangemin 260
scalar HandoverNetwork.host.wlan[0].mac.dcf.channelAccess.pendingQueue outgoingPacketLengths:histogram:rangemax 332
scalar HandoverNetwork.host.wlan[0].mac.dcf.channelAccess.pendingQueue outgoingPacketLengths:histogram:underflows 0
scalar HandoverNetwork.host.wlan[0].mac.dcf.channelAccess.pendingQueue outgoingPacketLengths:histogram:overflows 0
scalar HandoverNetwork.host.wlan[0].mac.dcf.channelAccess.pendingQueue flowQueueingTime:histogram:count 0
scalar HandoverNetwork.host.wlan[0].mac.dcf.channelAccess.pendingQueue flowQueueingTime:histogram:sumweights 0
scalar HandoverNetwork.host.wlan[0].mac.dcf.channelAccess.pendingQueue flowQueueingTime:histogram:mean -nan
scalar HandoverNetwork.host.wlan[0].mac.dcf.channelAccess.pendingQueue flowQueueingTime:histogram:stddev nan
scalar HandoverNetwork.host.wlan[0].mac.dcf.channelAccess.pendingQueue flowQueueingTime:histogram:min nan
scalar HandoverNetwork.host.wlan[0].mac.dcf.channelAccess.pendingQueue flowQueueingTime:histogram:max nan
scalar HandoverNetwork.host.wlan[0].mac.dcf.channelAccess.pendingQueue flowQueueingTime:histogram:numbins 1
scalar HandoverNetwork.host.wlan[0].mac.dcf.channelAccess.pendingQueue flowQueueingTime:histogram:rangemin 0
scalar HandoverNetwork.host.wlan[0].mac.dcf.channelAccess.pendingQueue flowQueueingTime:histogram:rangemax 1
scalar HandoverNetwork.host.wlan[0].mac.dcf.channelAccess.pendingQueue flowQueueingTime:histogram:underflows 0
scalar HandoverNetwork.host.wlan[0].mac.dcf.channelAccess.pendingQueue flowQueueingTime:histogram:overflows 0
scalar HandoverNetwork.host.wlan[0].mac.dcf.channelAccess.pendingQueue incomingPacketLengths:histogram:count 208
scalar HandoverNetwork.host.wlan[0].mac.dcf.channelAccess.pendingQueue incomingPacketLengths:histogram:sumweights 208
scalar HandoverNetwork.host.wlan[0].mac.dcf.channelAccess.pendingQueue incomingPacketLengths:histogram:mean 304
scalar HandoverNetwork.host.wlan[0].mac.dcf.channelAccess.pendingQueue incomingPacketLengths:histogram:stddev 21.217074520483013
scalar HandoverNetwork.host.wlan[0].mac.dcf.channelAccess.pendingQueue incomingPacketLengths:histogram:min 272
scalar HandoverNetwork.host.wlan[0].mac.dcf.channelAccess.pendingQueue incomingPacketLengths:histogram:max 320
scalar HandoverNetwork.host.wlan[0].mac.dcf.channelAccess.pendingQueue incomingPacketLengths:histogram:numbins 72
scalar HandoverNetwork.host.wlan[0].mac.dcf.channelAccess.pendingQueue incomingPacketLengths:histogram:rangemin 260
scalar HandoverNetwork.host.wlan[0].mac.dcf.channelAccess.pendingQueue incomingPacketLengths:histogram:rangemax 332
scalar HandoverNetwork.host.wlan[0].mac.dcf.channelAccess.pendingQueue incomingPacketLengths:histogram:underflows 0
scalar HandoverNetwork.host.wlan[0].mac.dcf.channelAccess.pendingQueue incomingPacketLengths:histogram:overflows 0
scalar HandoverNetwork.host.wlan[0].mac.dcf.channelAccess.inProgressFrames queueingTime:histogram:count 208
scalar HandoverNetwork.host.wlan[0].mac.dcf.channelAccess.inProgressFrames queueingTime:histogram:sumweights 208
scalar HandoverNetwork.host.wlan[0].mac.dcf.channelAccess.inProgressFrames queueingTime:histogram:mean 5.889692322596167e-05
scalar HandoverNetwork.host.wlan[0].mac.dcf.channelAccess.inProgressFrames queueingTime:histogram:stddev 2.1866561131357492e-05
scalar HandoverNetwork.host.wlan[0].mac.dcf.channelAccess.inProgressFrames queueingTime:histogram:min 4.1999999999999998e-05
scalar HandoverNetwork.host.wlan[0].mac.dcf.channelAccess.inProgressFrames queueingTime:histogram:max 8.7080861999999998e-05
scalar HandoverNetwork.host.wlan[0].mac.dcf.channelAccess.inProgressFrames queueingTime:histogram:numbins 69
scalar HandoverNetwork.host.wlan[0].mac.dcf.channelAccess.inProgressFrames queueingTime:histogram:rangemin 3.0000000000000004e-05
scalar HandoverNetwork.host.wlan[0].mac.dcf.channelAccess.inProgressFrames queueingTime:histogram:rangemax 9.9000000000000021e-05
scalar HandoverNetwork.host.wlan[0].mac.dcf.channelAccess.inProgressFrames queueingTime:histogram:underflows 0
scalar HandoverNetwork.host.wlan[0].mac.dcf.channelAccess.inProgressFrames queueingTime:histogram:overflows 0
scalar HandoverNetwork.host.wlan[0].mac.dcf frameSequenceDuration:histogram:count 208
scalar HandoverNetwork.host.wlan[0].mac.dcf frameSequenceDuration:histogram:sumweights 208
scalar HandoverNetwork.host.wlan[0].mac.dcf frameSequenceDuration:histogram:mean 5.889692322596167e-05
scalar HandoverNetwork.host.wlan[0].mac.dcf frameSequenceDuration:histogram:stddev 2.1866561131357492e-05
scalar HandoverNetwork.host.wlan[0].mac.dcf frameSequenceDuration:histogram:min 4.1999999999999998e-05
scalar HandoverNetwork.host.wlan[0].mac.dcf frameSequenceDuration:histogram:max 8.7080861999999998e-05
scalar HandoverNetwork.host.wlan[0].mac.dcf frameSequenceDuration:histogram:numbins 69
scalar HandoverNetwork.host.wlan[0].mac.dcf frameSequenceDuration:histogram:rangemin 3.0000000000000004e-05
scalar HandoverNetwork.host.wlan[0].mac.dcf frameSequenceDuration:histogram:rangemax 9.9000000000000021e-05
scalar HandoverNetwork.host.wlan[0].mac.dcf frameSequenceDuration:histogram:underflows 0
scalar HandoverNetwork.host.wlan[0].mac.dcf frameSequenceDuration:histogram:overflows 0
scalar HandoverNetwork.host.wlan[0].mac.dcf frameSequenceNumPackets:histogram:count 208
scalar HandoverNetwork.host.wlan[0].mac.dcf frameSequenceNumPackets:histogram:sumweights 208
scalar HandoverNetwork.host.wlan[0].mac.dcf frameSequenceNumPackets:histogram:mean 1.375
scalar HandoverNetwork.host.wlan[0].mac.dcf frameSequenceNumPackets:histogram:stddev 0.48529088841313678
scalar HandoverNetwork.host.wlan[0].mac.dcf frameSequenceNumPackets:histogram:min 1
scalar HandoverNetwork.host.wlan[0].mac.dcf frameSequenceNumPackets:histogram:max 2
scalar HandoverNetwork.host.wlan[0].mac.dcf frameSequenceNumPackets:histogram:numbins 3
scalar HandoverNetwork.host.wlan[0].mac.dcf frameSequenceNumPackets:histogram:rangemin 0
scalar HandoverNetwork.host.wlan[0].mac.dcf frameSequenceNumPackets:histogram:rangemax 3
scalar HandoverNetwork.host.wlan[0].mac.dcf frameSequenceNumPackets:histogram:underflows 0
scalar HandoverNetwork.host.wlan[0].mac.dcf frameSequenceNumPackets:histogram:overflows 0
scalar HandoverNetwork.host.wlan[0].radio radioChannel:histogram:count 183
scalar HandoverNetwork.host.wlan[0].radio radioChannel:histogram:sumweights 183
scalar HandoverNetwork.host.wlan[0].radio radioChannel:histogram:mean 2.1311475409836067
scalar HandoverNetwork.host.wlan[0].radio radioChannel:histogram:stddev 1.2554331571923636
scalar HandoverNetwork.host.wlan[0].radio radioChannel:histogram:min 0
scalar HandoverNetwork.host.wlan[0].radio radioChannel:histogram:max 4
scalar HandoverNetwork.host.wlan[0].radio radioChannel:histogram:numbins 5
scalar HandoverNetwork.host.wlan[0].radio radioChannel:histogram:rangemin 0
scalar HandoverNetwork.host.wlan[0].radio radioChannel:histogram:rangemax 5
scalar HandoverNetwork.host.wlan[0].radio radioChannel:histogram:underflows 0
scalar HandoverNetwork.host.wlan[0].radio radioChannel:histogram:overflows 0
scalar HandoverNetwork.host.wlan[0].radio minSnir:histogram:count 14845
scalar HandoverNetwork.host.wlan[0].radio minSnir:histogram:sumweights 14845
scalar HandoverNetwork.host.wlan[0].radio minSnir:histogram:mean 2028.4470504369158
scalar HandoverNetwork.host.wlan[0].radio minSnir:histogram:stddev 1162.0386057819778
scalar HandoverNetwork.host.wlan[0].radio minSnir:histogram:min 317.95726040902838
scalar HandoverNetwork.host.wlan[0].radio minSnir:histogram:max 3960.0092682968752
scalar HandoverNetwork.host.wlan[0].radio minSnir:histogram:numbins 49
scalar HandoverNetwork.host.wlan[0].radio minSnir:histogram:rangemin 0
scalar HandoverNetwork.host.wlan[0].radio minSnir:histogram:rangemax 4900
scalar HandoverNetwork.host.wlan[0].radio minSnir:histogram:underflows 0
scalar HandoverNetwork.host.wlan[0].radio minSnir:histogram:overflows 0
scalar HandoverNetwork.host.wlan[0].radio packetErrorRate:histogram:count 14845
scalar HandoverNetwork.host.wlan[0].radio packetErrorRate:histogram:sumweights 14845
scalar HandoverNetwork.host.wlan[0].radio packetErrorRate:histogram:mean 0
scalar HandoverNetwork.host.wlan[0].radio packetErrorRate:histogram:stddev 0
scalar HandoverNetwork.host.wlan[0].radio packetErrorRate:histogram:min 0
scalar HandoverNetwork.host.wlan[0].radio packetErrorRate:histogram:max 0
scalar HandoverNetwork.host.wlan[0].radio packetErrorRate:histogram:numbins 50
scalar HandoverNetwork.host.wlan[0].radio packetErrorRate:histogram:rangemin -0.5
scalar HandoverNetwork.host.wlan[0].radio packetErrorRate:histogram:rangemax 0.5
scalar HandoverNetwork.host.wlan[0].radio packetErrorRate:histogram:underflows 0
scalar HandoverNetwork.host.wlan[0].radio packetErrorRate:histogram:overflows 0
scalar HandoverNetwork.host.wlan[0].radio bitErrorRate:histogram:count 0
scalar HandoverNetwork.host.wlan[0].radio bitErrorRate:histogram:sumweights 0
scalar HandoverNetwork.host.wlan[0].radio bitErrorRate:histogram:mean -nan
scalar HandoverNetwork.host.wlan[0].radio bitErrorRate:histogram:stddev nan
scalar HandoverNetwork.host.wlan[0].radio bitErrorRate:histogram:min nan
scalar HandoverNetwork.host.wlan[0].radio bitErrorRate:histogram:max nan
scalar HandoverNetwork.host.wlan[0].radio bitErrorRate:histogram:numbins 1
scalar HandoverNetwork.host.wlan[0].radio bitErrorRate:histogram:rangemin 0
scalar HandoverNetwork.host.wlan[0].radio bitErrorRate:histogram:rangemax 1
scalar HandoverNetwork.host.wlan[0].radio bitErrorRate:histogram:underflows 0
scalar HandoverNetwork.host.wlan[0].radio bitErrorRate:histogram:overflows 0
scalar HandoverNetwork.host.wlan[0].radio symbolErrorRate:histogram:count 0
scalar HandoverNetwork.host.wlan[0].radio symbolErrorRate:histogram:sumweights 0
scalar HandoverNetwork.host.wlan[0].radio symbolErrorRate:histogram:mean -nan
scalar HandoverNetwork.host.wlan[0].radio symbolErrorRate:histogram:stddev nan
scalar HandoverNetwork.host.wlan[0].radio symbolErrorRate:histogram:min nan
scalar HandoverNetwork.host.wlan[0].radio symbolErrorRate:histogram:max nan
scalar HandoverNetwork.host.wlan[0].radio symbolErrorRate:histogram:numbins 1
scalar HandoverNetwork.host.wlan[0].radio symbolErrorRate:histogram:rangemin 0
scalar HandoverNetwork.host.wlan[0].radio symbolErrorRate:histogram:rangemax 1
scalar HandoverNetwork.host.wlan[0].radio symbolErrorRate:histogram:underflows 0
scalar HandoverNetwork.host.wlan[0].radio symbolErrorRate:histogram:overflows 0
scalar HandoverNetwork.ap1.wlan[0].mac.dcf.channelAccess.pendingQueue queueingTime:histogram:count 15052
scalar HandoverNetwork.ap1.wlan[0].mac.dcf.channelAccess.pendingQueue queueingTime:histogram:sumweights 15052
scalar HandoverNetwork.ap1.wlan[0].mac.dcf.channelAccess.pendingQueue queueingTime:histogram:mean 4.9269200106298162e-07
scalar HandoverNetwork.ap1.wlan[0].mac.dcf.channelAccess.pendingQueue queueingTime:histogram:stddev 8.8562224064183904e-06
scalar HandoverNetwork.ap1.wlan[0].mac.dcf.channelAccess.pendingQueue queueingTime:histogram:min 0
scalar HandoverNetwork.ap1.wlan[0].mac.dcf.channelAccess.pendingQueue queueingTime:histogram:max 0.000234
scalar HandoverNetwork.ap1.wlan[0].mac.dcf.channelAccess.pendingQueue queueingTime:histogram:numbins 59
scalar HandoverNetwork.ap1.wlan[0].mac.dcf.channelAccess.pendingQueue queueingTime:histogram:rangemin 0
scalar HandoverNetwork.ap1.wlan[0].mac.dcf.channelAccess.pendingQueue queueingTime:histogram:rangemax 0.00023600000000000004
scalar HandoverNetwork.ap1.wlan[0].mac.dcf.channelAccess.pendingQueue queueingTime:histogram:underflows 0
scalar HandoverNetwork.ap1.wlan[0].mac.dcf.channelAccess.pendingQueue queueingTime:histogram:overflows 0
scalar HandoverNetwork.ap1.wlan[0].mac.dcf.channelAccess.pendingQueue outgoingPacketLengths:histogram:count 15052
scalar HandoverNetwork.ap1.wlan[0].mac.dcf.channelAccess.pendingQueue outgoingPacketLengths:histogram:sumweights 15052
scalar HandoverNetwork.ap1.wlan[0].mac.dcf.channelAccess.pendingQueue outgoingPacketLengths:histogram:mean 439.63380281690144
scalar HandoverNetwork.ap1.wlan[0].mac.dcf.channelAccess.pendingQueue outgoingPacketLengths:histogram:stddev 7.4370992928974395
scalar HandoverNetwork.ap1.wlan[0].mac.dcf.channelAccess.pendingQueue outgoingPacketLengths:histogram:min 272
scalar HandoverNetwork.ap1.wlan[0].mac.dcf.channelAccess.pendingQueue outgoingPacketLengths:histogram:max 440
scalar HandoverNetwork.ap1.wlan[0].mac.dcf.channelAccess.pendingQueue outgoingPacketLengths:histogram:numbins 51
scalar HandoverNetwork.ap1.wlan[0].mac.dcf.channelAccess.pendingQueue outgoingPacketLengths:histogram:rangemin 230
scalar HandoverNetwork.ap1.wlan[0].mac.dcf.channelAccess.pendingQueue outgoingPacketLengths:histogram:rangemax 485
scalar HandoverNetwork.ap1.wlan[0].mac.dcf.channelAccess.pendingQueue outgoingPacketLengths:histogram:underflows 0
scalar HandoverNetwork.ap1.wlan[0].mac.dcf.channelAccess.pendingQueue outgoingPacketLengths:histogram:overflows 0
scalar HandoverNetwork.ap1.wlan[0].mac.dcf.channelAccess.pendingQueue flowQueueingTime:histogram:count 0
scalar HandoverNetwork.ap1.wlan[0].mac.dcf.channelAccess.pendingQueue flowQueueingTime:histogram:sumweights 0
scalar HandoverNetwork.ap1.wlan[0].mac.dcf.channelAccess.pendingQueue flowQueueingTime:histogram:mean -nan
scalar HandoverNetwork.ap1.wlan[0].mac.dcf.channelAccess.pendingQueue flowQueueingTime:histogram:stddev nan
scalar HandoverNetwork.ap1.wlan[0].mac.dcf.channelAccess.pendingQueue flowQueueingTime:histogram:min nan
scalar HandoverNetwork.ap1.wlan[0].mac.dcf.channelAccess.pendingQueue flowQueueingTime:histogram:max nan
scalar HandoverNetwork.ap1.wlan[0].mac.dcf.channelAccess.pendingQueue flowQueueingTime:histogram:numbins 1
scalar HandoverNetwork.ap1.wlan[0].mac.dcf.channelAccess.pendingQueue flowQueueingTime:histogram:rangemin 0
scalar HandoverNetwork.ap1.wlan[0].mac.dcf.channelAccess.pendingQueue flowQueueingTime:histogram:rangemax 1
scalar HandoverNetwork.ap1.wlan[0].mac.dcf.channelAccess.pendingQueue flowQueueingTime:histogram:underflows 0
scalar HandoverNetwork.ap1.wlan[0].mac.dcf.channelAccess.pendingQueue flowQueueingTime:histogram:overflows 0
scalar HandoverNetwork.ap1.wlan[0].mac.dcf.channelAccess.pendingQueue incomingPacketLengths:histogram:count 15052
scalar HandoverNetwork.ap1.wlan[0].mac.dcf.channelAccess.pendingQueue incomingPacketLengths:histogram:sumweights 15052
scalar HandoverNetwork.ap1.wlan[0].mac.dcf.channelAccess.pendingQueue incomingPacketLengths:histogram:mean 439.63380281690144
scalar HandoverNetwork.ap1.wlan[0].mac.dcf.channelAccess.pendingQueue incomingPacketLengths:histogram:stddev 7.4370992928974395
scalar HandoverNetwork.ap1.wlan[0].mac.dcf.channelAccess.pendingQueue incomingPacketLengths:histogram:min 272
scalar HandoverNetwork.ap1.wlan[0].mac.dcf.channelAccess.pendingQueue incomingPacketLengths:histogram:max 440
scalar HandoverNetwork.ap1.wlan[0].mac.dcf.channelAccess.pendingQueue incomingPacketLengths:histogram:numbins 51
scalar HandoverNetwork.ap1.wlan[0].mac.dcf.channelAccess.pendingQueue incomingPacketLengths:histogram:rangemin 230
scalar HandoverNetwork.ap1.wlan[0].mac.dcf.channelAccess.pendingQueue incomingPacketLengths:histogram:rangemax 485
scalar HandoverNetwork.ap1.wlan[0].mac.dcf.channelAccess.pendingQueue incomingPacketLengths:histogram:underflows 0
scalar HandoverNetwork.ap1.wlan[0].mac.dcf.channelAccess.pendingQueue incomingPacketLengths:histogram:overflows 0
scalar HandoverNetwork.ap1.wlan[0].mac.dcf.channelAccess.inProgressFrames queueingTime:histogram:count 15052
scalar HandoverNetwork.ap1.wlan[0].mac.dcf.channelAccess.inProgressFrames queueingTime:histogram:sumweights 15052
scalar HandoverNetwork.ap1.wlan[0].mac.dcf.channelAccess.inProgressFrames queueingTime:histogram:mean 4.614526733848574e-05
scalar HandoverNetwork.ap1.wlan[0].mac.dcf.channelAccess.inProgressFrames queueingTime:histogram:stddev 2.469489731134981e-06
scalar HandoverNetwork.ap1.wlan[0].mac.dcf.channelAccess.inProgressFrames queueingTime:histogram:min 4.6e-05
scalar HandoverNetwork.ap1.wlan[0].mac.dcf.channelAccess.inProgressFrames queueingTime:histogram:max 9.1129224000000001e-05
scalar HandoverNetwork.ap1.wlan[0].mac.dcf.channelAccess.inProgressFrames queueingTime:histogram:numbins 68
scalar HandoverNetwork.ap1.wlan[0].mac.dcf.channelAccess.inProgressFrames queueingTime:histogram:rangemin 3.4000000000000007e-05
scalar HandoverNetwork.ap1.wlan[0].mac.dcf.channelAccess.inProgressFrames queueingTime:histogram:rangemax 0.00010200000000000001
scalar HandoverNetwork.ap1.wlan[0].mac.dcf.channelAccess.inProgressFrames queueingTime:histogram:underflows 0
scalar HandoverNetwork.ap1.wlan[0].mac.dcf.channelAccess.inProgressFrames queueingTime:histogram:overflows 0
scalar HandoverNetwork.ap1.wlan[0].mac.dcf frameSequenceDuration:histogram:count 15052
scalar HandoverNetwork.ap1.wlan[0].mac.dcf frameSequenceDuration:histogram:sumweights 15052
scalar HandoverNetwork.ap1.wlan[0].mac.dcf frameSequenceDuration:histogram:mean 4.614526733848574e-05
scalar HandoverNetwork.ap1.wlan[0].mac.dcf frameSequenceDuration:histogram:stddev 2.469489731134981e-06
scalar HandoverNetwork.ap1.wlan[0].mac.dcf frameSequenceDuration:histogram:min 4.6e-05
scalar HandoverNetwork.ap1.wlan[0].mac.dcf frameSequenceDuration:histogram:max 9.1129224000000001e-05
scalar HandoverNetwork.ap1.wlan[0].mac.dcf frameSequenceDuration:histogram:numbins 68
scalar HandoverNetwork.ap1.wlan[0].mac.dcf frameSequenceDuration:histogram:rangemin 3.4000000000000007e-05
scalar HandoverNetwork.ap1.wlan[0].mac.dcf frameSequenceDuration:histogram:rangemax 0.00010200000000000001
scalar HandoverNetwork.ap1.wlan[0].mac.dcf frameSequenceDuration:histogram:underflows 0
scalar HandoverNetwork.ap1.wlan[0].mac.dcf frameSequenceDuration:histogram:overflows 0
scalar HandoverNetwork.ap1.wlan[0].mac.dcf frameSequenceNumPackets:histogram:count 15052
scalar HandoverNetwork.ap1.wlan[0].mac.dcf frameSequenceNumPackets:histogram:sumweights 15052
scalar HandoverNetwork.ap1.wlan[0].mac.dcf frameSequenceNumPackets:histogram:mean 1.0034546904065904
scalar HandoverNetwork.ap1.wlan[0].mac.dcf frameSequenceNumPackets:histogram:stddev 0.058676948285558375
scalar HandoverNetwork.ap1.wlan[0].mac.dcf frameSequenceNumPackets:histogram:min 1
scalar HandoverNetwork.ap1.wlan[0].mac.dcf frameSequenceNumPackets:histogram:max 2
scalar HandoverNetwork.ap1.wlan[0].mac.dcf frameSequenceNumPackets:histogram:numbins 3
scalar HandoverNetwork.ap1.wlan[0].mac.dcf frameSequenceNumPackets:histogram:rangemin 0
scalar HandoverNetwork.ap1.wlan[0].mac.dcf frameSequenceNumPackets:histogram:rangemax 3
scalar HandoverNetwork.ap1.wlan[0].mac.dcf frameSequenceNumPackets:histogram:underflows 0
scalar HandoverNetwork.ap1.wlan[0].mac.dcf frameSequenceNumPackets:histogram:overflows 0
scalar HandoverNetwork.ap1.wlan[0].radio radioChannel:histogram:count 1
scalar HandoverNetwork.ap1.wlan[0].radio radioChannel:histogram:sumweights 1
scalar HandoverNetwork.ap1.wlan[0].radio radioChannel:histogram:mean 2
scalar HandoverNetwork.ap1.wlan[0].radio radioChannel:histogram:stddev nan
scalar HandoverNetwork.ap1.wlan[0].radio radioChannel:histogram:min 2
scalar HandoverNetwork.ap1.wlan[0].radio radioChannel:histogram:max 2
scalar HandoverNetwork.ap1.wlan[0].radio radioChannel:histogram:numbins 2
scalar HandoverNetwork.ap1.wlan[0].radio radioChannel:histogram:rangemin 1
scalar HandoverNetwork.ap1.wlan[0].radio radioChannel:histogram:rangemax 3
scalar HandoverNetwork.ap1.wlan[0].radio radioChannel:histogram:underflows 0
scalar HandoverNetwork.ap1.wlan[0].radio radioChannel:histogram:overflows 0
scalar HandoverNetwork.ap1.wlan[0].radio minSnir:histogram:count 104
scalar HandoverNetwork.ap1.wlan[0].radio minSnir:histogram:sumweights 104
scalar HandoverNetwork.ap1.wlan[0].radio minSnir:histogram:mean 908.60256425852413
scalar HandoverNetwork.ap1.wlan[0].radio minSnir:histogram:stddev 644.85757668422946
scalar HandoverNetwork.ap1.wlan[0].radio minSnir:histogram:min 677.26142997927548
scalar HandoverNetwork.ap1.wlan[0].radio minSnir:histogram:max 3199.8663806240138
scalar HandoverNetwork.ap1.wlan[0].radio minSnir:histogram:numbins 77
scalar HandoverNetwork.ap1.wlan[0].radio minSnir:histogram:rangemin 0
scalar HandoverNetwork.ap1.wlan[0].radio minSnir:histogram:rangemax 3850
scalar HandoverNetwork.ap1.wlan[0].radio minSnir:histogram:underflows 0
scalar HandoverNetwork.ap1.wlan[0].radio minSnir:histogram:overflows 0
scalar HandoverNetwork.ap1.wlan[0].radio packetErrorRate:histogram:count 104
scalar HandoverNetwork.ap1.wlan[0].radio packetErrorRate:histogram:sumweights 104
scalar HandoverNetwork.ap1.wlan[0].radio packetErrorRate:histogram:mean 0
scalar HandoverNetwork.ap1.wlan[0].radio packetErrorRate:histogram:stddev 0
scalar HandoverNetwork.ap1.wlan[0].radio packetErrorRate:histogram:min 0
scalar HandoverNetwork.ap1.wlan[0].radio packetErrorRate:histogram:max 0
scalar HandoverNetwork.ap1.wlan[0].radio packetErrorRate:histogram:numbins 50
scalar HandoverNetwork.ap1.wlan[0].radio packetErrorRate:histogram:rangemin -0.5
scalar HandoverNetwork.ap1.wlan[0].radio packetErrorRate:histogram:rangemax 0.5
scalar HandoverNetwork.ap1.wlan[0].radio packetErrorRate:histogram:underflows 0
scalar HandoverNetwork.ap1.wlan[0].radio packetErrorRate:histogram:overflows 0
scalar HandoverNetwork.ap1.wlan[0].radio bitErrorRate:histogram:count 0
scalar HandoverNetwork.ap1.wlan[0].radio bitErrorRate:histogram:sumweights 0
scalar HandoverNetwork.ap1.wlan[0].radio bitErrorRate:histogram:mean -nan
scalar HandoverNetwork.ap1.wlan[0].radio bitErrorRate:histogram:stddev nan
scalar HandoverNetwork.ap1.wlan[0].radio bitErrorRate:histogram:min nan
scalar HandoverNetwork.ap1.wlan[0].radio bitErrorRate:histogram:max nan
scalar HandoverNetwork.ap1.wlan[0].radio bitErrorRate:histogram:numbins 1
scalar HandoverNetwork.ap1.wlan[0].radio bitErrorRate:histogram:rangemin 0
scalar HandoverNetwork.ap1.wlan[0].radio bitErrorRate:histogram:rangemax 1
scalar HandoverNetwork.ap1.wlan[0].radio bitErrorRate:histogram:underflows 0
scalar HandoverNetwork.ap1.wlan[0].radio bitErrorRate:histogram:overflows 0
scalar HandoverNetwork.ap1.wlan[0].radio symbolErrorRate:histogram:count 0
scalar HandoverNetwork.ap1.wlan[0].radio symbolErrorRate:histogram:sumweights 0
scalar HandoverNetwork.ap1.wlan[0].radio symbolErrorRate:histogram:mean -nan
scalar HandoverNetwork.ap1.wlan[0].radio symbolErrorRate:histogram:stddev nan
scalar HandoverNetwork.ap1.wlan[0].radio symbolErrorRate:histogram:min nan
scalar HandoverNetwork.ap1.wlan[0].radio symbolErrorRate:histogram:max nan
scalar HandoverNetwork.ap1.wlan[0].radio symbolErrorRate:histogram:numbins 1
scalar HandoverNetwork.ap1.wlan[0].radio symbolErrorRate:histogram:rangemin 0
scalar HandoverNetwork.ap1.wlan[0].radio symbolErrorRate:histogram:rangemax 1
scalar HandoverNetwork.ap1.wlan[0].radio symbolErrorRate:histogram:underflows 0
scalar HandoverNetwork.ap1.wlan[0].radio symbolErrorRate:histogram:overflows 0
scalar HandoverNetwork.ap2.wlan[0].mac.dcf.channelAccess.pendingQueue queueingTime:histogram:count 15052
scalar HandoverNetwork.ap2.wlan[0].mac.dcf.channelAccess.pendingQueue queueingTime:histogram:sumweights 15052
scalar HandoverNetwork.ap2.wlan[0].mac.dcf.channelAccess.pendingQueue queueingTime:histogram:mean 5.1660908849322336e-07
scalar HandoverNetwork.ap2.wlan[0].mac.dcf.channelAccess.pendingQueue queueingTime:histogram:stddev 9.3335380436176942e-06
scalar HandoverNetwork.ap2.wlan[0].mac.dcf.channelAccess.pendingQueue queueingTime:histogram:min 0
scalar HandoverNetwork.ap2.wlan[0].mac.dcf.channelAccess.pendingQueue queueingTime:histogram:max 0.000234
scalar HandoverNetwork.ap2.wlan[0].mac.dcf.channelAccess.pendingQueue queueingTime:histogram:numbins 50
scalar HandoverNetwork.ap2.wlan[0].mac.dcf.channelAccess.pendingQueue queueingTime:histogram:rangemin -0.5
scalar HandoverNetwork.ap2.wlan[0].mac.dcf.channelAccess.pendingQueue queueingTime:histogram:rangemax 0.5
scalar HandoverNetwork.ap2.wlan[0].mac.dcf.channelAccess.pendingQueue queueingTime:histogram:underflows 0
scalar HandoverNetwork.ap2.wlan[0].mac.dcf.channelAccess.pendingQueue queueingTime:histogram:overflows 0
scalar HandoverNetwork.ap2.wlan[0].mac.dcf.channelAccess.pendingQueue outgoingPacketLengths:histogram:count 15052
scalar HandoverNetwork.ap2.wlan[0].mac.dcf.channelAccess.pendingQueue outgoingPacketLengths:histogram:sumweights 15052
scalar HandoverNetwork.ap2.wlan[0].mac.dcf.channelAccess.pendingQueue outgoingPacketLengths:histogram:mean 439.63380281690144
scalar HandoverNetwork.ap2.wlan[0].mac.dcf.channelAccess.pendingQueue outgoingPacketLengths:histogram:stddev 7.4370992928974395
scalar HandoverNetwork.ap2.wlan[0].mac.dcf.channelAccess.pendingQueue outgoingPacketLengths:histogram:min 272
scalar HandoverNetwork.ap2.wlan[0].mac.dcf.channelAccess.pendingQueue outgoingPacketLengths:histogram:max 440
scalar HandoverNetwork.ap2.wlan[0].mac.dcf.channelAccess.pendingQueue outgoingPacketLengths:histogram:numbins 43
scalar HandoverNetwork.ap2.wlan[0].mac.dcf.channelAccess.pendingQueue outgoingPacketLengths:histogram:rangemin 270
scalar HandoverNetwork.ap2.wlan[0].mac.dcf.channelAccess.pendingQueue outgoingPacketLengths:histogram:rangemax 442
scalar HandoverNetwork.ap2.wlan[0].mac.dcf.channelAccess.pendingQueue outgoingPacketLengths:histogram:underflows 0
scalar HandoverNetwork.ap2.wlan[0].mac.dcf.channelAccess.pendingQueue outgoingPacketLengths:histogram:overflows 0
scalar HandoverNetwork.ap2.wlan[0].mac.dcf.channelAccess.pendingQueue flowQueueingTime:histogram:count 0
scalar HandoverNetwork.ap2.wlan[0].mac.dcf.channelAccess.pendingQueue flowQueueingTime:histogram:sumweights 0
scalar HandoverNetwork.ap2.wlan[0].mac.dcf.channelAccess.pendingQueue flowQueueingTime:histogram:mean -nan
scalar HandoverNetwork.ap2.wlan[0].mac.dcf.channelAccess.pendingQueue flowQueueingTime:histogram:stddev nan
scalar HandoverNetwork.ap2.wlan[0].mac.dcf.channelAccess.pendingQueue flowQueueingTime:histogram:min nan
scalar HandoverNetwork.ap2.wlan[0].mac.dcf.channelAccess.pendingQueue flowQueueingTime:histogram:max nan
scalar HandoverNetwork.ap2.wlan[0].mac.dcf.channelAccess.pendingQueue flowQueueingTime:histogram:numbins 1
scalar HandoverNetwork.ap2.wlan[0].mac.dcf.channelAccess.pendingQueue flowQueueingTime:histogram:rangemin 0
scalar HandoverNetwork.ap2.wlan[0].mac.dcf.channelAccess.pendingQueue flowQueueingTime:histogram:rangemax 1
scalar HandoverNetwork.ap2.wlan[0].mac.dcf.channelAccess.pendingQueue flowQueueingTime:histogram:underflows 0
scalar HandoverNetwork.ap2.wlan[0].mac.dcf.channelAccess.pendingQueue flowQueueingTime:histogram:overflows 0
scalar HandoverNetwork.ap2.wlan[0].mac.dcf.channelAccess.pendingQueue incomingPacketLengths:histogram:count 15052
scalar HandoverNetwork.ap2.wlan[0].mac.dcf.channelAccess.pendingQueue incomingPacketLengths:histogram:sumweights 15052
scalar HandoverNetwork.ap2.wlan[0].mac.dcf.channelAccess.pendingQueue incomingPacketLengths:histogram:mean 439.63380281690144
scalar HandoverNetwork.ap2.wlan[0].mac.dcf.channelAccess.pendingQueue incomingPacketLengths:histogram:stddev 7.4370992928974395
scalar HandoverNetwork.ap2.wlan[0].mac.dcf.channelAccess.pendingQueue incomingPacketLengths:histogram:min 272
scalar HandoverNetwork.ap2.wlan[0].mac.dcf.channelAccess.pendingQueue incomingPacketLengths:histogram:max 440
scalar HandoverNetwork.ap2.wlan[0].mac.dcf.channelAccess.pendingQueue incomingPacketLengths:histogram:numbins 43
scalar HandoverNetwork.ap2.wlan[0].mac.dcf.channelAccess.pendingQueue incomingPacketLengths:histogram:rangemin 270
scalar HandoverNetwork.ap2.wlan[0].mac.dcf.channelAccess.pendingQueue incomingPacketLengths:histogram:rangemax 442
scalar HandoverNetwork.ap2.wlan[0].mac.dcf.channelAccess.pendingQueue incomingPacketLengths:histogram:underflows 0
scalar HandoverNetwork.ap2.wlan[0].mac.dcf.channelAccess.pendingQueue incomingPacketLengths:histogram:overflows 0
scalar HandoverNetwork.ap2.wlan[0].mac.dcf.channelAccess.inProgressFrames queueingTime:histogram:count 15052
scalar HandoverNetwork.ap2.wlan[0].mac.dcf.channelAccess.inProgressFrames queueingTime:histogram:sumweights 15052
scalar HandoverNetwork.ap2.wlan[0].mac.dcf.channelAccess.inProgressFrames queueingTime:histogram:mean 4.6145399478932206e-05
scalar HandoverNetwork.ap2.wlan[0].mac.dcf.channelAccess.inProgressFrames queueingTime:histogram:stddev 2.4717019748849408e-06
scalar HandoverNetwork.ap2.wlan[0].mac.dcf.channelAccess.inProgressFrames queueingTime:histogram:min 4.6e-05
scalar HandoverNetwork.ap2.wlan[0].mac.dcf.channelAccess.inProgressFrames queueingTime:histogram:max 9.1112476e-05
scalar HandoverNetwork.ap2.wlan[0].mac.dcf.channelAccess.inProgressFrames queueingTime:histogram:numbins 51
scalar HandoverNetwork.ap2.wlan[0].mac.dcf.channelAccess.inProgressFrames queueingTime:histogram:rangemin 0
scalar HandoverNetwork.ap2.wlan[0].mac.dcf.channelAccess.inProgressFrames queueingTime:histogram:rangemax 0.51000000000000001
scalar HandoverNetwork.ap2.wlan[0].mac.dcf.channelAccess.inProgressFrames queueingTime:histogram:underflows 0
scalar HandoverNetwork.ap2.wlan[0].mac.dcf.channelAccess.inProgressFrames queueingTime:histogram:overflows 0
scalar HandoverNetwork.ap2.wlan[0].mac.dcf frameSequenceDuration:histogram:count 15052
scalar HandoverNetwork.ap2.wlan[0].mac.dcf frameSequenceDuration:histogram:sumweights 15052
scalar HandoverNetwork.ap2.wlan[0].mac.dcf frameSequenceDuration:histogram:mean 4.6145399478932206e-05
scalar HandoverNetwork.ap2.wlan[0].mac.dcf frameSequenceDuration:histogram:stddev 2.4717019748849408e-06
scalar HandoverNetwork.ap2.wlan[0].mac.dcf frameSequenceDuration:histogram:min 4.6e-05
scalar HandoverNetwork.ap2.wlan[0].mac.dcf frameSequenceDuration:histogram:max 9.1112476e-05
scalar HandoverNetwork.ap2.wlan[0].mac.dcf frameSequenceDuration:histogram:numbins 51
scalar HandoverNetwork.ap2.wlan[0].mac.dcf frameSequenceDuration:histogram:rangemin 0
scalar HandoverNetwork.ap2.wlan[0].mac.dcf frameSequenceDuration:histogram:rangemax 0.51000000000000001
scalar HandoverNetwork.ap2.wlan[0].mac.dcf frameSequenceDuration:histogram:underflows 0
scalar HandoverNetwork.ap2.wlan[0].mac.dcf frameSequenceDuration:histogram:overflows 0
scalar HandoverNetwork.ap2.wlan[0].mac.dcf frameSequenceNumPackets:histogram:count 15052
scalar HandoverNetwork.ap2.wlan[0].mac.dcf frameSequenceNumPackets:histogram:sumweights 15052
scalar HandoverNetwork.ap2.wlan[0].mac.dcf frameSequenceNumPackets:histogram:mean 1.0034546904065904
scalar HandoverNetwork.ap2.wlan[0].mac.dcf frameSequenceNumPackets:histogram:stddev 0.058676948285558375
scalar HandoverNetwork.ap2.wlan[0].mac.dcf frameSequenceNumPackets:histogram:min 1
scalar HandoverNetwork.ap2.wlan[0].mac.dcf frameSequenceNumPackets:histogram:max 2
scalar HandoverNetwork.ap2.wlan[0].mac.dcf frameSequenceNumPackets:histogram:numbins 3
scalar HandoverNetwork.ap2.wlan[0].mac.dcf frameSequenceNumPackets:histogram:rangemin 0
scalar HandoverNetwork.ap2.wlan[0].mac.dcf frameSequenceNumPackets:histogram:rangemax 3
scalar HandoverNetwork.ap2.wlan[0].mac.dcf frameSequenceNumPackets:histogram:underflows 0
scalar HandoverNetwork.ap2.wlan[0].mac.dcf frameSequenceNumPackets:histogram:overflows 0
scalar HandoverNetwork.ap2.wlan[0].radio radioChannel:histogram:count 1
scalar HandoverNetwork.ap2.wlan[0].radio radioChannel:histogram:sumweights 1
scalar HandoverNetwork.ap2.wlan[0].radio radioChannel:histogram:mean 3
scalar HandoverNetwork.ap2.wlan[0].radio radioChannel:histogram:stddev nan
scalar HandoverNetwork.ap2.wlan[0].radio radioChannel:histogram:min 3
scalar HandoverNetwork.ap2.wlan[0].radio radioChannel:histogram:max 3
scalar HandoverNetwork.ap2.wlan[0].radio radioChannel:histogram:numbins 2
scalar HandoverNetwork.ap2.wlan[0].radio radioChannel:histogram:rangemin 2
scalar HandoverNetwork.ap2.wlan[0].radio radioChannel:histogram:rangemax 4
scalar HandoverNetwork.ap2.wlan[0].radio radioChannel:histogram:underflows 0
scalar HandoverNetwork.ap2.wlan[0].radio radioChannel:histogram:overflows 0
scalar HandoverNetwork.ap2.wlan[0].radio minSnir:histogram:count 104
scalar HandoverNetwork.ap2.wlan[0].radio minSnir:histogram:sumweights 104
scalar HandoverNetwork.ap2.wlan[0].radio minSnir:histogram:mean 727.52110939632394
scalar HandoverNetwork.ap2.wlan[0].radio minSnir:histogram:stddev 18.900853289371611
scalar HandoverNetwork.ap2.wlan[0].radio minSnir:histogram:min 694.93399755132293
scalar HandoverNetwork.ap2.wlan[0].radio minSnir:histogram:max 738.43907330544016
scalar HandoverNetwork.ap2.wlan[0].radio minSnir:histogram:numbins 66
scalar HandoverNetwork.ap2.wlan[0].radio minSnir:histogram:rangemin 684
scalar HandoverNetwork.ap2.wlan[0].radio minSnir:histogram:rangemax 750
scalar HandoverNetwork.ap2.wlan[0].radio minSnir:histogram:underflows 0
scalar HandoverNetwork.ap2.wlan[0].radio minSnir:histogram:overflows 0
scalar HandoverNetwork.ap2.wlan[0].radio packetErrorRate:histogram:count 104
scalar HandoverNetwork.ap2.wlan[0].radio packetErrorRate:histogram:sumweights 104
scalar HandoverNetwork.ap2.wlan[0].radio packetErrorRate:histogram:mean 0
scalar HandoverNetwork.ap2.wlan[0].radio packetErrorRate:histogram:stddev 0
scalar HandoverNetwork.ap2.wlan[0].radio packetErrorRate:histogram:min 0
scalar HandoverNetwork.ap2.wlan[0].radio packetErrorRate:histogram:max 0
scalar HandoverNetwork.ap2.wlan[0].radio packetErrorRate:histogram:numbins 50
scalar HandoverNetwork.ap2.wlan[0].radio packetErrorRate:histogram:rangemin -0.5
scalar HandoverNetwork.ap2.wlan[0].radio packetErrorRate:histogram:rangemax 0.5
scalar HandoverNetwork.ap2.wlan[0].radio packetErrorRate:histogram:underflows 0
scalar HandoverNetwork.ap2.wlan[0].radio packetErrorRate:histogram:overflows 0
scalar HandoverNetwork.ap2.wlan[0].radio bitErrorRate:histogram:count 0
scalar HandoverNetwork.ap2.wlan[0].radio bitErrorRate:histogram:sumweights 0
scalar HandoverNetwork.ap2.wlan[0].radio bitErrorRate:histogram:mean -nan
scalar HandoverNetwork.ap2.wlan[0].radio bitErrorRate:histogram:stddev nan
scalar HandoverNetwork.ap2.wlan[0].radio bitErrorRate:histogram:min nan
scalar HandoverNetwork.ap2.wlan[0].radio bitErrorRate:histogram:max nan
scalar HandoverNetwork.ap2.wlan[0].radio bitErrorRate:histogram:numbins 1
scalar HandoverNetwork.ap2.wlan[0].radio bitErrorRate:histogram:rangemin 0
scalar HandoverNetwork.ap2.wlan[0].radio bitErrorRate:histogram:rangemax 1
scalar HandoverNetwork.ap2.wlan[0].radio bitErrorRate:histogram:underflows 0
scalar HandoverNetwork.ap2.wlan[0].radio bitErrorRate:histogram:overflows 0
scalar HandoverNetwork.ap2.wlan[0].radio symbolErrorRate:histogram:count 0
scalar HandoverNetwork.ap2.wlan[0].radio symbolErrorRate:histogram:sumweights 0
scalar HandoverNetwork.ap2.wlan[0].radio symbolErrorRate:histogram:mean -nan
scalar HandoverNetwork.ap2.wlan[0].radio symbolErrorRate:histogram:stddev nan
scalar HandoverNetwork.ap2.wlan[0].radio symbolErrorRate:histogram:min nan
scalar HandoverNetwork.ap2.wlan[0].radio symbolErrorRate:histogram:max nan
scalar HandoverNetwork.ap2.wlan[0].radio symbolErrorRate:histogram:numbins 1
scalar HandoverNetwork.ap2.wlan[0].radio symbolErrorRate:histogram:rangemin 0
scalar HandoverNetwork.ap2.wlan[0].radio symbolErrorRate:histogram:rangemax 1
scalar HandoverNetwork.ap2.wlan[0].radio symbolErrorRate:histogram:underflows 0
scalar HandoverNetwork.ap2.wlan[0].radio symbolErrorRate:histogram:overflows 0
statistic HandoverNetwork.host.wlan[0].mac.dcf.channelAccess.pendingQueue queueingTime:histogram
field count 208
field mean 4.2346153846153845e-05
field stddev 7.712988846926051e-05
field min 0
field max 0.000234
field sum 0.0088079999999999999
field sqrsum 1.6044320000000001e-06
bin	-inf	0
bin	0	156
bin	5.0000000000000013e-06	0
bin	1.0000000000000003e-05	0
bin	1.5000000000000004e-05	0
bin	2.0000000000000005e-05	0
bin	2.5000000000000005e-05	0
bin	3.0000000000000008e-05	0
bin	3.500000000000001e-05	0
bin	4.000000000000001e-05	0
bin	4.500000000000001e-05	0
bin	5.0000000000000009e-05	0
bin	5.5000000000000016e-05	0
bin	6.0000000000000015e-05	0
bin	6.5000000000000021e-05	0
bin	7.0000000000000021e-05	0
bin	7.5000000000000021e-05	0
bin	8.000000000000002e-05	0
bin	8.500000000000002e-05	0
bin	9.0000000000000019e-05	4
bin	9.5000000000000019e-05	0
bin	0.00010000000000000002	0
bin	0.00010500000000000003	0
bin	0.00011000000000000003	8
bin	0.00011500000000000003	0
bin	0.00012000000000000003	0
bin	0.00012500000000000003	0
bin	0.00013000000000000004	6
bin	0.00013500000000000003	0
bin	0.00014000000000000004	0
bin	0.00014500000000000003	0
bin	0.00015000000000000004	8
bin	0.00015500000000000003	0
bin	0.00016000000000000004	0
bin	0.00016500000000000005	0
bin	0.00017000000000000004	4
bin	0.00017500000000000005	0
bin	0.00018000000000000004	0
bin	0.00018500000000000005	0
bin	0.00019000000000000004	4
bin	0.00019500000000000005	0
bin	0.00020000000000000004	0
bin	0.00020500000000000005	0
bin	0.00021000000000000006	10
bin	0.00021500000000000005	0
bin	0.00022000000000000006	0
bin	0.00022500000000000005	0
bin	0.00023000000000000006	8
bin	0.00023500000000000005	0
bin	0.00024000000000000006	0
bin	0.00024500000000000005	0
bin	0.00025000000000000006	0
bin	0.00025500000000000007	0
bin	0.00026000000000000009	0
bin	0.00026500000000000004	0
bin	0.00027000000000000006	0
bin	0.00027500000000000007	0
bin	0.00028000000000000008	0
bin	0.0002850000000000001	0
bin	0.00029000000000000006	0
bin	0.00029500000000000007	0
statistic HandoverNetwork.host.wlan[0].mac.dcf.channelAccess.pendingQueue outgoingPacketLengths:histogram
field count 208
field mean 304
field stddev 21.217074520483013
field min 272
field max 320
field sum 63232
field sqrsum 19315712
bin	-inf	0
bin	260	0
bin	261	0
bin	262	0
bin	263	0
bin	264	0
bin	265	0
bin	266	0
bin	267	0
bin	268	0
bin	269	0
bin	270	0
bin	271	0
bin	272	52
bin	273	0
bin	274	0
bin	275	0
bin	276	0
bin	277	0
bin	278	0
bin	279	0
bin	280	0
bin	281	0
bin	282	0
bin	283	0
bin	284	0
bin	285	0
bin	286	0
bin	287	0
bin	288	26
bin	289	0
bin	290	0
bin	291	0
bin	292	0
bin	293	0
bin	294	0
bin	295	0
bin	296	0
bin	297	0
bin	298	0
bin	299	0
bin	300	0
bin	301	0
bin	302	0
bin	303	0
bin	304	0
bin	305	0
bin	306	0
bin	307	0
bin	308	0
bin	309	0
bin	310	0
bin	311	0
bin	312	0
bin	313	0
bin	314	0
bin	315	0
bin	316	0
bin	317	0
bin	318	0
bin	319	0
bin	320	130
bin	321	0
bin	322	0
bin	323	0
bin	324	0
bin	325	0
bin	326	0
bin	327	0
bin	328	0
bin	329	0
bin	330	0
bin	331	0
bin	332	0
statistic HandoverNetwork.host.wlan[0].mac.dcf.channelAccess.pendingQueue flowQueueingTime:histogram
field count 0
field mean -nan
field stddev nan
field min nan
field max nan
field sum 0
field sqrsum 0
bin	-inf	0
bin	0	0
bin	1	0
statistic HandoverNetwork.host.wlan[0].mac.dcf.channelAccess.pendingQueue incomingPacketLengths:histogram
field count 208
field mean 304
field stddev 21.217074520483013
field min 272
field max 320
field sum 63232
field sqrsum 19315712
bin	-inf	0
bin	260	0
bin	261	0
bin	262	0
bin	263	0
bin	264	0
bin	265	0
bin	266	0
bin	267	0
bin	268	0
bin	269	0
bin	270	0
bin	271	0
bin	272	52
bin	273	0
bin	274	0
bin	275	0
bin	276	0
bin	277	0
bin	278	0
bin	279	0
bin	280	0
bin	281	0
bin	282	0
bin	283	0
bin	284	0
bin	285	0
bin	286	0
bin	287	0
bin	288	26
bin	289	0
bin	290	0
bin	291	0
bin	292	0
bin	293	0
bin	294	0
bin	295	0
bin	296	0
bin	297	0
bin	298	0
bin	299	0
bin	300	0
bin	301	0
bin	302	0
bin	303	0
bin	304	0
bin	305	0
bin	306	0
bin	307	0
bin	308	0
bin	309	0
bin	310	0
bin	311	0
bin	312	0
bin	313	0
bin	314	0
bin	315	0
bin	316	0
bin	317	0
bin	318	0
bin	319	0
bin	320	130
bin	321	0
bin	322	0
bin	323	0
bin	324	0
bin	325	0
bin	326	0
bin	327	0
bin	328	0
bin	329	0
bin	330	0
bin	331	0
bin	332	0
statistic HandoverNetwork.host.wlan[0].mac.dcf.channelAccess.inProgressFrames queueingTime:histogram
field count 208
field mean 5.889692322596167e-05
field stddev 2.1866561131357492e-05
field min 4.1999999999999998e-05
field max 8.7080861999999998e-05
field sum 0.012250560031000028
field sqrsum 8.2049661823310191e-07
bin	-inf	0
bin	3.0000000000000004e-05	0
bin	3.1000000000000001e-05	0
bin	3.2000000000000005e-05	0
bin	3.3000000000000003e-05	0
bin	3.4000000000000007e-05	0
bin	3.5000000000000004e-05	0
bin	3.6000000000000008e-05	0
bin	3.7000000000000005e-05	0
bin	3.8000000000000002e-05	0
bin	3.9000000000000006e-05	0
bin	4.000000000000001e-05	0
bin	4.1000000000000007e-05	130
bin	4.2000000000000004e-05	0
bin	4.3000000000000008e-05	0
bin	4.4000000000000006e-05	0
bin	4.500000000000001e-05	0
bin	4.6000000000000007e-05	0
bin	4.7000000000000004e-05	0
bin	4.8000000000000008e-05	0
bin	4.9000000000000012e-05	0
bin	5.0000000000000009e-05	0
bin	5.1000000000000006e-05	0
bin	5.2000000000000004e-05	0
bin	5.3000000000000008e-05	0
bin	5.4000000000000012e-05	0
bin	5.5000000000000009e-05	0
bin	5.6000000000000006e-05	0
bin	5.700000000000001e-05	0
bin	5.8000000000000007e-05	0
bin	5.9000000000000011e-05	0
bin	6.0000000000000008e-05	0
bin	6.1000000000000012e-05	0
bin	6.2000000000000016e-05	0
bin	6.3000000000000013e-05	0
bin	6.4000000000000011e-05	0
bin	6.5000000000000008e-05	0
bin	6.6000000000000005e-05	0
bin	6.7000000000000002e-05	0
bin	6.8000000000000013e-05	0
bin	6.900000000000001e-05	0
bin	7.0000000000000021e-05	0
bin	7.1000000000000018e-05	0
bin	7.2000000000000015e-05	0
bin	7.3000000000000013e-05	0
bin	7.400000000000001e-05	0
bin	7.5000000000000007e-05	0
bin	7.6000000000000004e-05	0
bin	7.7000000000000015e-05	0
bin	7.8000000000000012e-05	0
bin	7.9000000000000009e-05	0
bin	8.000000000000002e-05	0
bin	8.1000000000000017e-05	0
bin	8.2000000000000015e-05	0
bin	8.3000000000000012e-05	0
bin	8.4000000000000009e-05	0
bin	8.5000000000000006e-05	0
bin	8.6000000000000003e-05	3
bin	8.7000000000000014e-05	75
bin	8.8000000000000011e-05	0
bin	8.9000000000000022e-05	0
bin	9.0000000000000019e-05	0
bin	9.1000000000000016e-05	0
bin	9.2000000000000014e-05	0
bin	9.3000000000000011e-05	0
bin	9.4000000000000008e-05	0
bin	9.5000000000000005e-05	0
bin	9.6000000000000002e-05	0
bin	9.7000000000000027e-05	0
bin	9.8000000000000024e-05	0
bin	9.9000000000000021e-05	0
statistic HandoverNetwork.host.wlan[0].mac.dcf frameSequenceDuration:histogram
field count 208
field mean 5.889692322596167e-05
field stddev 2.1866561131357492e-05
field min 4.1999999999999998e-05
field max 8.7080861999999998e-05
field sum 0.012250560031000028
field sqrsum 8.2049661823310191e-07
bin	-inf	0
bin	3.0000000000000004e-05	0
bin	3.1000000000000001e-05	0
bin	3.2000000000000005e-05	0
bin	3.3000000000000003e-05	0
bin	3.4000000000000007e-05	0
bin	3.5000000000000004e-05	0
bin	3.6000000000000008e-05	0
bin	3.7000000000000005e-05	0
bin	3.8000000000000002e-05	0
bin	3.9000000000000006e-05	0
bin	4.000000000000001e-05	0
bin	4.1000000000000007e-05	130
bin	4.2000000000000004e-05	0
bin	4.3000000000000008e-05	0
bin	4.4000000000000006e-05	0
bin	4.500000000000001e-05	0
bin	4.6000000000000007e-05	0
bin	4.7000000000000004e-05	0
bin	4.8000000000000008e-05	0
bin	4.9000000000000012e-05	0
bin	5.0000000000000009e-05	0
bin	5.1000000000000006e-05	0
bin	5.2000000000000004e-05	0
bin	5.3000000000000008e-05	0
bin	5.4000000000000012e-05	0
bin	5.5000000000000009e-05	0
bin	5.6000000000000006e-05	0
bin	5.700000000000001e-05	0
bin	5.8000000000000007e-05	0
bin	5.9000000000000011e-05	0
bin	6.0000000000000008e-05	0
bin	6.1000000000000012e-05	0
bin	6.2000000000000016e-05	0
bin	6.3000000000000013e-05	0
bin	6.4000000000000011e-05	0
bin	6.5000000000000008e-05	0
bin	6.6000000000000005e-05	0
bin	6.7000000000000002e-05	0
bin	6.8000000000000013e-05	0
bin	6.900000000000001e-05	0
bin	7.0000000000000021e-05	0
bin	7.1000000000000018e-05	0
bin	7.2000000000000015e-05	0
bin	7.3000000000000013e-05	0
bin	7.400000000000001e-05	0
bin	7.5000000000000007e-05	0
bin	7.6000000000000004e-05	0
bin	7.7000000000000015e-05	0
bin	7.8000000000000012e-05	0
bin	7.9000000000000009e-05	0
bin	8.000000000000002e-05	0
bin	8.1000000000000017e-05	0
bin	8.2000000000000015e-05	0
bin	8.3000000000000012e-05	0
bin	8.4000000000000009e-05	0
bin	8.5000000000000006e-05	0
bin	8.6000000000000003e-05	3
bin	8.7000000000000014e-05	75
bin	8.8000000000000011e-05	0
bin	8.9000000000000022e-05	0
bin	9.0000000000000019e-05	0
bin	9.1000000000000016e-05	0
bin	9.2000000000000014e-05	0
bin	9.3000000000000011e-05	0
bin	9.4000000000000008e-05	0
bin	9.5000000000000005e-05	0
bin	9.6000000000000002e-05	0
bin	9.7000000000000027e-05	0
bin	9.8000000000000024e-05	0
bin	9.9000000000000021e-05	0
statistic HandoverNetwork.host.wlan[0].mac.dcf frameSequenceNumPackets:histogram
field count 208
field mean 1.375
field stddev 0.48529088841313678
field min 1
field max 2
field sum 286
field sqrsum 442
bin	-inf	0
bin	0	0
bin	1	130
bin	2	78
bin	3	0
statistic HandoverNetwork.host.wlan[0].radio radioChannel:histogram
field count 183
field mean 2.1311475409836067
field stddev 1.2554331571923636
field min 0
field max 4
field sum 390
field sqrsum 1118
bin	-inf	0
bin	0	27
bin	1	26
bin	2	52
bin	3	52
bin	4	26
bin	5	0
statistic HandoverNetwork.host.wlan[0].radio minSnir:histogram
field count 14845
field mean 2028.4470504369158
field stddev 1162.0386057819778
field min 317.95726040902838
field max 3960.0092682968752
field sum 30112296.463736016
field sqrsum 81125552703.136017
bin	-inf	0
bin	0	0
bin	100	0
bin	200	0
bin	300	712
bin	400	613
bin	500	462
bin	600	449
bin	700	664
bin	800	500
bin	900	438
bin	1000	375
bin	1100	337
bin	1200	300
bin	1300	551
bin	1400	525
bin	1500	424
bin	1600	426
bin	1700	400
bin	1800	400
bin	1900	374
bin	2000	326
bin	2100	350
bin	2200	300
bin	2300	300
bin	2400	300
bin	2500	300
bin	2600	247
bin	2700	272
bin	2800	298
bin	2900	276
bin	3000	248
bin	3100	278
bin	3200	300
bin	3300	275
bin	3400	300
bin	3500	325
bin	3600	375
bin	3700	400
bin	3800	600
bin	3900	825
bin	4000	0
bin	4100	0
bin	4200	0
bin	4300	0
bin	4400	0
bin	4500	0
bin	4600	0
bin	4700	0
bin	4800	0
bin	4900	0
statistic HandoverNetwork.host.wlan[0].radio packetErrorRate:histogram
field count 14845
field mean 0
field stddev 0
field min 0
field max 0
field sum 0
field sqrsum 0
bin	-inf	0
bin	-0.5	0
bin	-0.47999999999999998	0
bin	-0.46000000000000002	0
bin	-0.44	0
bin	-0.41999999999999998	0
bin	-0.40000000000000002	0
bin	-0.38	0
bin	-0.35999999999999999	0
bin	-0.33999999999999997	0
bin	-0.32000000000000001	0
bin	-0.29999999999999999	0
bin	-0.28000000000000003	0
bin	-0.26000000000000001	0
bin	-0.23999999999999999	0
bin	-0.21999999999999997	0
bin	-0.20000000000000001	0
bin	-0.17999999999999999	0
bin	-0.15999999999999998	0
bin	-0.14000000000000001	0
bin	-0.12	0
bin	-0.099999999999999978	0
bin	-0.080000000000000016	0
bin	-0.059999999999999998	0
bin	-0.03999999999999998	0
bin	-0.020000000000000018	0
bin	0	14845
bin	0.020000000000000018	0
bin	0.040000000000000036	0
bin	0.060000000000000053	0
bin	0.07999999999999996	0
bin	0.099999999999999978	0
bin	0.12	0
bin	0.14000000000000001	0
bin	0.16000000000000003	0
bin	0.18000000000000005	0
bin	0.20000000000000007	0
bin	0.21999999999999997	0
bin	0.23999999999999999	0
bin	0.26000000000000001	0
bin	0.28000000000000003	0
bin	0.30000000000000004	0
bin	0.32000000000000006	0
bin	0.33999999999999997	0
bin	0.35999999999999999	0
bin	0.38	0
bin	0.40000000000000002	0
bin	0.42000000000000004	0
bin	0.44000000000000006	0
bin	0.45999999999999996	0
bin	0.47999999999999998	0
bin	0.5	0
statistic HandoverNetwork.host.wlan[0].radio bitErrorRate:histogram
field count 0
field mean -nan
field stddev nan
field min nan
field max nan
field sum 0
field sqrsum 0
bin	-inf	0
bin	0	0
bin	1	0
statistic HandoverNetwork.host.wlan[0].radio symbolErrorRate:histogram
field count 0
field mean -nan
field stddev nan
field min nan
field max nan
field sum 0
field sqrsum 0
bin	-inf	0
bin	0	0
bin	1	0
statistic HandoverNetwork.ap1.wlan[0].mac.dcf.channelAccess.pendingQueue queueingTime:histogram
field count 15052
field mean 4.9269200106298162e-07
field stddev 8.8562224064183904e-06
field min 0
field max 0.000234
field sum 0.007415999999999999
field sqrsum 1.1841439999999995e-06
bin	-inf	0
bin	0	15000
bin	4.0000000000000007e-06	0
bin	8.0000000000000013e-06	0
bin	1.2000000000000002e-05	0
bin	1.6000000000000003e-05	0
bin	2.0000000000000005e-05	0
bin	2.4000000000000004e-05	0
bin	2.8000000000000003e-05	0
bin	3.2000000000000005e-05	0
bin	3.6000000000000008e-05	0
bin	4.000000000000001e-05	0
bin	4.4000000000000006e-05	0
bin	4.8000000000000008e-05	1
bin	5.200000000000001e-05	0
bin	5.6000000000000006e-05	0
bin	6.0000000000000008e-05	0
bin	6.4000000000000011e-05	0
bin	6.8000000000000013e-05	2
bin	7.2000000000000015e-05	0
bin	7.6000000000000018e-05	0
bin	8.000000000000002e-05	0
bin	8.4000000000000009e-05	0
bin	8.8000000000000011e-05	0
bin	9.2000000000000014e-05	10
bin	9.6000000000000016e-05	0
bin	0.00010000000000000002	0
bin	0.00010400000000000002	0
bin	0.00010800000000000002	1
bin	0.00011200000000000001	9
bin	0.00011600000000000001	0
bin	0.00012000000000000002	0
bin	0.00012400000000000003	0
bin	0.00012800000000000002	2
bin	0.00013200000000000001	6
bin	0.00013600000000000003	0
bin	0.00014000000000000001	0
bin	0.00014400000000000003	0
bin	0.00014800000000000002	1
bin	0.00015200000000000004	2
bin	0.00015600000000000002	0
bin	0.00016000000000000004	0
bin	0.00016400000000000003	0
bin	0.00016800000000000002	4
bin	0.00017200000000000003	2
bin	0.00017600000000000002	0
bin	0.00018000000000000004	0
bin	0.00018400000000000003	0
bin	0.00018800000000000004	2
bin	0.00019200000000000003	1
bin	0.00019600000000000002	0
bin	0.00020000000000000004	0
bin	0.00020400000000000003	0
bin	0.00020800000000000004	0
bin	0.00021200000000000003	4
bin	0.00021600000000000005	0
bin	0.00022000000000000003	0
bin	0.00022400000000000002	0
bin	0.00022800000000000004	0
bin	0.00023200000000000006	5
bin	0.00023600000000000004	0
statistic HandoverNetwork.ap1.wlan[0].mac.dcf.channelAccess.pendingQueue outgoingPacketLengths:histogram
field count 15052
field mean 439.63380281690144
field stddev 7.4370992928974395
field min 272
field max 440
field sum 6617368
field sqrsum 2910051136
bin	-inf	0
bin	230	0
bin	235	0
bin	240	0
[...]
scalar HandoverNetwork.ap2.wlan[0].mac.dcf packetReceivedFromPeerWithoutRetry:vector(packetBytes):sumweights 104
scalar HandoverNetwork.ap2.wlan[0].mac.dcf packetReceivedFromPeerWithoutRetry:vector(packetBytes):mean 25
scalar HandoverNetwork.ap2.wlan[0].mac.dcf packetReceivedFromPeerWithoutRetry:vector(packetBytes):stddev 11.189454119622889
scalar HandoverNetwork.ap2.wlan[0].mac.dcf packetReceivedFromPeerWithoutRetry:vector(packetBytes):min 14
scalar HandoverNetwork.ap2.wlan[0].mac.dcf packetReceivedFromPeerWithoutRetry:vector(packetBytes):max 40
scalar HandoverNetwork.ap2.wlan[0].mac.dcf packetReceivedFromPeerWithoutRetry:vector(packetBytes):starttime 29.864678790927005
scalar HandoverNetwork.ap2.wlan[0].mac.dcf packetReceivedFromPeerWithoutRetry:vector(packetBytes):endtime 1470.4157460120744
scalar HandoverNetwork.ap2.wlan[0].mac.dcf packetDrop:vector(packetBytes):count 0
scalar HandoverNetwork.ap2.wlan[0].mac.dcf packetDrop:vector(packetBytes):sum 0
scalar HandoverNetwork.ap2.wlan[0].mac.dcf packetDrop:vector(packetBytes):sumweights 0
scalar HandoverNetwork.ap2.wlan[0].mac.dcf packetDrop:vector(packetBytes):mean -nan
scalar HandoverNetwork.ap2.wlan[0].mac.dcf packetDrop:vector(packetBytes):stddev nan
scalar HandoverNetwork.ap2.wlan[0].mac.dcf packetDrop:vector(packetBytes):min inf
scalar HandoverNetwork.ap2.wlan[0].mac.dcf packetDrop:vector(packetBytes):max -inf
scalar HandoverNetwork.ap2.wlan[0].mac.dcf packetDrop:vector(packetBytes):starttime nan
scalar HandoverNetwork.ap2.wlan[0].mac.dcf packetDrop:vector(packetBytes):endtime nan
scalar HandoverNetwork.ap2.wlan[0].mac.dcf packetDropNotAddressedToUs:vector(packetBytes):count 0
scalar HandoverNetwork.ap2.wlan[0].mac.dcf packetDropNotAddressedToUs:vector(packetBytes):sum 0
scalar HandoverNetwork.ap2.wlan[0].mac.dcf packetDropNotAddressedToUs:vector(packetBytes):sumweights 0
scalar HandoverNetwork.ap2.wlan[0].mac.dcf packetDropNotAddressedToUs:vector(packetBytes):mean -nan
scalar HandoverNetwork.ap2.wlan[0].mac.dcf packetDropNotAddressedToUs:vector(packetBytes):stddev nan
scalar HandoverNetwork.ap2.wlan[0].mac.dcf packetDropNotAddressedToUs:vector(packetBytes):min inf
scalar HandoverNetwork.ap2.wlan[0].mac.dcf packetDropNotAddressedToUs:vector(packetBytes):max -inf
scalar HandoverNetwork.ap2.wlan[0].mac.dcf packetDropNotAddressedToUs:vector(packetBytes):starttime nan
scalar HandoverNetwork.ap2.wlan[0].mac.dcf packetDropNotAddressedToUs:vector(packetBytes):endtime nan
scalar HandoverNetwork.ap2.wlan[0].mac.dcf packetDropQueueOverflow:vector(packetBytes):count 0
scalar HandoverNetwork.ap2.wlan[0].mac.dcf packetDropQueueOverflow:vector(packetBytes):sum 0
scalar HandoverNetwork.ap2.wlan[0].mac.dcf packetDropQueueOverflow:vector(packetBytes):sumweights 0
scalar HandoverNetwork.ap2.wlan[0].mac.dcf packetDropQueueOverflow:vector(packetBytes):mean -nan
scalar HandoverNetwork.ap2.wlan[0].mac.dcf packetDropQueueOverflow:vector(packetBytes):stddev nan
scalar HandoverNetwork.ap2.wlan[0].mac.dcf packetDropQueueOverflow:vector(packetBytes):min inf
scalar HandoverNetwork.ap2.wlan[0].mac.dcf packetDropQueueOverflow:vector(packetBytes):max -inf
scalar HandoverNetwork.ap2.wlan[0].mac.dcf packetDropQueueOverflow:vector(packetBytes):starttime nan
scalar HandoverNetwork.ap2.wlan[0].mac.dcf packetDropQueueOverflow:vector(packetBytes):endtime nan
scalar HandoverNetwork.ap2.wlan[0].mac.dcf packetDropRetryLimitReached:vector(packetBytes):count 0
scalar HandoverNetwork.ap2.wlan[0].mac.dcf packetDropRetryLimitReached:vector(packetBytes):sum 0
scalar HandoverNetwork.ap2.wlan[0].mac.dcf packetDropRetryLimitReached:vector(packetBytes):sumweights 0
scalar HandoverNetwork.ap2.wlan[0].mac.dcf packetDropRetryLimitReached:vector(packetBytes):mean -nan
scalar HandoverNetwork.ap2.wlan[0].mac.dcf packetDropRetryLimitReached:vector(packetBytes):stddev nan
scalar HandoverNetwork.ap2.wlan[0].mac.dcf packetDropRetryLimitReached:vector(packetBytes):min inf
scalar HandoverNetwork.ap2.wlan[0].mac.dcf packetDropRetryLimitReached:vector(packetBytes):max -inf
scalar HandoverNetwork.ap2.wlan[0].mac.dcf packetDropRetryLimitReached:vector(packetBytes):starttime nan
scalar HandoverNetwork.ap2.wlan[0].mac.dcf packetDropRetryLimitReached:vector(packetBytes):endtime nan
scalar HandoverNetwork.ap2.wlan[0].mac.dcf frameSequenceActive:vector:count 30106
scalar HandoverNetwork.ap2.wlan[0].mac.dcf frameSequenceActive:vector:sum 15052
scalar HandoverNetwork.ap2.wlan[0].mac.dcf frameSequenceActive:vector:sumweights 30106
scalar HandoverNetwork.ap2.wlan[0].mac.dcf frameSequenceActive:vector:mean 0.49996678402976152
scalar HandoverNetwork.ap2.wlan[0].mac.dcf frameSequenceActive:vector:stddev 0.50000830309611521
scalar HandoverNetwork.ap2.wlan[0].mac.dcf frameSequenceActive:vector:min 0
scalar HandoverNetwork.ap2.wlan[0].mac.dcf frameSequenceActive:vector:max 1
scalar HandoverNetwork.ap2.wlan[0].mac.dcf frameSequenceActive:vector:starttime 0
scalar HandoverNetwork.ap2.wlan[0].mac.dcf frameSequenceActive:vector:endtime 1499.9384841708222
scalar HandoverNetwork.ap2.wlan[0].mac.dcf datarateSelected:vector:count 15091
scalar HandoverNetwork.ap2.wlan[0].mac.dcf datarateSelected:vector:sum 362184000000
scalar HandoverNetwork.ap2.wlan[0].mac.dcf datarateSelected:vector:sumweights 15091
scalar HandoverNetwork.ap2.wlan[0].mac.dcf datarateSelected:vector:mean 24000000
scalar HandoverNetwork.ap2.wlan[0].mac.dcf datarateSelected:vector:stddev 0
scalar HandoverNetwork.ap2.wlan[0].mac.dcf datarateSelected:vector:min 24000000
scalar HandoverNetwork.ap2.wlan[0].mac.dcf datarateSelected:vector:max 24000000
scalar HandoverNetwork.ap2.wlan[0].mac.dcf datarateSelected:vector:starttime 0.03843817082200001
scalar HandoverNetwork.ap2.wlan[0].mac.dcf datarateSelected:vector:endtime 1499.9384381708223
scalar HandoverNetwork.ap2.wlan[0].mac.rx nav:vector:count 156
scalar HandoverNetwork.ap2.wlan[0].mac.rx nav:vector:sum 0.0022879999999999997
scalar HandoverNetwork.ap2.wlan[0].mac.rx nav:vector:sumweights 156
scalar HandoverNetwork.ap2.wlan[0].mac.rx nav:vector:mean 1.4666666666666665e-05
scalar HandoverNetwork.ap2.wlan[0].mac.rx nav:vector:stddev 2.0808600372498997e-05
scalar HandoverNetwork.ap2.wlan[0].mac.rx nav:vector:min 0
scalar HandoverNetwork.ap2.wlan[0].mac.rx nav:vector:max 4.3999999999999999e-05
scalar HandoverNetwork.ap2.wlan[0].mac.rx nav:vector:starttime 29.864794790927004
scalar HandoverNetwork.ap2.wlan[0].mac.rx nav:vector:endtime 1470.4157449328463
scalar HandoverNetwork.ap2.wlan[0].mac packetSentToUpper:vector(packetBytes):count 0
scalar HandoverNetwork.ap2.wlan[0].mac packetSentToUpper:vector(packetBytes):sum 0
scalar HandoverNetwork.ap2.wlan[0].mac packetSentToUpper:vector(packetBytes):sumweights 0
scalar HandoverNetwork.ap2.wlan[0].mac packetSentToUpper:vector(packetBytes):mean -nan
scalar HandoverNetwork.ap2.wlan[0].mac packetSentToUpper:vector(packetBytes):stddev nan
scalar HandoverNetwork.ap2.wlan[0].mac packetSentToUpper:vector(packetBytes):min inf
scalar HandoverNetwork.ap2.wlan[0].mac packetSentToUpper:vector(packetBytes):max -inf
scalar HandoverNetwork.ap2.wlan[0].mac packetSentToUpper:vector(packetBytes):starttime nan
scalar HandoverNetwork.ap2.wlan[0].mac packetSentToUpper:vector(packetBytes):endtime nan
scalar HandoverNetwork.ap2.wlan[0].mac packetSentToLower:vector(packetBytes):count 15091
scalar HandoverNetwork.ap2.wlan[0].mac packetSentToLower:vector(packetBytes):sum 827717
scalar HandoverNetwork.ap2.wlan[0].mac packetSentToLower:vector(packetBytes):sumweights 15091
scalar HandoverNetwork.ap2.wlan[0].mac packetSentToLower:vector(packetBytes):mean 54.848386455503281
scalar HandoverNetwork.ap2.wlan[0].mac packetSentToLower:vector(packetBytes):stddev 2.2771971338964745
scalar HandoverNetwork.ap2.wlan[0].mac packetSentToLower:vector(packetBytes):min 14
scalar HandoverNetwork.ap2.wlan[0].mac packetSentToLower:vector(packetBytes):max 55
scalar HandoverNetwork.ap2.wlan[0].mac packetSentToLower:vector(packetBytes):starttime 0.03843817082200001
scalar HandoverNetwork.ap2.wlan[0].mac packetSentToLower:vector(packetBytes):endtime 1499.9384381708223
scalar HandoverNetwork.ap2.wlan[0].mac packetReceivedFromUpper:vector(packetBytes):count 0
scalar HandoverNetwork.ap2.wlan[0].mac packetReceivedFromUpper:vector(packetBytes):sum 0
scalar HandoverNetwork.ap2.wlan[0].mac packetReceivedFromUpper:vector(packetBytes):sumweights 0
scalar HandoverNetwork.ap2.wlan[0].mac packetReceivedFromUpper:vector(packetBytes):mean -nan
scalar HandoverNetwork.ap2.wlan[0].mac packetReceivedFromUpper:vector(packetBytes):stddev nan
scalar HandoverNetwork.ap2.wlan[0].mac packetReceivedFromUpper:vector(packetBytes):min inf
scalar HandoverNetwork.ap2.wlan[0].mac packetReceivedFromUpper:vector(packetBytes):max -inf
scalar HandoverNetwork.ap2.wlan[0].mac packetReceivedFromUpper:vector(packetBytes):starttime nan
scalar HandoverNetwork.ap2.wlan[0].mac packetReceivedFromUpper:vector(packetBytes):endtime nan
scalar HandoverNetwork.ap2.wlan[0].mac packetReceivedFromLower:vector(packetBytes):count 104
scalar HandoverNetwork.ap2.wlan[0].mac packetReceivedFromLower:vector(packetBytes):sum 2600
scalar HandoverNetwork.ap2.wlan[0].mac packetReceivedFromLower:vector(packetBytes):sumweights 104
scalar HandoverNetwork.ap2.wlan[0].mac packetReceivedFromLower:vector(packetBytes):mean 25
scalar HandoverNetwork.ap2.wlan[0].mac packetReceivedFromLower:vector(packetBytes):stddev 11.189454119622889
scalar HandoverNetwork.ap2.wlan[0].mac packetReceivedFromLower:vector(packetBytes):min 14
scalar HandoverNetwork.ap2.wlan[0].mac packetReceivedFromLower:vector(packetBytes):max 40
scalar HandoverNetwork.ap2.wlan[0].mac packetReceivedFromLower:vector(packetBytes):starttime 29.864678790927005
scalar HandoverNetwork.ap2.wlan[0].mac packetReceivedFromLower:vector(packetBytes):endtime 1470.4157460120744
scalar HandoverNetwork.ap2.wlan[0].mac packetDrop:vector(packetBytes):count 0
scalar HandoverNetwork.ap2.wlan[0].mac packetDrop:vector(packetBytes):sum 0
scalar HandoverNetwork.ap2.wlan[0].mac packetDrop:vector(packetBytes):sumweights 0
scalar HandoverNetwork.ap2.wlan[0].mac packetDrop:vector(packetBytes):mean -nan
scalar HandoverNetwork.ap2.wlan[0].mac packetDrop:vector(packetBytes):stddev nan
scalar HandoverNetwork.ap2.wlan[0].mac packetDrop:vector(packetBytes):min inf
scalar HandoverNetwork.ap2.wlan[0].mac packetDrop:vector(packetBytes):max -inf
scalar HandoverNetwork.ap2.wlan[0].mac packetDrop:vector(packetBytes):starttime nan
scalar HandoverNetwork.ap2.wlan[0].mac packetDrop:vector(packetBytes):endtime nan
scalar HandoverNetwork.ap2.wlan[0].mac packetDropIncorrectlyReceived:vector(packetBytes):count 0
scalar HandoverNetwork.ap2.wlan[0].mac packetDropIncorrectlyReceived:vector(packetBytes):sum 0
scalar HandoverNetwork.ap2.wlan[0].mac packetDropIncorrectlyReceived:vector(packetBytes):sumweights 0
scalar HandoverNetwork.ap2.wlan[0].mac packetDropIncorrectlyReceived:vector(packetBytes):mean -nan
scalar HandoverNetwork.ap2.wlan[0].mac packetDropIncorrectlyReceived:vector(packetBytes):stddev nan
scalar HandoverNetwork.ap2.wlan[0].mac packetDropIncorrectlyReceived:vector(packetBytes):min inf
scalar HandoverNetwork.ap2.wlan[0].mac packetDropIncorrectlyReceived:vector(packetBytes):max -inf
scalar HandoverNetwork.ap2.wlan[0].mac packetDropIncorrectlyReceived:vector(packetBytes):starttime nan
scalar HandoverNetwork.ap2.wlan[0].mac packetDropIncorrectlyReceived:vector(packetBytes):endtime nan
scalar HandoverNetwork.ap2.wlan[0].mac packetDropNotAddressedToUs:vector(packetBytes):count 0
scalar HandoverNetwork.ap2.wlan[0].mac packetDropNotAddressedToUs:vector(packetBytes):sum 0
scalar HandoverNetwork.ap2.wlan[0].mac packetDropNotAddressedToUs:vector(packetBytes):sumweights 0
scalar HandoverNetwork.ap2.wlan[0].mac packetDropNotAddressedToUs:vector(packetBytes):mean -nan
scalar HandoverNetwork.ap2.wlan[0].mac packetDropNotAddressedToUs:vector(packetBytes):stddev nan
scalar HandoverNetwork.ap2.wlan[0].mac packetDropNotAddressedToUs:vector(packetBytes):min inf
scalar HandoverNetwork.ap2.wlan[0].mac packetDropNotAddressedToUs:vector(packetBytes):max -inf
scalar HandoverNetwork.ap2.wlan[0].mac packetDropNotAddressedToUs:vector(packetBytes):starttime nan
scalar HandoverNetwork.ap2.wlan[0].mac packetDropNotAddressedToUs:vector(packetBytes):endtime nan
scalar HandoverNetwork.ap2.wlan[0].mac packetDropQueueOverflow:vector(packetBytes):count 0
scalar HandoverNetwork.ap2.wlan[0].mac packetDropQueueOverflow:vector(packetBytes):sum 0
scalar HandoverNetwork.ap2.wlan[0].mac packetDropQueueOverflow:vector(packetBytes):sumweights 0
scalar HandoverNetwork.ap2.wlan[0].mac packetDropQueueOverflow:vector(packetBytes):mean -nan
scalar HandoverNetwork.ap2.wlan[0].mac packetDropQueueOverflow:vector(packetBytes):stddev nan
scalar HandoverNetwork.ap2.wlan[0].mac packetDropQueueOverflow:vector(packetBytes):min inf
scalar HandoverNetwork.ap2.wlan[0].mac packetDropQueueOverflow:vector(packetBytes):max -inf
scalar HandoverNetwork.ap2.wlan[0].mac packetDropQueueOverflow:vector(packetBytes):starttime nan
scalar HandoverNetwork.ap2.wlan[0].mac packetDropQueueOverflow:vector(packetBytes):endtime nan
scalar HandoverNetwork.ap2.wlan[0].mac packetDropRetryLimitReached:vector(packetBytes):count 0
scalar HandoverNetwork.ap2.wlan[0].mac packetDropRetryLimitReached:vector(packetBytes):sum 0
scalar HandoverNetwork.ap2.wlan[0].mac packetDropRetryLimitReached:vector(packetBytes):sumweights 0
scalar HandoverNetwork.ap2.wlan[0].mac packetDropRetryLimitReached:vector(packetBytes):mean -nan
scalar HandoverNetwork.ap2.wlan[0].mac packetDropRetryLimitReached:vector(packetBytes):stddev nan
scalar HandoverNetwork.ap2.wlan[0].mac packetDropRetryLimitReached:vector(packetBytes):min inf
scalar HandoverNetwork.ap2.wlan[0].mac packetDropRetryLimitReached:vector(packetBytes):max -inf
scalar HandoverNetwork.ap2.wlan[0].mac packetDropRetryLimitReached:vector(packetBytes):starttime nan
scalar HandoverNetwork.ap2.wlan[0].mac packetDropRetryLimitReached:vector(packetBytes):endtime nan
scalar HandoverNetwork.ap2.wlan[0].mac packetDropDuplicateDetected:vector(packetBytes):count 0
scalar HandoverNetwork.ap2.wlan[0].mac packetDropDuplicateDetected:vector(packetBytes):sum 0
scalar HandoverNetwork.ap2.wlan[0].mac packetDropDuplicateDetected:vector(packetBytes):sumweights 0
scalar HandoverNetwork.ap2.wlan[0].mac packetDropDuplicateDetected:vector(packetBytes):mean -nan
scalar HandoverNetwork.ap2.wlan[0].mac packetDropDuplicateDetected:vector(packetBytes):stddev nan
scalar HandoverNetwork.ap2.wlan[0].mac packetDropDuplicateDetected:vector(packetBytes):min inf
scalar HandoverNetwork.ap2.wlan[0].mac packetDropDuplicateDetected:vector(packetBytes):max -inf
scalar HandoverNetwork.ap2.wlan[0].mac packetDropDuplicateDetected:vector(packetBytes):starttime nan
scalar HandoverNetwork.ap2.wlan[0].mac packetDropDuplicateDetected:vector(packetBytes):endtime nan
scalar HandoverNetwork.ap2.wlan[0].mac packetDropOther:vector(packetBytes):count 0
scalar HandoverNetwork.ap2.wlan[0].mac packetDropOther:vector(packetBytes):sum 0
scalar HandoverNetwork.ap2.wlan[0].mac packetDropOther:vector(packetBytes):sumweights 0
scalar HandoverNetwork.ap2.wlan[0].mac packetDropOther:vector(packetBytes):mean -nan
scalar HandoverNetwork.ap2.wlan[0].mac packetDropOther:vector(packetBytes):stddev nan
scalar HandoverNetwork.ap2.wlan[0].mac packetDropOther:vector(packetBytes):min inf
scalar HandoverNetwork.ap2.wlan[0].mac packetDropOther:vector(packetBytes):max -inf
scalar HandoverNetwork.ap2.wlan[0].mac packetDropOther:vector(packetBytes):starttime nan
scalar HandoverNetwork.ap2.wlan[0].mac packetDropOther:vector(packetBytes):endtime nan
scalar HandoverNetwork.ap2.wlan[0].radio radioMode:vector:count 30185
scalar HandoverNetwork.ap2.wlan[0].radio radioMode:vector:sum 75457
scalar HandoverNetwork.ap2.wlan[0].radio radioMode:vector:sumweights 30185
scalar HandoverNetwork.ap2.wlan[0].radio radioMode:vector:mean 2.499817790293192
scalar HandoverNetwork.ap2.wlan[0].radio radioMode:vector:stddev 0.500405646405361
scalar HandoverNetwork.ap2.wlan[0].radio radioMode:vector:min 0
scalar HandoverNetwork.ap2.wlan[0].radio radioMode:vector:max 3
scalar HandoverNetwork.ap2.wlan[0].radio radioMode:vector:starttime 0
scalar HandoverNetwork.ap2.wlan[0].radio radioMode:vector:endtime 1499.9384841708222
scalar HandoverNetwork.ap2.wlan[0].radio receptionState:vector:count 30391
scalar HandoverNetwork.ap2.wlan[0].radio receptionState:vector:sum 15508
scalar HandoverNetwork.ap2.wlan[0].radio receptionState:vector:sumweights 30391
scalar HandoverNetwork.ap2.wlan[0].radio receptionState:vector:mean 0.5102826494685927
scalar HandoverNetwork.ap2.wlan[0].radio receptionState:vector:stddev 0.52003419129881379
scalar HandoverNetwork.ap2.wlan[0].radio receptionState:vector:min 0
scalar HandoverNetwork.ap2.wlan[0].radio receptionState:vector:max 3
scalar HandoverNetwork.ap2.wlan[0].radio receptionState:vector:starttime 0
scalar HandoverNetwork.ap2.wlan[0].radio receptionState:vector:endtime 1499.9384841708222
scalar HandoverNetwork.ap2.wlan[0].radio transmissionState:vector:count 60364
scalar HandoverNetwork.ap2.wlan[0].radio transmissionState:vector:sum 60364
scalar HandoverNetwork.ap2.wlan[0].radio transmissionState:vector:sumweights 60364
scalar HandoverNetwork.ap2.wlan[0].radio transmissionState:vector:mean 1
scalar HandoverNetwork.ap2.wlan[0].radio transmissionState:vector:stddev 0.70711263828321813
scalar HandoverNetwork.ap2.wlan[0].radio transmissionState:vector:min 0
scalar HandoverNetwork.ap2.wlan[0].radio transmissionState:vector:max 2
scalar HandoverNetwork.ap2.wlan[0].radio transmissionState:vector:starttime 0.03843817082200001
scalar HandoverNetwork.ap2.wlan[0].radio transmissionState:vector:endtime 1499.9384841708222
scalar HandoverNetwork.ap2.wlan[0].radio radioChannel:vector:count 1
scalar HandoverNetwork.ap2.wlan[0].radio radioChannel:vector:sum 3
scalar HandoverNetwork.ap2.wlan[0].radio radioChannel:vector:sumweights 1
scalar HandoverNetwork.ap2.wlan[0].radio radioChannel:vector:mean 3
scalar HandoverNetwork.ap2.wlan[0].radio radioChannel:vector:stddev nan
scalar HandoverNetwork.ap2.wlan[0].radio radioChannel:vector:min 3
scalar HandoverNetwork.ap2.wlan[0].radio radioChannel:vector:max 3
scalar HandoverNetwork.ap2.wlan[0].radio radioChannel:vector:starttime 0
scalar HandoverNetwork.ap2.wlan[0].radio radioChannel:vector:endtime 0
scalar HandoverNetwork.ap2.wlan[0] packetDropInterfaceDown:vector(packetBytes):count 0
scalar HandoverNetwork.ap2.wlan[0] packetDropInterfaceDown:vector(packetBytes):sum 0
scalar HandoverNetwork.ap2.wlan[0] packetDropInterfaceDown:vector(packetBytes):sumweights 0
scalar HandoverNetwork.ap2.wlan[0] packetDropInterfaceDown:vector(packetBytes):mean -nan
scalar HandoverNetwork.ap2.wlan[0] packetDropInterfaceDown:vector(packetBytes):stddev nan
scalar HandoverNetwork.ap2.wlan[0] packetDropInterfaceDown:vector(packetBytes):min inf
scalar HandoverNetwork.ap2.wlan[0] packetDropInterfaceDown:vector(packetBytes):max -inf
scalar HandoverNetwork.ap2.wlan[0] packetDropInterfaceDown:vector(packetBytes):starttime nan
scalar HandoverNetwork.ap2.wlan[0] packetDropInterfaceDown:vector(packetBytes):endtime nan
scalar HandoverNetwork.ap2.wlan[0] packetDropNoCarrier:vector(packetBytes):count 0
scalar HandoverNetwork.ap2.wlan[0] packetDropNoCarrier:vector(packetBytes):sum 0
scalar HandoverNetwork.ap2.wlan[0] packetDropNoCarrier:vector(packetBytes):sumweights 0
scalar HandoverNetwork.ap2.wlan[0] packetDropNoCarrier:vector(packetBytes):mean -nan
scalar HandoverNetwork.ap2.wlan[0] packetDropNoCarrier:vector(packetBytes):stddev nan
scalar HandoverNetwork.ap2.wlan[0] packetDropNoCarrier:vector(packetBytes):min inf
scalar HandoverNetwork.ap2.wlan[0] packetDropNoCarrier:vector(packetBytes):max -inf
scalar HandoverNetwork.ap2.wlan[0] packetDropNoCarrier:vector(packetBytes):starttime nan
scalar HandoverNetwork.ap2.wlan[0] packetDropNoCarrier:vector(packetBytes):endtime nan

