version 3
run Step10d-0-20260206-18:06:55-120869
attr configname Step10d
attr datetime 20260206-18:06:55
attr datetimef 20260206-180655
attr experiment Step10d
attr inifile omnetpp.ini
attr iterationvars ""
attr iterationvarsd ""
attr iterationvarsf ""
attr measurement ""
attr network TopologyChange
attr processid 120869
attr repetition 0
attr replication #0
attr resultdir results
attr runnumber 0
attr seedset 0
config **.param-recording false
config image-path /home/user/inet/images
config output-scalar-file results/omnetpp.ini-Step10d-#0.sca
config output-scalar-precision 17
config output-vector-file results/omnetpp.ini-Step10d-#0.vec
config output-vector-precision 17
config record-eventlog false
config sim-time-limit 1000s
config description "Router R1 (DR) goes down"
config extends Step10
config *.scenarioManager.script "xml(\"<scenario> <at t='60'> <shutdown module='R1'/> </at> </scenario>\")"
config *.R3.numApps 1
config *.R3.app[0].typename PingApp
config *.R3.app[0].destAddr "\"R6\""
config *.R3.app[0].startTime 60s
config description "Network Topology Changes"
config network TopologyChange
config *.R*.ospf.ospfConfig "xmldoc(\"ASConfig_tp_priority.xml\")"
config *.visualizer.routingTableVisualizer.displayRoutingTables true
config *.visualizer.routingTableVisualizer.destinationFilter "\"*\""
config *.visualizer.routingTableVisualizer.nodeFilter "\"R*\""
config *.*.hasStatus true
config *.scenarioManager.script "xml(\"<scenario>                                     <disconnect t='60' src-module='R4' dest-module='switch3' />                                 </scenario>\")"
config *.R3.numApps 1
config *.R3.app[0].typename PingApp
config *.R3.app[0].destAddr "\"R1\""
config *.R3.app[0].startTime 60s
config sim-time-limit 1000s
config **.ospf.cmdenv-log-level trace
config **.cmdenv-log-level off
config cmdenv-express-mode false
config *.pcapRecorder.moduleNamePatterns "\".^\""
config *.pcapRecorder.pcapFile "\"results/Step10d-0.pcap\""
config **.checksumMode "\"computed\""
config **.fcsMode "\"computed\""
config *.*.ospf.displayStringTextFormat "\"routerID: {routerID}\\n{interfaces}\""
config *.R*.hasOspf true
config *.configurator.addStaticRoutes false
config *.visualizer.interfaceTableVisualizer[0].displayInterfaceTables true
config **.visualizer.interfaceTableVisualizer.nodeFilter "\"not fullPath =~ *.N**\""
config *.visualizer.interfaceTableVisualizer.displayInterfaceTables true
config *.visualizer.numRoutingTableVisualizers 2
config *.visualizer.routingTableVisualizer[*].displayRoutingTables true
config *.visualizer.routingTableVisualizer[0].destinationFilter "\"host6\""
config *.visualizer.routingTableVisualizer[1].destinationFilter "\"host0\""
config *.visualizer.routingTableVisualizer[*].nodeFilter "\"R* and not(N*)\""
config *.visualizer.routingTableVisualizer[0].lineColor "\"blue\""
config *.visualizer.routingTableVisualizer[1].lineColor "\"red\""
config *.visualizer.routingTableVisualizer[*].labelFormat "\"%d/%m (%e) -> %g (%n)\""
config *.visualizer.routingTableVisualizer[*].lineStyle "\"dashed\""
config *.visualizer**.infoVisualizer.displayInfos true
config *.visualizer**.infoVisualizer.modules "\"**ospf\""
config *.visualizer.networkRouteVisualizer[*].displayRoutes true
config *.visualizer.networkRouteVisualizer[*].packetFilter "\"ping* or Udp*\""
config *.visualizer.networkRouteVisualizer.displayRoutes true
config *.visualizer.networkRouteVisualizer.packetFilter "\"ping* or Udp*\""

scalar TopologyChange.R2.ethernet pauseSent:count 0
scalar TopologyChange.R2.ethernet pauseSent:sum 0
scalar TopologyChange.R2.ethernet decapPk:count 1400
scalar TopologyChange.R2.ethernet decapPk:sum(packetBytes) 114728
scalar TopologyChange.R2.ethernet encapPk:count 1257
scalar TopologyChange.R2.ethernet encapPk:sum(packetBytes) 102080
scalar TopologyChange.R2.lo[0].lo rcvdPkFromHl:count 0
scalar TopologyChange.R2.lo[0].lo rcvdPkFromHl:sum(packetBytes) 0
scalar TopologyChange.R2.lo[0].lo passedUpPk:count 0
scalar TopologyChange.R2.lo[0].lo passedUpPk:sum(packetBytes) 0
scalar TopologyChange.R2.lo[0] packetDropInterfaceDown:count 0
scalar TopologyChange.R2.lo[0] packetDropInterfaceDown:sum(packetBytes) 0
scalar TopologyChange.R2.lo[0] packetDropNoCarrier:count 0
scalar TopologyChange.R2.lo[0] packetDropNoCarrier:sum(packetBytes) 0
scalar TopologyChange.R2.ppp[0].queue queueLength:last 0
scalar TopologyChange.R2.ppp[0].queue queueLength:max 4
scalar TopologyChange.R2.ppp[0].queue queueLength:timeavg 2.0719999999999995e-07
scalar TopologyChange.R2.ppp[0].queue queueBitLength:last 0
scalar TopologyChange.R2.ppp[0].queue queueBitLength:max 3840
scalar TopologyChange.R2.ppp[0].queue queueBitLength:timeavg 0.00018264063999999999
scalar TopologyChange.R2.ppp[0].queue outgoingPackets:count 1092
scalar TopologyChange.R2.ppp[0].queue outgoingPacketLengths:sum 729472
scalar TopologyChange.R2.ppp[0].queue incomingPackets:count 1092
scalar TopologyChange.R2.ppp[0].queue incomingPacketLengths:sum 729472
scalar TopologyChange.R2.ppp[0].queue droppedPacketsQueueOverflow:count 0
scalar TopologyChange.R2.ppp[0].queue droppedPacketLengthsQueueOverflow:sum 0
scalar TopologyChange.R2.ppp[0].ppp transmissionState:timeavg 7.9062400000000864e-06
scalar TopologyChange.R2.ppp[0].ppp rxPkOk:count 1065
scalar TopologyChange.R2.ppp[0].ppp rxPkOk:sum(packetBytes) 95579
scalar TopologyChange.R2.ppp[0].ppp txPk:count 1092
scalar TopologyChange.R2.ppp[0].ppp txPk:sum(packetBytes) 98828
scalar TopologyChange.R2.ppp[0].ppp rcvdPkFromHl:count 1092
scalar TopologyChange.R2.ppp[0].ppp rcvdPkFromHl:sum(packetBytes) 91184
scalar TopologyChange.R2.ppp[0].ppp passedUpPk:count 1065
scalar TopologyChange.R2.ppp[0].ppp passedUpPk:sum(packetBytes) 88124
scalar TopologyChange.R2.ppp[0].ppp packetDropIncorrectlyReceived:count 0
scalar TopologyChange.R2.ppp[0].ppp packetDropIncorrectlyReceived:sum(packetBytes) 0
scalar TopologyChange.R2.ppp[0].ppp packetDropInterfaceDown:count 0
scalar TopologyChange.R2.ppp[0].ppp packetDropInterfaceDown:sum(packetBytes) 0
scalar TopologyChange.R2.ppp[0] packetDropInterfaceDown:count 0
scalar TopologyChange.R2.ppp[0] packetDropInterfaceDown:sum(packetBytes) 0
scalar TopologyChange.R2.ppp[0] packetDropNoCarrier:count 0
scalar TopologyChange.R2.ppp[0] packetDropNoCarrier:sum(packetBytes) 0
scalar TopologyChange.R2.eth[0].queue queueLength:last 0
scalar TopologyChange.R2.eth[0].queue queueLength:max 9
scalar TopologyChange.R2.eth[0].queue queueLength:timeavg 1.5475199999999989e-06
scalar TopologyChange.R2.eth[0].queue queueBitLength:last 0
scalar TopologyChange.R2.eth[0].queue queueBitLength:max 7728
scalar TopologyChange.R2.eth[0].queue queueBitLength:timeavg 0.0012816691199999989
scalar TopologyChange.R2.eth[0].queue outgoingPackets:count 1157
scalar TopologyChange.R2.eth[0].queue outgoingPacketLengths:sum 932048
scalar TopologyChange.R2.eth[0].queue incomingPackets:count 1157
scalar TopologyChange.R2.eth[0].queue incomingPacketLengths:sum 932048
scalar TopologyChange.R2.eth[0].queue droppedPacketsQueueOverflow:count 0
scalar TopologyChange.R2.eth[0].queue droppedPacketLengthsQueueOverflow:sum 0
scalar TopologyChange.R2.eth[0].mac "simulated time" 1000
scalar TopologyChange.R2.eth[0].mac full-duplex 1
scalar TopologyChange.R2.eth[0].mac "frames/sec sent" 1.157
scalar TopologyChange.R2.eth[0].mac "frames/sec rcvd" 1.3999999999999999
scalar TopologyChange.R2.eth[0].mac "bits/sec sent" 933.63199999999995
scalar TopologyChange.R2.eth[0].mac "bits/sec rcvd" 1119.424
scalar TopologyChange.R2.eth[0].mac "rx channel idle (%)" 99.998790975999995
scalar TopologyChange.R2.eth[0].mac "rx channel utilization (%)" 0.0012090239999999999
scalar TopologyChange.R2.eth[0].mac rxPausePkUnits:count 0
scalar TopologyChange.R2.eth[0].mac rxPausePkUnits:sum 0
scalar TopologyChange.R2.eth[0].mac txPausePkUnits:count 0
scalar TopologyChange.R2.eth[0].mac txPausePkUnits:sum 0
scalar TopologyChange.R2.eth[0].mac rxPkOk:count 1400
scalar TopologyChange.R2.eth[0].mac rxPkOk:sum(packetBytes) 139928
scalar TopologyChange.R2.eth[0].mac txPk:count 1157
scalar TopologyChange.R2.eth[0].mac txPk:sum(packetBytes) 116704
scalar TopologyChange.R2.eth[0].mac packetReceivedFromUpper:count 1157
scalar TopologyChange.R2.eth[0].mac packetReceivedFromUpper:sum(packetBytes) 116506
scalar TopologyChange.R2.eth[0].mac passedUpPk:count 1400
scalar TopologyChange.R2.eth[0].mac passedUpPk:sum(packetBytes) 139928
scalar TopologyChange.R2.eth[0].mac packetDropIncorrectlyReceived:count 0
scalar TopologyChange.R2.eth[0].mac packetDropIncorrectlyReceived:sum(packetBytes) 0
scalar TopologyChange.R2.eth[0].mac packetDropInterfaceDown:count 0
scalar TopologyChange.R2.eth[0].mac packetDropInterfaceDown:sum(packetBytes) 0
scalar TopologyChange.R2.eth[0].mac packetDropNotAddressedToUs:count 0
scalar TopologyChange.R2.eth[0].mac packetDropNotAddressedToUs:sum(packetBytes) 0
scalar TopologyChange.R2.eth[0] packetDropInterfaceDown:count 0
scalar TopologyChange.R2.eth[0] packetDropInterfaceDown:sum(packetBytes) 0
scalar TopologyChange.R2.eth[0] packetDropNoCarrier:count 0
scalar TopologyChange.R2.eth[0] packetDropNoCarrier:sum(packetBytes) 0
scalar TopologyChange.R2.eth[1].queue queueLength:last 0
scalar TopologyChange.R2.eth[1].queue queueLength:max 0
scalar TopologyChange.R2.eth[1].queue queueLength:timeavg 0
scalar TopologyChange.R2.eth[1].queue queueBitLength:last 0
scalar TopologyChange.R2.eth[1].queue queueBitLength:max 0
scalar TopologyChange.R2.eth[1].queue queueBitLength:timeavg 0
scalar TopologyChange.R2.eth[1].queue outgoingPackets:count 100
scalar TopologyChange.R2.eth[1].queue outgoingPacketLengths:sum 65600
scalar TopologyChange.R2.eth[1].queue incomingPackets:count 100
scalar TopologyChange.R2.eth[1].queue incomingPacketLengths:sum 65600
scalar TopologyChange.R2.eth[1].queue droppedPacketsQueueOverflow:count 0
scalar TopologyChange.R2.eth[1].queue droppedPacketLengthsQueueOverflow:sum 0
scalar TopologyChange.R2.eth[1].mac "simulated time" 1000
scalar TopologyChange.R2.eth[1].mac full-duplex 1
scalar TopologyChange.R2.eth[1].mac "frames/sec sent" 0.10000000000000001
scalar TopologyChange.R2.eth[1].mac "frames/sec rcvd" 0
scalar TopologyChange.R2.eth[1].mac "bits/sec sent" 65.599999999999994
scalar TopologyChange.R2.eth[1].mac "bits/sec rcvd" 0
scalar TopologyChange.R2.eth[1].mac "rx channel idle (%)" 100
scalar TopologyChange.R2.eth[1].mac "rx channel utilization (%)" 0
scalar TopologyChange.R2.eth[1].mac rxPausePkUnits:count 0
scalar TopologyChange.R2.eth[1].mac rxPausePkUnits:sum 0
scalar TopologyChange.R2.eth[1].mac txPausePkUnits:count 0
scalar TopologyChange.R2.eth[1].mac txPausePkUnits:sum 0
scalar TopologyChange.R2.eth[1].mac rxPkOk:count 0
scalar TopologyChange.R2.eth[1].mac rxPkOk:sum(packetBytes) 0
scalar TopologyChange.R2.eth[1].mac txPk:count 100
scalar TopologyChange.R2.eth[1].mac txPk:sum(packetBytes) 8200
scalar TopologyChange.R2.eth[1].mac packetReceivedFromUpper:count 100
scalar TopologyChange.R2.eth[1].mac packetReceivedFromUpper:sum(packetBytes) 8200
scalar TopologyChange.R2.eth[1].mac passedUpPk:count 0
scalar TopologyChange.R2.eth[1].mac passedUpPk:sum(packetBytes) 0
scalar TopologyChange.R2.eth[1].mac packetDropIncorrectlyReceived:count 0
scalar TopologyChange.R2.eth[1].mac packetDropIncorrectlyReceived:sum(packetBytes) 0
scalar TopologyChange.R2.eth[1].mac packetDropInterfaceDown:count 0
scalar TopologyChange.R2.eth[1].mac packetDropInterfaceDown:sum(packetBytes) 0
scalar TopologyChange.R2.eth[1].mac packetDropNotAddressedToUs:count 0
scalar TopologyChange.R2.eth[1].mac packetDropNotAddressedToUs:sum(packetBytes) 0
scalar TopologyChange.R2.eth[1] packetDropInterfaceDown:count 0
scalar TopologyChange.R2.eth[1] packetDropInterfaceDown:sum(packetBytes) 0
scalar TopologyChange.R2.eth[1] packetDropNoCarrier:count 0
scalar TopologyChange.R2.eth[1] packetDropNoCarrier:sum(packetBytes) 0
scalar TopologyChange.R2.ipv4.ip packetDropAddressResolutionFailed:count 0
scalar TopologyChange.R2.ipv4.ip packetDropAddressResolutionFailed:sum(packetBytes) 0
scalar TopologyChange.R2.ipv4.ip packetDropHopLimitReached:count 0
scalar TopologyChange.R2.ipv4.ip packetDropHopLimitReached:sum(packetBytes) 0
scalar TopologyChange.R2.ipv4.ip packetDropForwardingDisabled:count 0
scalar TopologyChange.R2.ipv4.ip packetDropForwardingDisabled:sum(packetBytes) 0
scalar TopologyChange.R2.ipv4.ip packetDropLifetimeExpired:count 0
scalar TopologyChange.R2.ipv4.ip packetDropLifetimeExpired:sum(packetBytes) 0
scalar TopologyChange.R2.ipv4.ip packetDropNoInterfaceFound:count 0
scalar TopologyChange.R2.ipv4.ip packetDropNoInterfaceFound:sum(packetBytes) 0
scalar TopologyChange.R2.ipv4.ip packetDropNoRouteFound:count 0
scalar TopologyChange.R2.ipv4.ip packetDropNoRouteFound:sum(packetBytes) 0
scalar TopologyChange.R2.ipv4.ip packetDropUndefined:count 0
scalar TopologyChange.R2.ipv4.ip packetDropUndefined:sum(packetBytes) 0
scalar TopologyChange.R2.ipv4.arp arpResolutionFailed:count 0
scalar TopologyChange.R2.ipv4.arp arpResolutionCompleted:count 11
scalar TopologyChange.R2.ipv4.arp arpResolutionInitiated:count 4
scalar TopologyChange.R2.ipv4.arp arpReplySent:count 7
scalar TopologyChange.R2.ipv4.arp arpReplySent:sum(packetBytes) 196
scalar TopologyChange.R2.ipv4.arp arpRequestSent:count 4
scalar TopologyChange.R2.ipv4.arp arpRequestSent:sum(packetBytes) 112
scalar TopologyChange.switch3.bridging "processed frames" 0
scalar TopologyChange.switch3.bridging "discarded frames" 0
scalar TopologyChange.switch3.bridging "number of received BPDUs from STP module" 0
scalar TopologyChange.switch3.bridging "number of received frames from network (including BPDUs)" 100
scalar TopologyChange.switch3.bridging "number of dropped frames (including BPDUs)" 0
scalar TopologyChange.switch3.bridging "number of delivered BPDUs to the STP module" 0
scalar TopologyChange.switch3.bridging "number of dispatched BPDU frames to the network" 0
scalar TopologyChange.switch3.bridging "number of dispatched non-BDPU frames to the network" 0
scalar TopologyChange.switch3.bridging packetDropped:count 0
scalar TopologyChange.switch3.bridging packetDropped:sum(packetBytes) 0
scalar TopologyChange.switch3.ethernet pauseSent:count 0
scalar TopologyChange.switch3.ethernet pauseSent:sum 0
scalar TopologyChange.switch3.ethernet decapPk:count 100
scalar TopologyChange.switch3.ethernet decapPk:sum(packetBytes) 6400
scalar TopologyChange.switch3.ethernet encapPk:count 0
scalar TopologyChange.switch3.ethernet encapPk:sum(packetBytes) 0
scalar TopologyChange.switch3.eth[0].queue queueLength:last 0
scalar TopologyChange.switch3.eth[0].queue queueLength:max 0
scalar TopologyChange.switch3.eth[0].queue queueLength:timeavg 0
scalar TopologyChange.switch3.eth[0].queue queueBitLength:last 0
scalar TopologyChange.switch3.eth[0].queue queueBitLength:max 0
scalar TopologyChange.switch3.eth[0].queue queueBitLength:timeavg 0
scalar TopologyChange.switch3.eth[0].queue outgoingPackets:count 0
scalar TopologyChange.switch3.eth[0].queue outgoingPacketLengths:sum 0
scalar TopologyChange.switch3.eth[0].queue incomingPackets:count 0
scalar TopologyChange.switch3.eth[0].queue incomingPacketLengths:sum 0
scalar TopologyChange.switch3.eth[0].queue droppedPacketsQueueOverflow:count 0
scalar TopologyChange.switch3.eth[0].queue droppedPacketLengthsQueueOverflow:sum 0
scalar TopologyChange.switch3.eth[0].mac "simulated time" 1000
scalar TopologyChange.switch3.eth[0].mac full-duplex 1
scalar TopologyChange.switch3.eth[0].mac "frames/sec sent" 0
scalar TopologyChange.switch3.eth[0].mac "frames/sec rcvd" 0.10000000000000001
scalar TopologyChange.switch3.eth[0].mac "bits/sec sent" 0
scalar TopologyChange.switch3.eth[0].mac "bits/sec rcvd" 65.599999999999994
scalar TopologyChange.switch3.eth[0].mac "rx channel idle (%)" 99.999928000000011
scalar TopologyChange.switch3.eth[0].mac "rx channel utilization (%)" 7.2000000000000002e-05
scalar TopologyChange.switch3.eth[0].mac rxPausePkUnits:count 0
scalar TopologyChange.switch3.eth[0].mac rxPausePkUnits:sum 0
scalar TopologyChange.switch3.eth[0].mac txPausePkUnits:count 0
scalar TopologyChange.switch3.eth[0].mac txPausePkUnits:sum 0
scalar TopologyChange.switch3.eth[0].mac rxPkOk:count 100
scalar TopologyChange.switch3.eth[0].mac rxPkOk:sum(packetBytes) 8200
scalar TopologyChange.switch3.eth[0].mac txPk:count 0
scalar TopologyChange.switch3.eth[0].mac txPk:sum(packetBytes) 0
scalar TopologyChange.switch3.eth[0].mac packetReceivedFromUpper:count 0
scalar TopologyChange.switch3.eth[0].mac packetReceivedFromUpper:sum(packetBytes) 0
scalar TopologyChange.switch3.eth[0].mac passedUpPk:count 100
scalar TopologyChange.switch3.eth[0].mac passedUpPk:sum(packetBytes) 8200
scalar TopologyChange.switch3.eth[0].mac packetDropIncorrectlyReceived:count 0
scalar TopologyChange.switch3.eth[0].mac packetDropIncorrectlyReceived:sum(packetBytes) 0
scalar TopologyChange.switch3.eth[0].mac packetDropInterfaceDown:count 0
scalar TopologyChange.switch3.eth[0].mac packetDropInterfaceDown:sum(packetBytes) 0
scalar TopologyChange.switch3.eth[0].mac packetDropNotAddressedToUs:count 0
scalar TopologyChange.switch3.eth[0].mac packetDropNotAddressedToUs:sum(packetBytes) 0
scalar TopologyChange.switch3.eth[0] packetDropInterfaceDown:count 0
scalar TopologyChange.switch3.eth[0] packetDropInterfaceDown:sum(packetBytes) 0
scalar TopologyChange.switch3.eth[0] packetDropNoCarrier:count 0
scalar TopologyChange.switch3.eth[0] packetDropNoCarrier:sum(packetBytes) 0
scalar TopologyChange.R4.ethernet pauseSent:count 0
scalar TopologyChange.R4.ethernet pauseSent:sum 0
scalar TopologyChange.R4.ethernet decapPk:count 0
scalar TopologyChange.R4.ethernet decapPk:sum(packetBytes) 0
scalar TopologyChange.R4.ethernet encapPk:count 100
scalar TopologyChange.R4.ethernet encapPk:sum(packetBytes) 6400
scalar TopologyChange.R4.lo[0].lo rcvdPkFromHl:count 0
scalar TopologyChange.R4.lo[0].lo rcvdPkFromHl:sum(packetBytes) 0
scalar TopologyChange.R4.lo[0].lo passedUpPk:count 0
scalar TopologyChange.R4.lo[0].lo passedUpPk:sum(packetBytes) 0
scalar TopologyChange.R4.lo[0] packetDropInterfaceDown:count 0
scalar TopologyChange.R4.lo[0] packetDropInterfaceDown:sum(packetBytes) 0
scalar TopologyChange.R4.lo[0] packetDropNoCarrier:count 0
scalar TopologyChange.R4.lo[0] packetDropNoCarrier:sum(packetBytes) 0
scalar TopologyChange.R4.ppp[0].queue queueLength:last 0
scalar TopologyChange.R4.ppp[0].queue queueLength:max 1
scalar TopologyChange.R4.ppp[0].queue queueLength:timeavg 1.0399999999999999e-08
scalar TopologyChange.R4.ppp[0].queue queueBitLength:last 0
scalar TopologyChange.R4.ppp[0].queue queueBitLength:max 672
scalar TopologyChange.R4.ppp[0].queue queueBitLength:timeavg 6.3846399999999992e-06
scalar TopologyChange.R4.ppp[0].queue outgoingPackets:count 118
scalar TopologyChange.R4.ppp[0].queue outgoingPacketLengths:sum 68096
scalar TopologyChange.R4.ppp[0].queue incomingPackets:count 118
scalar TopologyChange.R4.ppp[0].queue incomingPacketLengths:sum 68096
scalar TopologyChange.R4.ppp[0].queue droppedPacketsQueueOverflow:count 0
scalar TopologyChange.R4.ppp[0].queue droppedPacketLengthsQueueOverflow:sum 0
scalar TopologyChange.R4.ppp[0].ppp transmissionState:timeavg 7.4704000000000111e-07
scalar TopologyChange.R4.ppp[0].ppp rxPkOk:count 145
scalar TopologyChange.R4.ppp[0].ppp rxPkOk:sum(packetBytes) 12167
scalar TopologyChange.R4.ppp[0].ppp txPk:count 118
scalar TopologyChange.R4.ppp[0].ppp txPk:sum(packetBytes) 9338
scalar TopologyChange.R4.ppp[0].ppp rcvdPkFromHl:count 118
scalar TopologyChange.R4.ppp[0].ppp rcvdPkFromHl:sum(packetBytes) 8512
scalar TopologyChange.R4.ppp[0].ppp passedUpPk:count 145
scalar TopologyChange.R4.ppp[0].ppp passedUpPk:sum(packetBytes) 11152
scalar TopologyChange.R4.ppp[0].ppp packetDropIncorrectlyReceived:count 0
scalar TopologyChange.R4.ppp[0].ppp packetDropIncorrectlyReceived:sum(packetBytes) 0
scalar TopologyChange.R4.ppp[0].ppp packetDropInterfaceDown:count 0
scalar TopologyChange.R4.ppp[0].ppp packetDropInterfaceDown:sum(packetBytes) 0
scalar TopologyChange.R4.ppp[0] packetDropInterfaceDown:count 0
scalar TopologyChange.R4.ppp[0] packetDropInterfaceDown:sum(packetBytes) 0
scalar TopologyChange.R4.ppp[0] packetDropNoCarrier:count 0
scalar TopologyChange.R4.ppp[0] packetDropNoCarrier:sum(packetBytes) 0
scalar TopologyChange.R4.eth[0].queue queueLength:last 0
scalar TopologyChange.R4.eth[0].queue queueLength:max 0
scalar TopologyChange.R4.eth[0].queue queueLength:timeavg 0
scalar TopologyChange.R4.eth[0].queue queueBitLength:last 0
scalar TopologyChange.R4.eth[0].queue queueBitLength:max 0
scalar TopologyChange.R4.eth[0].queue queueBitLength:timeavg 0
scalar TopologyChange.R4.eth[0].queue outgoingPackets:count 100
scalar TopologyChange.R4.eth[0].queue outgoingPacketLengths:sum 65600
scalar TopologyChange.R4.eth[0].queue incomingPackets:count 100
scalar TopologyChange.R4.eth[0].queue incomingPacketLengths:sum 65600
scalar TopologyChange.R4.eth[0].queue droppedPacketsQueueOverflow:count 0
scalar TopologyChange.R4.eth[0].queue droppedPacketLengthsQueueOverflow:sum 0
scalar TopologyChange.R4.eth[0].mac "simulated time" 1000
scalar TopologyChange.R4.eth[0].mac full-duplex 1
scalar TopologyChange.R4.eth[0].mac "frames/sec sent" 0.10000000000000001
scalar TopologyChange.R4.eth[0].mac "frames/sec rcvd" 0
scalar TopologyChange.R4.eth[0].mac "bits/sec sent" 65.599999999999994
scalar TopologyChange.R4.eth[0].mac "bits/sec rcvd" 0
scalar TopologyChange.R4.eth[0].mac "rx channel idle (%)" 100
scalar TopologyChange.R4.eth[0].mac "rx channel utilization (%)" 0
scalar TopologyChange.R4.eth[0].mac rxPausePkUnits:count 0
scalar TopologyChange.R4.eth[0].mac rxPausePkUnits:sum 0
scalar TopologyChange.R4.eth[0].mac txPausePkUnits:count 0
scalar TopologyChange.R4.eth[0].mac txPausePkUnits:sum 0
scalar TopologyChange.R4.eth[0].mac rxPkOk:count 0
scalar TopologyChange.R4.eth[0].mac rxPkOk:sum(packetBytes) 0
scalar TopologyChange.R4.eth[0].mac txPk:count 100
scalar TopologyChange.R4.eth[0].mac txPk:sum(packetBytes) 8200
scalar TopologyChange.R4.eth[0].mac packetReceivedFromUpper:count 100
scalar TopologyChange.R4.eth[0].mac packetReceivedFromUpper:sum(packetBytes) 8200
scalar TopologyChange.R4.eth[0].mac passedUpPk:count 0
scalar TopologyChange.R4.eth[0].mac passedUpPk:sum(packetBytes) 0
scalar TopologyChange.R4.eth[0].mac packetDropIncorrectlyReceived:count 0
scalar TopologyChange.R4.eth[0].mac packetDropIncorrectlyReceived:sum(packetBytes) 0
scalar TopologyChange.R4.eth[0].mac packetDropInterfaceDown:count 0
scalar TopologyChange.R4.eth[0].mac packetDropInterfaceDown:sum(packetBytes) 0
scalar TopologyChange.R4.eth[0].mac packetDropNotAddressedToUs:count 0
scalar TopologyChange.R4.eth[0].mac packetDropNotAddressedToUs:sum(packetBytes) 0
scalar TopologyChange.R4.eth[0] packetDropInterfaceDown:count 0
scalar TopologyChange.R4.eth[0] packetDropInterfaceDown:sum(packetBytes) 0
scalar TopologyChange.R4.eth[0] packetDropNoCarrier:count 0
scalar TopologyChange.R4.eth[0] packetDropNoCarrier:sum(packetBytes) 0
scalar TopologyChange.R4.ipv4.ip packetDropAddressResolutionFailed:count 0
scalar TopologyChange.R4.ipv4.ip packetDropAddressResolutionFailed:sum(packetBytes) 0
scalar TopologyChange.R4.ipv4.ip packetDropHopLimitReached:count 0
scalar TopologyChange.R4.ipv4.ip packetDropHopLimitReached:sum(packetBytes) 0
scalar TopologyChange.R4.ipv4.ip packetDropForwardingDisabled:count 0
scalar TopologyChange.R4.ipv4.ip packetDropForwardingDisabled:sum(packetBytes) 0
scalar TopologyChange.R4.ipv4.ip packetDropLifetimeExpired:count 0
scalar TopologyChange.R4.ipv4.ip packetDropLifetimeExpired:sum(packetBytes) 0
scalar TopologyChange.R4.ipv4.ip packetDropNoInterfaceFound:count 0
scalar TopologyChange.R4.ipv4.ip packetDropNoInterfaceFound:sum(packetBytes) 0
scalar TopologyChange.R4.ipv4.ip packetDropNoRouteFound:count 0
scalar TopologyChange.R4.ipv4.ip packetDropNoRouteFound:sum(packetBytes) 0
scalar TopologyChange.R4.ipv4.ip packetDropUndefined:count 0
scalar TopologyChange.R4.ipv4.ip packetDropUndefined:sum(packetBytes) 0
scalar TopologyChange.R4.ipv4.arp arpResolutionFailed:count 0
scalar TopologyChange.R4.ipv4.arp arpResolutionCompleted:count 0
scalar TopologyChange.R4.ipv4.arp arpResolutionInitiated:count 0
scalar TopologyChange.R4.ipv4.arp arpReplySent:count 0
scalar TopologyChange.R4.ipv4.arp arpReplySent:sum(packetBytes) 0
scalar TopologyChange.R4.ipv4.arp arpRequestSent:count 0
scalar TopologyChange.R4.ipv4.arp arpRequestSent:sum(packetBytes) 0
scalar TopologyChange.R3.ethernet pauseSent:count 0
scalar TopologyChange.R3.ethernet pauseSent:sum 0
scalar TopologyChange.R3.ethernet decapPk:count 0
scalar TopologyChange.R3.ethernet decapPk:sum(packetBytes) 0
scalar TopologyChange.R3.ethernet encapPk:count 100
scalar TopologyChange.R3.ethernet encapPk:sum(packetBytes) 6400
scalar TopologyChange.R3.lo[0].lo rcvdPkFromHl:count 0
scalar TopologyChange.R3.lo[0].lo rcvdPkFromHl:sum(packetBytes) 0
scalar TopologyChange.R3.lo[0].lo passedUpPk:count 0
scalar TopologyChange.R3.lo[0].lo passedUpPk:sum(packetBytes) 0
scalar TopologyChange.R3.lo[0] packetDropInterfaceDown:count 0
scalar TopologyChange.R3.lo[0] packetDropInterfaceDown:sum(packetBytes) 0
scalar TopologyChange.R3.lo[0] packetDropNoCarrier:count 0
scalar TopologyChange.R3.lo[0] packetDropNoCarrier:sum(packetBytes) 0
scalar TopologyChange.R3.ppp[0].queue queueLength:last 0
scalar TopologyChange.R3.ppp[0].queue queueLength:max 2
scalar TopologyChange.R3.ppp[0].queue queueLength:timeavg 5.2479999999999991e-08
scalar TopologyChange.R3.ppp[0].queue queueBitLength:last 0
scalar TopologyChange.R3.ppp[0].queue queueBitLength:max 1056
scalar TopologyChange.R3.ppp[0].queue queueBitLength:timeavg 3.6249599999999999e-05
scalar TopologyChange.R3.ppp[0].queue outgoingPackets:count 1066
scalar TopologyChange.R3.ppp[0].queue outgoingPacketLengths:sum 705664
scalar TopologyChange.R3.ppp[0].queue incomingPackets:count 1066
scalar TopologyChange.R3.ppp[0].queue incomingPacketLengths:sum 705664
scalar TopologyChange.R3.ppp[0].queue droppedPacketsQueueOverflow:count 0
scalar TopologyChange.R3.ppp[0].queue droppedPacketLengthsQueueOverflow:sum 0
scalar TopologyChange.R3.ppp[0].ppp transmissionState:timeavg 7.6463200000000827e-06
scalar TopologyChange.R3.ppp[0].ppp rxPkOk:count 1092
scalar TopologyChange.R3.ppp[0].ppp rxPkOk:sum(packetBytes) 98828
scalar TopologyChange.R3.ppp[0].ppp txPk:count 1066
scalar TopologyChange.R3.ppp[0].ppp txPk:sum(packetBytes) 95670
scalar TopologyChange.R3.ppp[0].ppp rcvdPkFromHl:count 1066
scalar TopologyChange.R3.ppp[0].ppp rcvdPkFromHl:sum(packetBytes) 88208
scalar TopologyChange.R3.ppp[0].ppp passedUpPk:count 1092
scalar TopologyChange.R3.ppp[0].ppp passedUpPk:sum(packetBytes) 91184
scalar TopologyChange.R3.ppp[0].ppp packetDropIncorrectlyReceived:count 0
scalar TopologyChange.R3.ppp[0].ppp packetDropIncorrectlyReceived:sum(packetBytes) 0
scalar TopologyChange.R3.ppp[0].ppp packetDropInterfaceDown:count 0
scalar TopologyChange.R3.ppp[0].ppp packetDropInterfaceDown:sum(packetBytes) 0
scalar TopologyChange.R3.ppp[0] packetDropInterfaceDown:count 0
scalar TopologyChange.R3.ppp[0] packetDropInterfaceDown:sum(packetBytes) 0
scalar TopologyChange.R3.ppp[0] packetDropNoCarrier:count 0
scalar TopologyChange.R3.ppp[0] packetDropNoCarrier:sum(packetBytes) 0
scalar TopologyChange.R3.ppp[1].queue queueLength:last 0
scalar TopologyChange.R3.ppp[1].queue queueLength:max 2
scalar TopologyChange.R3.ppp[1].queue queueLength:timeavg 3.2399999999999999e-08
scalar TopologyChange.R3.ppp[1].queue queueBitLength:last 0
scalar TopologyChange.R3.ppp[1].queue queueBitLength:max 1824
scalar TopologyChange.R3.ppp[1].queue queueBitLength:timeavg 2.6068479999999998e-05
scalar TopologyChange.R3.ppp[1].queue outgoingPackets:count 145
scalar TopologyChange.R3.ppp[1].queue outgoingPacketLengths:sum 89216
scalar TopologyChange.R3.ppp[1].queue incomingPackets:count 145
scalar TopologyChange.R3.ppp[1].queue incomingPacketLengths:sum 89216
scalar TopologyChange.R3.ppp[1].queue droppedPacketsQueueOverflow:count 0
scalar TopologyChange.R3.ppp[1].queue droppedPacketLengthsQueueOverflow:sum 0
scalar TopologyChange.R3.ppp[1].ppp transmissionState:timeavg 9.7336000000000299e-07
scalar TopologyChange.R3.ppp[1].ppp rxPkOk:count 118
scalar TopologyChange.R3.ppp[1].ppp rxPkOk:sum(packetBytes) 9338
scalar TopologyChange.R3.ppp[1].ppp txPk:count 145
scalar TopologyChange.R3.ppp[1].ppp txPk:sum(packetBytes) 12167
scalar TopologyChange.R3.ppp[1].ppp rcvdPkFromHl:count 145
scalar TopologyChange.R3.ppp[1].ppp rcvdPkFromHl:sum(packetBytes) 11152
scalar TopologyChange.R3.ppp[1].ppp passedUpPk:count 118
scalar TopologyChange.R3.ppp[1].ppp passedUpPk:sum(packetBytes) 8512
scalar TopologyChange.R3.ppp[1].ppp packetDropIncorrectlyReceived:count 0
scalar TopologyChange.R3.ppp[1].ppp packetDropIncorrectlyReceived:sum(packetBytes) 0
scalar TopologyChange.R3.ppp[1].ppp packetDropInterfaceDown:count 0
scalar TopologyChange.R3.ppp[1].ppp packetDropInterfaceDown:sum(packetBytes) 0
scalar TopologyChange.R3.ppp[1] packetDropInterfaceDown:count 0
scalar TopologyChange.R3.ppp[1] packetDropInterfaceDown:sum(packetBytes) 0
scalar TopologyChange.R3.ppp[1] packetDropNoCarrier:count 0
scalar TopologyChange.R3.ppp[1] packetDropNoCarrier:sum(packetBytes) 0
scalar TopologyChange.R3.eth[0].queue queueLength:last 0
scalar TopologyChange.R3.eth[0].queue queueLength:max 0
scalar TopologyChange.R3.eth[0].queue queueLength:timeavg 0
scalar TopologyChange.R3.eth[0].queue queueBitLength:last 0
scalar TopologyChange.R3.eth[0].queue queueBitLength:max 0
scalar TopologyChange.R3.eth[0].queue queueBitLength:timeavg 0
scalar TopologyChange.R3.eth[0].queue outgoingPackets:count 100
scalar TopologyChange.R3.eth[0].queue outgoingPacketLengths:sum 65600
scalar TopologyChange.R3.eth[0].queue incomingPackets:count 100
scalar TopologyChange.R3.eth[0].queue incomingPacketLengths:sum 65600
scalar TopologyChange.R3.eth[0].queue droppedPacketsQueueOverflow:count 0
scalar TopologyChange.R3.eth[0].queue droppedPacketLengthsQueueOverflow:sum 0
scalar TopologyChange.R3.eth[0].mac "simulated time" 1000
scalar TopologyChange.R3.eth[0].mac full-duplex 1
scalar TopologyChange.R3.eth[0].mac "frames/sec sent" 0.10000000000000001
scalar TopologyChange.R3.eth[0].mac "frames/sec rcvd" 0
scalar TopologyChange.R3.eth[0].mac "bits/sec sent" 65.599999999999994
scalar TopologyChange.R3.eth[0].mac "bits/sec rcvd" 0
scalar TopologyChange.R3.eth[0].mac "rx channel idle (%)" 100
scalar TopologyChange.R3.eth[0].mac "rx channel utilization (%)" 0
scalar TopologyChange.R3.eth[0].mac rxPausePkUnits:count 0
scalar TopologyChange.R3.eth[0].mac rxPausePkUnits:sum 0
scalar TopologyChange.R3.eth[0].mac txPausePkUnits:count 0
scalar TopologyChange.R3.eth[0].mac txPausePkUnits:sum 0
scalar TopologyChange.R3.eth[0].mac rxPkOk:count 0
scalar TopologyChange.R3.eth[0].mac rxPkOk:sum(packetBytes) 0
scalar TopologyChange.R3.eth[0].mac txPk:count 100
scalar TopologyChange.R3.eth[0].mac txPk:sum(packetBytes) 8200
scalar TopologyChange.R3.eth[0].mac packetReceivedFromUpper:count 100
scalar TopologyChange.R3.eth[0].mac packetReceivedFromUpper:sum(packetBytes) 8200
scalar TopologyChange.R3.eth[0].mac passedUpPk:count 0
scalar TopologyChange.R3.eth[0].mac passedUpPk:sum(packetBytes) 0
scalar TopologyChange.R3.eth[0].mac packetDropIncorrectlyReceived:count 0
scalar TopologyChange.R3.eth[0].mac packetDropIncorrectlyReceived:sum(packetBytes) 0
scalar TopologyChange.R3.eth[0].mac packetDropInterfaceDown:count 0
scalar TopologyChange.R3.eth[0].mac packetDropInterfaceDown:sum(packetBytes) 0
scalar TopologyChange.R3.eth[0].mac packetDropNotAddressedToUs:count 0
scalar TopologyChange.R3.eth[0].mac packetDropNotAddressedToUs:sum(packetBytes) 0
scalar TopologyChange.R3.eth[0] packetDropInterfaceDown:count 0
scalar TopologyChange.R3.eth[0] packetDropInterfaceDown:sum(packetBytes) 0
scalar TopologyChange.R3.eth[0] packetDropNoCarrier:count 0
scalar TopologyChange.R3.eth[0] packetDropNoCarrier:sum(packetBytes) 0
scalar TopologyChange.R3.ipv4.ip packetDropAddressResolutionFailed:count 0
scalar TopologyChange.R3.ipv4.ip packetDropAddressResolutionFailed:sum(packetBytes) 0
scalar TopologyChange.R3.ipv4.ip packetDropHopLimitReached:count 0
scalar TopologyChange.R3.ipv4.ip packetDropHopLimitReached:sum(packetBytes) 0
scalar TopologyChange.R3.ipv4.ip packetDropForwardingDisabled:count 0
scalar TopologyChange.R3.ipv4.ip packetDropForwardingDisabled:sum(packetBytes) 0
scalar TopologyChange.R3.ipv4.ip packetDropLifetimeExpired:count 0
scalar TopologyChange.R3.ipv4.ip packetDropLifetimeExpired:sum(packetBytes) 0
scalar TopologyChange.R3.ipv4.ip packetDropNoInterfaceFound:count 0
scalar TopologyChange.R3.ipv4.ip packetDropNoInterfaceFound:sum(packetBytes) 0
scalar TopologyChange.R3.ipv4.ip packetDropNoRouteFound:count 0
scalar TopologyChange.R3.ipv4.ip packetDropNoRouteFound:sum(packetBytes) 0
scalar TopologyChange.R3.ipv4.ip packetDropUndefined:count 0
scalar TopologyChange.R3.ipv4.ip packetDropUndefined:sum(packetBytes) 0
scalar TopologyChange.R3.ipv4.arp arpResolutionFailed:count 0
scalar TopologyChange.R3.ipv4.arp arpResolutionCompleted:count 0
scalar TopologyChange.R3.ipv4.arp arpResolutionInitiated:count 0
scalar TopologyChange.R3.ipv4.arp arpReplySent:count 0
scalar TopologyChange.R3.ipv4.arp arpReplySent:sum(packetBytes) 0
scalar TopologyChange.R3.ipv4.arp arpRequestSent:count 0
scalar TopologyChange.R3.ipv4.arp arpRequestSent:sum(packetBytes) 0
scalar TopologyChange.R3.app[0] "Pings sent" 941
scalar TopologyChange.R3.app[0] "ping loss rate (%)" 0.10626992561105207
scalar TopologyChange.R3.app[0] "ping out-of-order rate (%)" 0
scalar TopologyChange.R3.app[0] pingRxSeq:count 940
scalar TopologyChange.R3.app[0] pingTxSeq:count 941
scalar TopologyChange.R3.app[0] numOutOfOrderArrivals:last nan
scalar TopologyChange.R3.app[0] numLost:last nan
scalar TopologyChange.switch2.bridging "processed frames" 0
scalar TopologyChange.switch2.bridging "discarded frames" 0
scalar TopologyChange.switch2.bridging "number of received BPDUs from STP module" 0
scalar TopologyChange.switch2.bridging "number of received frames from network (including BPDUs)" 2620
scalar TopologyChange.switch2.bridging "number of dropped frames (including BPDUs)" 0
scalar TopologyChange.switch2.bridging "number of delivered BPDUs to the STP module" 0
scalar TopologyChange.switch2.bridging "number of dispatched BPDU frames to the network" 0
scalar TopologyChange.switch2.bridging "number of dispatched non-BDPU frames to the network" 0
scalar TopologyChange.switch2.bridging packetDropped:count 0
scalar TopologyChange.switch2.bridging packetDropped:sum(packetBytes) 0
scalar TopologyChange.switch2.ethernet pauseSent:count 0
scalar TopologyChange.switch2.ethernet pauseSent:sum 0
scalar TopologyChange.switch2.ethernet decapPk:count 2620
scalar TopologyChange.switch2.ethernet decapPk:sum(packetBytes) 215616
scalar TopologyChange.switch2.ethernet encapPk:count 3782
scalar TopologyChange.switch2.ethernet encapPk:sum(packetBytes) 306752
scalar TopologyChange.switch2.eth[0].queue queueLength:last 0
scalar TopologyChange.switch2.eth[0].queue queueLength:max 18
scalar TopologyChange.switch2.eth[0].queue queueLength:timeavg 7.5565799999999984e-06
scalar TopologyChange.switch2.eth[0].queue queueBitLength:last 0
scalar TopologyChange.switch2.eth[0].queue queueBitLength:max 12832
scalar TopologyChange.switch2.eth[0].queue queueBitLength:timeavg 0.0058144463999999967
scalar TopologyChange.switch2.eth[0].queue outgoingPackets:count 1400
scalar TopologyChange.switch2.eth[0].queue outgoingPacketLengths:sum 1119424
scalar TopologyChange.switch2.eth[0].queue incomingPackets:count 1400
scalar TopologyChange.switch2.eth[0].queue incomingPacketLengths:sum 1119424
scalar TopologyChange.switch2.eth[0].queue droppedPacketsQueueOverflow:count 0
scalar TopologyChange.switch2.eth[0].queue droppedPacketLengthsQueueOverflow:sum 0
scalar TopologyChange.switch2.eth[0].mac "simulated time" 1000
scalar TopologyChange.switch2.eth[0].mac full-duplex 1
scalar TopologyChange.switch2.eth[0].mac "frames/sec sent" 1.3999999999999999
scalar TopologyChange.switch2.eth[0].mac "frames/sec rcvd" 1.157
scalar TopologyChange.switch2.eth[0].mac "bits/sec sent" 1119.424
scalar TopologyChange.switch2.eth[0].mac "bits/sec rcvd" 933.63199999999995
scalar TopologyChange.switch2.eth[0].mac "rx channel idle (%)" 99.998992319999999
scalar TopologyChange.switch2.eth[0].mac "rx channel utilization (%)" 0.0010076799999999999
scalar TopologyChange.switch2.eth[0].mac rxPausePkUnits:count 0
scalar TopologyChange.switch2.eth[0].mac rxPausePkUnits:sum 0
scalar TopologyChange.switch2.eth[0].mac txPausePkUnits:count 0
scalar TopologyChange.switch2.eth[0].mac txPausePkUnits:sum 0
scalar TopologyChange.switch2.eth[0].mac rxPkOk:count 1157
scalar TopologyChange.switch2.eth[0].mac rxPkOk:sum(packetBytes) 116704
scalar TopologyChange.switch2.eth[0].mac txPk:count 1400
scalar TopologyChange.switch2.eth[0].mac txPk:sum(packetBytes) 139928
scalar TopologyChange.switch2.eth[0].mac packetReceivedFromUpper:count 1400
scalar TopologyChange.switch2.eth[0].mac packetReceivedFromUpper:sum(packetBytes) 139928
scalar TopologyChange.switch2.eth[0].mac passedUpPk:count 1157
scalar TopologyChange.switch2.eth[0].mac passedUpPk:sum(packetBytes) 116704
scalar TopologyChange.switch2.eth[0].mac packetDropIncorrectlyReceived:count 0
scalar TopologyChange.switch2.eth[0].mac packetDropIncorrectlyReceived:sum(packetBytes) 0
scalar TopologyChange.switch2.eth[0].mac packetDropInterfaceDown:count 0
scalar TopologyChange.switch2.eth[0].mac packetDropInterfaceDown:sum(packetBytes) 0
scalar TopologyChange.switch2.eth[0].mac packetDropNotAddressedToUs:count 0
scalar TopologyChange.switch2.eth[0].mac packetDropNotAddressedToUs:sum(packetBytes) 0
scalar TopologyChange.switch2.eth[0] packetDropInterfaceDown:count 0
scalar TopologyChange.switch2.eth[0] packetDropInterfaceDown:sum(packetBytes) 0
scalar TopologyChange.switch2.eth[0] packetDropNoCarrier:count 0
scalar TopologyChange.switch2.eth[0] packetDropNoCarrier:sum(packetBytes) 0
scalar TopologyChange.switch2.eth[1].queue queueLength:last 0
scalar TopologyChange.switch2.eth[1].queue queueLength:max 22
scalar TopologyChange.switch2.eth[1].queue queueLength:timeavg 7.9595200000000105e-06
scalar TopologyChange.switch2.eth[1].queue queueBitLength:last 0
scalar TopologyChange.switch2.eth[1].queue queueBitLength:max 15904
scalar TopologyChange.switch2.eth[1].queue queueBitLength:timeavg 0.0060952694400000012
scalar TopologyChange.switch2.eth[1].queue outgoingPackets:count 532
scalar TopologyChange.switch2.eth[1].queue outgoingPacketLengths:sum 406624
scalar TopologyChange.switch2.eth[1].queue incomingPackets:count 532
scalar TopologyChange.switch2.eth[1].queue incomingPacketLengths:sum 406624
scalar TopologyChange.switch2.eth[1].queue droppedPacketsQueueOverflow:count 0
scalar TopologyChange.switch2.eth[1].queue droppedPacketLengthsQueueOverflow:sum 0
scalar TopologyChange.switch2.eth[1].mac "simulated time" 1000
scalar TopologyChange.switch2.eth[1].mac full-duplex 1
scalar TopologyChange.switch2.eth[1].mac "frames/sec sent" 0.53200000000000003
scalar TopologyChange.switch2.eth[1].mac "frames/sec rcvd" 0.115
scalar TopologyChange.switch2.eth[1].mac "bits/sec sent" 406.62400000000002
scalar TopologyChange.switch2.eth[1].mac "bits/sec rcvd" 93.408000000000001
scalar TopologyChange.switch2.eth[1].mac "rx channel idle (%)" 99.999899232000004
scalar TopologyChange.switch2.eth[1].mac "rx channel utilization (%)" 0.00010076799999999999
scalar TopologyChange.switch2.eth[1].mac rxPausePkUnits:count 0
scalar TopologyChange.switch2.eth[1].mac rxPausePkUnits:sum 0
scalar TopologyChange.switch2.eth[1].mac txPausePkUnits:count 0
scalar TopologyChange.switch2.eth[1].mac txPausePkUnits:sum 0
scalar TopologyChange.switch2.eth[1].mac rxPkOk:count 115
scalar TopologyChange.switch2.eth[1].mac rxPkOk:sum(packetBytes) 11676
scalar TopologyChange.switch2.eth[1].mac txPk:count 532
scalar TopologyChange.switch2.eth[1].mac txPk:sum(packetBytes) 50828
scalar TopologyChange.switch2.eth[1].mac packetReceivedFromUpper:count 532
scalar TopologyChange.switch2.eth[1].mac packetReceivedFromUpper:sum(packetBytes) 50828
scalar TopologyChange.switch2.eth[1].mac passedUpPk:count 115
scalar TopologyChange.switch2.eth[1].mac passedUpPk:sum(packetBytes) 11676
scalar TopologyChange.switch2.eth[1].mac packetDropIncorrectlyReceived:count 0
scalar TopologyChange.switch2.eth[1].mac packetDropIncorrectlyReceived:sum(packetBytes) 0
scalar TopologyChange.switch2.eth[1].mac packetDropInterfaceDown:count 0
scalar TopologyChange.switch2.eth[1].mac packetDropInterfaceDown:sum(packetBytes) 0
scalar TopologyChange.switch2.eth[1].mac packetDropNotAddressedToUs:count 0
scalar TopologyChange.switch2.eth[1].mac packetDropNotAddressedToUs:sum(packetBytes) 0
scalar TopologyChange.switch2.eth[1] packetDropInterfaceDown:count 0
scalar TopologyChange.switch2.eth[1] packetDropInterfaceDown:sum(packetBytes) 0
scalar TopologyChange.switch2.eth[1] packetDropNoCarrier:count 0
scalar TopologyChange.switch2.eth[1] packetDropNoCarrier:sum(packetBytes) 0
scalar TopologyChange.switch2.eth[2].queue queueLength:last 0
scalar TopologyChange.switch2.eth[2].queue queueLength:max 23
scalar TopologyChange.switch2.eth[2].queue queueLength:timeavg 1.0136959999999993e-05
scalar TopologyChange.switch2.eth[2].queue queueBitLength:last 0
scalar TopologyChange.switch2.eth[2].queue queueBitLength:max 16560
scalar TopologyChange.switch2.eth[2].queue queueBitLength:timeavg 0.0077842022399999987
scalar TopologyChange.switch2.eth[2].queue outgoingPackets:count 448
scalar TopologyChange.switch2.eth[2].queue outgoingPacketLengths:sum 348000
scalar TopologyChange.switch2.eth[2].queue incomingPackets:count 448
scalar TopologyChange.switch2.eth[2].queue incomingPacketLengths:sum 348000
scalar TopologyChange.switch2.eth[2].queue droppedPacketsQueueOverflow:count 0
scalar TopologyChange.switch2.eth[2].queue droppedPacketLengthsQueueOverflow:sum 0
scalar TopologyChange.switch2.eth[2].mac "simulated time" 1000
scalar TopologyChange.switch2.eth[2].mac full-duplex 1
scalar TopologyChange.switch2.eth[2].mac "frames/sec sent" 0.44800000000000001
scalar TopologyChange.switch2.eth[2].mac "frames/sec rcvd" 0.20300000000000001
scalar TopologyChange.switch2.eth[2].mac "bits/sec sent" 348
scalar TopologyChange.switch2.eth[2].mac "bits/sec rcvd" 155.36000000000001
scalar TopologyChange.switch2.eth[2].mac "rx channel idle (%)" 99.999831647999997
scalar TopologyChange.switch2.eth[2].mac "rx channel utilization (%)" 0.000168352
scalar TopologyChange.switch2.eth[2].mac rxPausePkUnits:count 0
scalar TopologyChange.switch2.eth[2].mac rxPausePkUnits:sum 0
scalar TopologyChange.switch2.eth[2].mac txPausePkUnits:count 0
scalar TopologyChange.switch2.eth[2].mac txPausePkUnits:sum 0
scalar TopologyChange.switch2.eth[2].mac rxPkOk:count 203
scalar TopologyChange.switch2.eth[2].mac rxPkOk:sum(packetBytes) 19420
scalar TopologyChange.switch2.eth[2].mac txPk:count 448
scalar TopologyChange.switch2.eth[2].mac txPk:sum(packetBytes) 43500
scalar TopologyChange.switch2.eth[2].mac packetReceivedFromUpper:count 448
scalar TopologyChange.switch2.eth[2].mac packetReceivedFromUpper:sum(packetBytes) 43500
scalar TopologyChange.switch2.eth[2].mac passedUpPk:count 203
scalar TopologyChange.switch2.eth[2].mac passedUpPk:sum(packetBytes) 19420
scalar TopologyChange.switch2.eth[2].mac packetDropIncorrectlyReceived:count 0
scalar TopologyChange.switch2.eth[2].mac packetDropIncorrectlyReceived:sum(packetBytes) 0
scalar TopologyChange.switch2.eth[2].mac packetDropInterfaceDown:count 0
scalar TopologyChange.switch2.eth[2].mac packetDropInterfaceDown:sum(packetBytes) 0
scalar TopologyChange.switch2.eth[2].mac packetDropNotAddressedToUs:count 0
scalar TopologyChange.switch2.eth[2].mac packetDropNotAddressedToUs:sum(packetBytes) 0
scalar TopologyChange.switch2.eth[2] packetDropInterfaceDown:count 0
scalar TopologyChange.switch2.eth[2] packetDropInterfaceDown:sum(packetBytes) 0
scalar TopologyChange.switch2.eth[2] packetDropNoCarrier:count 0
scalar TopologyChange.switch2.eth[2] packetDropNoCarrier:sum(packetBytes) 0
scalar TopologyChange.switch2.eth[3].queue queueLength:last 0
scalar TopologyChange.switch2.eth[3].queue queueLength:max 25
scalar TopologyChange.switch2.eth[3].queue queueLength:timeavg 1.0808060000000001e-05
scalar TopologyChange.switch2.eth[3].queue queueBitLength:last 0
scalar TopologyChange.switch2.eth[3].queue queueBitLength:max 17984
scalar TopologyChange.switch2.eth[3].queue queueBitLength:timeavg 0.0082494768000000041
scalar TopologyChange.switch2.eth[3].queue outgoingPackets:count 1402
scalar TopologyChange.switch2.eth[3].queue outgoingPacketLengths:sum 1124576
scalar TopologyChange.switch2.eth[3].queue incomingPackets:count 1402
scalar TopologyChange.switch2.eth[3].queue incomingPacketLengths:sum 1124576
scalar TopologyChange.switch2.eth[3].queue droppedPacketsQueueOverflow:count 0
scalar TopologyChange.switch2.eth[3].queue droppedPacketLengthsQueueOverflow:sum 0
scalar TopologyChange.switch2.eth[3].mac "simulated time" 1000
scalar TopologyChange.switch2.eth[3].mac full-duplex 1
scalar TopologyChange.switch2.eth[3].mac "frames/sec sent" 1.4019999999999999
scalar TopologyChange.switch2.eth[3].mac "frames/sec rcvd" 1.145
scalar TopologyChange.switch2.eth[3].mac "bits/sec sent" 1124.576
scalar TopologyChange.switch2.eth[3].mac "bits/sec rcvd" 919.80799999999999
scalar TopologyChange.switch2.eth[3].mac "rx channel idle (%)" 99.999006911999999
scalar TopologyChange.switch2.eth[3].mac "rx channel utilization (%)" 0.00099308800000000004
scalar TopologyChange.switch2.eth[3].mac rxPausePkUnits:count 0
scalar TopologyChange.switch2.eth[3].mac rxPausePkUnits:sum 0
scalar TopologyChange.switch2.eth[3].mac txPausePkUnits:count 0
scalar TopologyChange.switch2.eth[3].mac txPausePkUnits:sum 0
scalar TopologyChange.switch2.eth[3].mac rxPkOk:count 1145
scalar TopologyChange.switch2.eth[3].mac rxPkOk:sum(packetBytes) 114976
scalar TopologyChange.switch2.eth[3].mac txPk:count 1402
scalar TopologyChange.switch2.eth[3].mac txPk:sum(packetBytes) 140572
scalar TopologyChange.switch2.eth[3].mac packetReceivedFromUpper:count 1402
scalar TopologyChange.switch2.eth[3].mac packetReceivedFromUpper:sum(packetBytes) 140572
scalar TopologyChange.switch2.eth[3].mac passedUpPk:count 1145
scalar TopologyChange.switch2.eth[3].mac passedUpPk:sum(packetBytes) 114976
scalar TopologyChange.switch2.eth[3].mac packetDropIncorrectlyReceived:count 0
scalar TopologyChange.switch2.eth[3].mac packetDropIncorrectlyReceived:sum(packetBytes) 0
scalar TopologyChange.switch2.eth[3].mac packetDropInterfaceDown:count 0
scalar TopologyChange.switch2.eth[3].mac packetDropInterfaceDown:sum(packetBytes) 0
scalar TopologyChange.switch2.eth[3].mac packetDropNotAddressedToUs:count 0
scalar TopologyChange.switch2.eth[3].mac packetDropNotAddressedToUs:sum(packetBytes) 0
scalar TopologyChange.switch2.eth[3] packetDropInterfaceDown:count 0
scalar TopologyChange.switch2.eth[3] packetDropInterfaceDown:sum(packetBytes) 0
scalar TopologyChange.switch2.eth[3] packetDropNoCarrier:count 0
scalar TopologyChange.switch2.eth[3] packetDropNoCarrier:sum(packetBytes) 0
scalar TopologyChange.switch5.bridging "processed frames" 0
scalar TopologyChange.switch5.bridging "discarded frames" 0
scalar TopologyChange.switch5.bridging "number of received BPDUs from STP module" 0
scalar TopologyChange.switch5.bridging "number of received frames from network (including BPDUs)" 100
scalar TopologyChange.switch5.bridging "number of dropped frames (including BPDUs)" 0
scalar TopologyChange.switch5.bridging "number of delivered BPDUs to the STP module" 0
scalar TopologyChange.switch5.bridging "number of dispatched BPDU frames to the network" 0
scalar TopologyChange.switch5.bridging "number of dispatched non-BDPU frames to the network" 0
scalar TopologyChange.switch5.bridging packetDropped:count 0
scalar TopologyChange.switch5.bridging packetDropped:sum(packetBytes) 0
scalar TopologyChange.switch5.ethernet pauseSent:count 0
scalar TopologyChange.switch5.ethernet pauseSent:sum 0
scalar TopologyChange.switch5.ethernet decapPk:count 100
scalar TopologyChange.switch5.ethernet decapPk:sum(packetBytes) 6400
scalar TopologyChange.switch5.ethernet encapPk:count 0
scalar TopologyChange.switch5.ethernet encapPk:sum(packetBytes) 0
scalar TopologyChange.switch5.eth[0].queue queueLength:last 0
scalar TopologyChange.switch5.eth[0].queue queueLength:max 0
scalar TopologyChange.switch5.eth[0].queue queueLength:timeavg 0
scalar TopologyChange.switch5.eth[0].queue queueBitLength:last 0
scalar TopologyChange.switch5.eth[0].queue queueBitLength:max 0
scalar TopologyChange.switch5.eth[0].queue queueBitLength:timeavg 0
scalar TopologyChange.switch5.eth[0].queue outgoingPackets:count 0
scalar TopologyChange.switch5.eth[0].queue outgoingPacketLengths:sum 0
scalar TopologyChange.switch5.eth[0].queue incomingPackets:count 0
scalar TopologyChange.switch5.eth[0].queue incomingPacketLengths:sum 0
scalar TopologyChange.switch5.eth[0].queue droppedPacketsQueueOverflow:count 0
scalar TopologyChange.switch5.eth[0].queue droppedPacketLengthsQueueOverflow:sum 0
scalar TopologyChange.switch5.eth[0].mac "simulated time" 1000
scalar TopologyChange.switch5.eth[0].mac full-duplex 1
scalar TopologyChange.switch5.eth[0].mac "frames/sec sent" 0
scalar TopologyChange.switch5.eth[0].mac "frames/sec rcvd" 0.10000000000000001
scalar TopologyChange.switch5.eth[0].mac "bits/sec sent" 0
scalar TopologyChange.switch5.eth[0].mac "bits/sec rcvd" 65.599999999999994
scalar TopologyChange.switch5.eth[0].mac "rx channel idle (%)" 99.999928000000011
scalar TopologyChange.switch5.eth[0].mac "rx channel utilization (%)" 7.2000000000000002e-05
scalar TopologyChange.switch5.eth[0].mac rxPausePkUnits:count 0
scalar TopologyChange.switch5.eth[0].mac rxPausePkUnits:sum 0
scalar TopologyChange.switch5.eth[0].mac txPausePkUnits:count 0
scalar TopologyChange.switch5.eth[0].mac txPausePkUnits:sum 0
scalar TopologyChange.switch5.eth[0].mac rxPkOk:count 100
scalar TopologyChange.switch5.eth[0].mac rxPkOk:sum(packetBytes) 8200
scalar TopologyChange.switch5.eth[0].mac txPk:count 0
scalar TopologyChange.switch5.eth[0].mac txPk:sum(packetBytes) 0
scalar TopologyChange.switch5.eth[0].mac packetReceivedFromUpper:count 0
scalar TopologyChange.switch5.eth[0].mac packetReceivedFromUpper:sum(packetBytes) 0
scalar TopologyChange.switch5.eth[0].mac passedUpPk:count 100
scalar TopologyChange.switch5.eth[0].mac passedUpPk:sum(packetBytes) 8200
scalar TopologyChange.switch5.eth[0].mac packetDropIncorrectlyReceived:count 0
scalar TopologyChange.switch5.eth[0].mac packetDropIncorrectlyReceived:sum(packetBytes) 0
scalar TopologyChange.switch5.eth[0].mac packetDropInterfaceDown:count 0
scalar TopologyChange.switch5.eth[0].mac packetDropInterfaceDown:sum(packetBytes) 0
scalar TopologyChange.switch5.eth[0].mac packetDropNotAddressedToUs:count 0
scalar TopologyChange.switch5.eth[0].mac packetDropNotAddressedToUs:sum(packetBytes) 0
scalar TopologyChange.switch5.eth[0] packetDropInterfaceDown:count 0
scalar TopologyChange.switch5.eth[0] packetDropInterfaceDown:sum(packetBytes) 0
scalar TopologyChange.switch5.eth[0] packetDropNoCarrier:count 0
scalar TopologyChange.switch5.eth[0] packetDropNoCarrier:sum(packetBytes) 0
scalar TopologyChange.R1.ethernet pauseSent:count 0
scalar TopologyChange.R1.ethernet pauseSent:sum 0
scalar TopologyChange.R1.ethernet decapPk:count 218
scalar TopologyChange.R1.ethernet decapPk:sum(packetBytes) 18324
scalar TopologyChange.R1.ethernet encapPk:count 121
scalar TopologyChange.R1.ethernet encapPk:sum(packetBytes) 9936
scalar TopologyChange.R1.lo[0].lo rcvdPkFromHl:count 0
scalar TopologyChange.R1.lo[0].lo rcvdPkFromHl:sum(packetBytes) 0
scalar TopologyChange.R1.lo[0].lo passedUpPk:count 0
scalar TopologyChange.R1.lo[0].lo passedUpPk:sum(packetBytes) 0
scalar TopologyChange.R1.lo[0] packetDropInterfaceDown:count 0
scalar TopologyChange.R1.lo[0] packetDropInterfaceDown:sum(packetBytes) 0
scalar TopologyChange.R1.lo[0] packetDropNoCarrier:count 0
scalar TopologyChange.R1.lo[0] packetDropNoCarrier:sum(packetBytes) 0
scalar TopologyChange.R1.eth[0].queue queueLength:last 0
scalar TopologyChange.R1.eth[0].queue queueLength:max 6
scalar TopologyChange.R1.eth[0].queue queueLength:timeavg 1.1228399999999995e-06
scalar TopologyChange.R1.eth[0].queue queueBitLength:last 0
scalar TopologyChange.R1.eth[0].queue queueBitLength:max 5280
scalar TopologyChange.R1.eth[0].queue queueBitLength:timeavg 0.0010439948800000003
scalar TopologyChange.R1.eth[0].queue outgoingPackets:count 115
scalar TopologyChange.R1.eth[0].queue outgoingPacketLengths:sum 92976
scalar TopologyChange.R1.eth[0].queue incomingPackets:count 115
scalar TopologyChange.R1.eth[0].queue incomingPacketLengths:sum 92976
scalar TopologyChange.R1.eth[0].queue droppedPacketsQueueOverflow:count 0
scalar TopologyChange.R1.eth[0].queue droppedPacketLengthsQueueOverflow:sum 0
scalar TopologyChange.R1.eth[0].mac "simulated time" 1000
scalar TopologyChange.R1.eth[0].mac full-duplex 1
scalar TopologyChange.R1.eth[0].mac "frames/sec sent" 0.115
scalar TopologyChange.R1.eth[0].mac "frames/sec rcvd" 0.218
scalar TopologyChange.R1.eth[0].mac "bits/sec sent" 93.408000000000001
scalar TopologyChange.R1.eth[0].mac "bits/sec rcvd" 177.98400000000001
scalar TopologyChange.R1.eth[0].mac "rx channel idle (%)" 99.999808063999993
scalar TopologyChange.R1.eth[0].mac "rx channel utilization (%)" 0.000191936
scalar TopologyChange.R1.eth[0].mac rxPausePkUnits:count 0
scalar TopologyChange.R1.eth[0].mac rxPausePkUnits:sum 0
scalar TopologyChange.R1.eth[0].mac txPausePkUnits:count 0
scalar TopologyChange.R1.eth[0].mac txPausePkUnits:sum 0
scalar TopologyChange.R1.eth[0].mac rxPkOk:count 218
scalar TopologyChange.R1.eth[0].mac rxPkOk:sum(packetBytes) 22248
scalar TopologyChange.R1.eth[0].mac txPk:count 115
scalar TopologyChange.R1.eth[0].mac txPk:sum(packetBytes) 11676
scalar TopologyChange.R1.eth[0].mac packetReceivedFromUpper:count 115
scalar TopologyChange.R1.eth[0].mac packetReceivedFromUpper:sum(packetBytes) 11622
scalar TopologyChange.R1.eth[0].mac passedUpPk:count 218
scalar TopologyChange.R1.eth[0].mac passedUpPk:sum(packetBytes) 22248
scalar TopologyChange.R1.eth[0].mac packetDropIncorrectlyReceived:count 0
scalar TopologyChange.R1.eth[0].mac packetDropIncorrectlyReceived:sum(packetBytes) 0
scalar TopologyChange.R1.eth[0].mac packetDropInterfaceDown:count 0
scalar TopologyChange.R1.eth[0].mac packetDropInterfaceDown:sum(packetBytes) 0
scalar TopologyChange.R1.eth[0].mac packetDropNotAddressedToUs:count 0
scalar TopologyChange.R1.eth[0].mac packetDropNotAddressedToUs:sum(packetBytes) 0
scalar TopologyChange.R1.eth[0] packetDropInterfaceDown:count 0
scalar TopologyChange.R1.eth[0] packetDropInterfaceDown:sum(packetBytes) 0
scalar TopologyChange.R1.eth[0] packetDropNoCarrier:count 0
scalar TopologyChange.R1.eth[0] packetDropNoCarrier:sum(packetBytes) 0
scalar TopologyChange.R1.eth[1].queue queueLength:last 0
scalar TopologyChange.R1.eth[1].queue queueLength:max 0
scalar TopologyChange.R1.eth[1].queue queueLength:timeavg 0
scalar TopologyChange.R1.eth[1].queue queueBitLength:last 0
scalar TopologyChange.R1.eth[1].queue queueBitLength:max 0
scalar TopologyChange.R1.eth[1].queue queueBitLength:timeavg 0
scalar TopologyChange.R1.eth[1].queue outgoingPackets:count 6
scalar TopologyChange.R1.eth[1].queue outgoingPacketLengths:sum 3936
scalar TopologyChange.R1.eth[1].queue incomingPackets:count 6
scalar TopologyChange.R1.eth[1].queue incomingPacketLengths:sum 3936
scalar TopologyChange.R1.eth[1].queue droppedPacketsQueueOverflow:count 0
scalar TopologyChange.R1.eth[1].queue droppedPacketLengthsQueueOverflow:sum 0
scalar TopologyChange.R1.eth[1].mac "simulated time" 1000
scalar TopologyChange.R1.eth[1].mac full-duplex 1
scalar TopologyChange.R1.eth[1].mac "frames/sec sent" 0.0060000000000000001
scalar TopologyChange.R1.eth[1].mac "frames/sec rcvd" 0
scalar TopologyChange.R1.eth[1].mac "bits/sec sent" 3.9359999999999999
scalar TopologyChange.R1.eth[1].mac "bits/sec rcvd" 0
scalar TopologyChange.R1.eth[1].mac "rx channel idle (%)" 100
scalar TopologyChange.R1.eth[1].mac "rx channel utilization (%)" 0
scalar TopologyChange.R1.eth[1].mac rxPausePkUnits:count 0
scalar TopologyChange.R1.eth[1].mac rxPausePkUnits:sum 0
scalar TopologyChange.R1.eth[1].mac txPausePkUnits:count 0
scalar TopologyChange.R1.eth[1].mac txPausePkUnits:sum 0
scalar TopologyChange.R1.eth[1].mac rxPkOk:count 0
scalar TopologyChange.R1.eth[1].mac rxPkOk:sum(packetBytes) 0
scalar TopologyChange.R1.eth[1].mac txPk:count 6
scalar TopologyChange.R1.eth[1].mac txPk:sum(packetBytes) 492
scalar TopologyChange.R1.eth[1].mac packetReceivedFromUpper:count 6
scalar TopologyChange.R1.eth[1].mac packetReceivedFromUpper:sum(packetBytes) 492
scalar TopologyChange.R1.eth[1].mac passedUpPk:count 0
scalar TopologyChange.R1.eth[1].mac passedUpPk:sum(packetBytes) 0
scalar TopologyChange.R1.eth[1].mac packetDropIncorrectlyReceived:count 0
scalar TopologyChange.R1.eth[1].mac packetDropIncorrectlyReceived:sum(packetBytes) 0
scalar TopologyChange.R1.eth[1].mac packetDropInterfaceDown:count 0
scalar TopologyChange.R1.eth[1].mac packetDropInterfaceDown:sum(packetBytes) 0
scalar TopologyChange.R1.eth[1].mac packetDropNotAddressedToUs:count 0
scalar TopologyChange.R1.eth[1].mac packetDropNotAddressedToUs:sum(packetBytes) 0
scalar TopologyChange.R1.eth[1] packetDropInterfaceDown:count 0
scalar TopologyChange.R1.eth[1] packetDropInterfaceDown:sum(packetBytes) 0
scalar TopologyChange.R1.eth[1] packetDropNoCarrier:count 0
scalar TopologyChange.R1.eth[1] packetDropNoCarrier:sum(packetBytes) 0
scalar TopologyChange.R1.ipv4.ip packetDropAddressResolutionFailed:count 0
scalar TopologyChange.R1.ipv4.ip packetDropAddressResolutionFailed:sum(packetBytes) 0
scalar TopologyChange.R1.ipv4.ip packetDropHopLimitReached:count 0
scalar TopologyChange.R1.ipv4.ip packetDropHopLimitReached:sum(packetBytes) 0
scalar TopologyChange.R1.ipv4.ip packetDropForwardingDisabled:count 0
scalar TopologyChange.R1.ipv4.ip packetDropForwardingDisabled:sum(packetBytes) 0
scalar TopologyChange.R1.ipv4.ip packetDropLifetimeExpired:count 0
scalar TopologyChange.R1.ipv4.ip packetDropLifetimeExpired:sum(packetBytes) 0
scalar TopologyChange.R1.ipv4.ip packetDropNoInterfaceFound:count 0
scalar TopologyChange.R1.ipv4.ip packetDropNoInterfaceFound:sum(packetBytes) 0
scalar TopologyChange.R1.ipv4.ip packetDropNoRouteFound:count 0
scalar TopologyChange.R1.ipv4.ip packetDropNoRouteFound:sum(packetBytes) 0
scalar TopologyChange.R1.ipv4.ip packetDropUndefined:count 0
scalar TopologyChange.R1.ipv4.ip packetDropUndefined:sum(packetBytes) 0
scalar TopologyChange.R1.ipv4.arp arpResolutionFailed:count 0
scalar TopologyChange.R1.ipv4.arp arpResolutionCompleted:count 6
scalar TopologyChange.R1.ipv4.arp arpResolutionInitiated:count 2
scalar TopologyChange.R1.ipv4.arp arpReplySent:count 1
scalar TopologyChange.R1.ipv4.arp arpReplySent:sum(packetBytes) 28
scalar TopologyChange.R1.ipv4.arp arpRequestSent:count 2
scalar TopologyChange.R1.ipv4.arp arpRequestSent:sum(packetBytes) 56
scalar TopologyChange.switch4.bridging "processed frames" 0
scalar TopologyChange.switch4.bridging "discarded frames" 0
scalar TopologyChange.switch4.bridging "number of received BPDUs from STP module" 0
scalar TopologyChange.switch4.bridging "number of received frames from network (including BPDUs)" 100
scalar TopologyChange.switch4.bridging "number of dropped frames (including BPDUs)" 0
scalar TopologyChange.switch4.bridging "number of delivered BPDUs to the STP module" 0
scalar TopologyChange.switch4.bridging "number of dispatched BPDU frames to the network" 0
scalar TopologyChange.switch4.bridging "number of dispatched non-BDPU frames to the network" 0
scalar TopologyChange.switch4.bridging packetDropped:count 0
scalar TopologyChange.switch4.bridging packetDropped:sum(packetBytes) 0
scalar TopologyChange.switch4.ethernet pauseSent:count 0
scalar TopologyChange.switch4.ethernet pauseSent:sum 0
scalar TopologyChange.switch4.ethernet decapPk:count 100
scalar TopologyChange.switch4.ethernet decapPk:sum(packetBytes) 6400
scalar TopologyChange.switch4.ethernet encapPk:count 0
scalar TopologyChange.switch4.ethernet encapPk:sum(packetBytes) 0
scalar TopologyChange.switch4.eth[0].queue queueLength:last 0
scalar TopologyChange.switch4.eth[0].queue queueLength:max 0
scalar TopologyChange.switch4.eth[0].queue queueLength:timeavg 0
scalar TopologyChange.switch4.eth[0].queue queueBitLength:last 0
scalar TopologyChange.switch4.eth[0].queue queueBitLength:max 0
scalar TopologyChange.switch4.eth[0].queue queueBitLength:timeavg 0
scalar TopologyChange.switch4.eth[0].queue outgoingPackets:count 0
scalar TopologyChange.switch4.eth[0].queue outgoingPacketLengths:sum 0
scalar TopologyChange.switch4.eth[0].queue incomingPackets:count 0
scalar TopologyChange.switch4.eth[0].queue incomingPacketLengths:sum 0
scalar TopologyChange.switch4.eth[0].queue droppedPacketsQueueOverflow:count 0
scalar TopologyChange.switch4.eth[0].queue droppedPacketLengthsQueueOverflow:sum 0
scalar TopologyChange.switch4.eth[0].mac "simulated time" 1000
scalar TopologyChange.switch4.eth[0].mac full-duplex 1
scalar TopologyChange.switch4.eth[0].mac "frames/sec sent" 0
scalar TopologyChange.switch4.eth[0].mac "frames/sec rcvd" 0.10000000000000001
scalar TopologyChange.switch4.eth[0].mac "bits/sec sent" 0
scalar TopologyChange.switch4.eth[0].mac "bits/sec rcvd" 65.599999999999994
scalar TopologyChange.switch4.eth[0].mac "rx channel idle (%)" 99.999928000000011
scalar TopologyChange.switch4.eth[0].mac "rx channel utilization (%)" 7.2000000000000002e-05
scalar TopologyChange.switch4.eth[0].mac rxPausePkUnits:count 0
scalar TopologyChange.switch4.eth[0].mac rxPausePkUnits:sum 0
scalar TopologyChange.switch4.eth[0].mac txPausePkUnits:count 0
scalar TopologyChange.switch4.eth[0].mac txPausePkUnits:sum 0
scalar TopologyChange.switch4.eth[0].mac rxPkOk:count 100
scalar TopologyChange.switch4.eth[0].mac rxPkOk:sum(packetBytes) 8200
scalar TopologyChange.switch4.eth[0].mac txPk:count 0
scalar TopologyChange.switch4.eth[0].mac txPk:sum(packetBytes) 0
scalar TopologyChange.switch4.eth[0].mac packetReceivedFromUpper:count 0
scalar TopologyChange.switch4.eth[0].mac packetReceivedFromUpper:sum(packetBytes) 0
scalar TopologyChange.switch4.eth[0].mac passedUpPk:count 100
scalar TopologyChange.switch4.eth[0].mac passedUpPk:sum(packetBytes) 8200
scalar TopologyChange.switch4.eth[0].mac packetDropIncorrectlyReceived:count 0
scalar TopologyChange.switch4.eth[0].mac packetDropIncorrectlyReceived:sum(packetBytes) 0
scalar TopologyChange.switch4.eth[0].mac packetDropInterfaceDown:count 0
scalar TopologyChange.switch4.eth[0].mac packetDropInterfaceDown:sum(packetBytes) 0
scalar TopologyChange.switch4.eth[0].mac packetDropNotAddressedToUs:count 0
scalar TopologyChange.switch4.eth[0].mac packetDropNotAddressedToUs:sum(packetBytes) 0
scalar TopologyChange.switch4.eth[0] packetDropInterfaceDown:count 0
scalar TopologyChange.switch4.eth[0] packetDropInterfaceDown:sum(packetBytes) 0
scalar TopologyChange.switch4.eth[0] packetDropNoCarrier:count 0
scalar TopologyChange.switch4.eth[0] packetDropNoCarrier:sum(packetBytes) 0
scalar TopologyChange.switch1.bridging "processed frames" 0
scalar TopologyChange.switch1.bridging "discarded frames" 0
scalar TopologyChange.switch1.bridging "number of received BPDUs from STP module" 0
scalar TopologyChange.switch1.bridging "number of received frames from network (including BPDUs)" 6
scalar TopologyChange.switch1.bridging "number of dropped frames (including BPDUs)" 0
scalar TopologyChange.switch1.bridging "number of delivered BPDUs to the STP module" 0
scalar TopologyChange.switch1.bridging "number of dispatched BPDU frames to the network" 0
scalar TopologyChange.switch1.bridging "number of dispatched non-BDPU frames to the network" 0
scalar TopologyChange.switch1.bridging packetDropped:count 0
scalar TopologyChange.switch1.bridging packetDropped:sum(packetBytes) 0
scalar TopologyChange.switch1.ethernet pauseSent:count 0
scalar TopologyChange.switch1.ethernet pauseSent:sum 0
scalar TopologyChange.switch1.ethernet decapPk:count 6
scalar TopologyChange.switch1.ethernet decapPk:sum(packetBytes) 384
scalar TopologyChange.switch1.ethernet encapPk:count 0
scalar TopologyChange.switch1.ethernet encapPk:sum(packetBytes) 0
scalar TopologyChange.switch1.eth[0].queue queueLength:last 0
scalar TopologyChange.switch1.eth[0].queue queueLength:max 0
scalar TopologyChange.switch1.eth[0].queue queueLength:timeavg 0
scalar TopologyChange.switch1.eth[0].queue queueBitLength:last 0
scalar TopologyChange.switch1.eth[0].queue queueBitLength:max 0
scalar TopologyChange.switch1.eth[0].queue queueBitLength:timeavg 0
scalar TopologyChange.switch1.eth[0].queue outgoingPackets:count 0
scalar TopologyChange.switch1.eth[0].queue outgoingPacketLengths:sum 0
scalar TopologyChange.switch1.eth[0].queue incomingPackets:count 0
scalar TopologyChange.switch1.eth[0].queue incomingPacketLengths:sum 0
scalar TopologyChange.switch1.eth[0].queue droppedPacketsQueueOverflow:count 0
scalar TopologyChange.switch1.eth[0].queue droppedPacketLengthsQueueOverflow:sum 0
scalar TopologyChange.switch1.eth[0].mac "simulated time" 1000
scalar TopologyChange.switch1.eth[0].mac full-duplex 1
scalar TopologyChange.switch1.eth[0].mac "frames/sec sent" 0
scalar TopologyChange.switch1.eth[0].mac "frames/sec rcvd" 0.0060000000000000001
scalar TopologyChange.switch1.eth[0].mac "bits/sec sent" 0
scalar TopologyChange.switch1.eth[0].mac "bits/sec rcvd" 3.9359999999999999
scalar TopologyChange.switch1.eth[0].mac "rx channel idle (%)" 99.999995679999998
scalar TopologyChange.switch1.eth[0].mac "rx channel utilization (%)" 4.3200000000000001e-06
scalar TopologyChange.switch1.eth[0].mac rxPausePkUnits:count 0
scalar TopologyChange.switch1.eth[0].mac rxPausePkUnits:sum 0
scalar TopologyChange.switch1.eth[0].mac txPausePkUnits:count 0
scalar TopologyChange.switch1.eth[0].mac txPausePkUnits:sum 0
scalar TopologyChange.switch1.eth[0].mac rxPkOk:count 6
scalar TopologyChange.switch1.eth[0].mac rxPkOk:sum(packetBytes) 492
scalar TopologyChange.switch1.eth[0].mac txPk:count 0
scalar TopologyChange.switch1.eth[0].mac txPk:sum(packetBytes) 0
scalar TopologyChange.switch1.eth[0].mac packetReceivedFromUpper:count 0
scalar TopologyChange.switch1.eth[0].mac packetReceivedFromUpper:sum(packetBytes) 0
scalar TopologyChange.switch1.eth[0].mac passedUpPk:count 6
scalar TopologyChange.switch1.eth[0].mac passedUpPk:sum(packetBytes) 492
scalar TopologyChange.switch1.eth[0].mac packetDropIncorrectlyReceived:count 0
scalar TopologyChange.switch1.eth[0].mac packetDropIncorrectlyReceived:sum(packetBytes) 0
scalar TopologyChange.switch1.eth[0].mac packetDropInterfaceDown:count 0
scalar TopologyChange.switch1.eth[0].mac packetDropInterfaceDown:sum(packetBytes) 0
scalar TopologyChange.switch1.eth[0].mac packetDropNotAddressedToUs:count 0
scalar TopologyChange.switch1.eth[0].mac packetDropNotAddressedToUs:sum(packetBytes) 0
scalar TopologyChange.switch1.eth[0] packetDropInterfaceDown:count 0
scalar TopologyChange.switch1.eth[0] packetDropInterfaceDown:sum(packetBytes) 0
scalar TopologyChange.switch1.eth[0] packetDropNoCarrier:count 0
scalar TopologyChange.switch1.eth[0] packetDropNoCarrier:sum(packetBytes) 0
scalar TopologyChange.R5.ethernet pauseSent:count 0
scalar TopologyChange.R5.ethernet pauseSent:sum 0
scalar TopologyChange.R5.ethernet decapPk:count 448
scalar TopologyChange.R5.ethernet decapPk:sum(packetBytes) 35436
scalar TopologyChange.R5.ethernet encapPk:count 303
scalar TopologyChange.R5.ethernet encapPk:sum(packetBytes) 22112
scalar TopologyChange.R5.lo[0].lo rcvdPkFromHl:count 0
scalar TopologyChange.R5.lo[0].lo rcvdPkFromHl:sum(packetBytes) 0
scalar TopologyChange.R5.lo[0].lo passedUpPk:count 0
scalar TopologyChange.R5.lo[0].lo passedUpPk:sum(packetBytes) 0
scalar TopologyChange.R5.lo[0] packetDropInterfaceDown:count 0
scalar TopologyChange.R5.lo[0] packetDropInterfaceDown:sum(packetBytes) 0
scalar TopologyChange.R5.lo[0] packetDropNoCarrier:count 0
scalar TopologyChange.R5.lo[0] packetDropNoCarrier:sum(packetBytes) 0
scalar TopologyChange.R5.eth[0].queue queueLength:last 0
scalar TopologyChange.R5.eth[0].queue queueLength:max 2
scalar TopologyChange.R5.eth[0].queue queueLength:timeavg 3.2564e-07
scalar TopologyChange.R5.eth[0].queue queueBitLength:last 0
scalar TopologyChange.R5.eth[0].queue queueBitLength:max 1824
scalar TopologyChange.R5.eth[0].queue queueBitLength:timeavg 0.00027555519999999999
scalar TopologyChange.R5.eth[0].queue outgoingPackets:count 203
scalar TopologyChange.R5.eth[0].queue outgoingPacketLengths:sum 154928
scalar TopologyChange.R5.eth[0].queue incomingPackets:count 203
scalar TopologyChange.R5.eth[0].queue incomingPacketLengths:sum 154928
scalar TopologyChange.R5.eth[0].queue droppedPacketsQueueOverflow:count 0
scalar TopologyChange.R5.eth[0].queue droppedPacketLengthsQueueOverflow:sum 0
scalar TopologyChange.R5.eth[0].mac "simulated time" 1000
scalar TopologyChange.R5.eth[0].mac full-duplex 1
scalar TopologyChange.R5.eth[0].mac "frames/sec sent" 0.20300000000000001
scalar TopologyChange.R5.eth[0].mac "frames/sec rcvd" 0.44800000000000001
scalar TopologyChange.R5.eth[0].mac "bits/sec sent" 155.36000000000001
scalar TopologyChange.R5.eth[0].mac "bits/sec rcvd" 348
scalar TopologyChange.R5.eth[0].mac "rx channel idle (%)" 99.999623327999998
scalar TopologyChange.R5.eth[0].mac "rx channel utilization (%)" 0.00037667199999999999
scalar TopologyChange.R5.eth[0].mac rxPausePkUnits:count 0
scalar TopologyChange.R5.eth[0].mac rxPausePkUnits:sum 0
scalar TopologyChange.R5.eth[0].mac txPausePkUnits:count 0
scalar TopologyChange.R5.eth[0].mac txPausePkUnits:sum 0
scalar TopologyChange.R5.eth[0].mac rxPkOk:count 448
scalar TopologyChange.R5.eth[0].mac rxPkOk:sum(packetBytes) 43500
scalar TopologyChange.R5.eth[0].mac txPk:count 203
scalar TopologyChange.R5.eth[0].mac txPk:sum(packetBytes) 19420
scalar TopologyChange.R5.eth[0].mac packetReceivedFromUpper:count 203
scalar TopologyChange.R5.eth[0].mac packetReceivedFromUpper:sum(packetBytes) 19366
scalar TopologyChange.R5.eth[0].mac passedUpPk:count 448
scalar TopologyChange.R5.eth[0].mac passedUpPk:sum(packetBytes) 43500
scalar TopologyChange.R5.eth[0].mac packetDropIncorrectlyReceived:count 0
scalar TopologyChange.R5.eth[0].mac packetDropIncorrectlyReceived:sum(packetBytes) 0
scalar TopologyChange.R5.eth[0].mac packetDropInterfaceDown:count 0
scalar TopologyChange.R5.eth[0].mac packetDropInterfaceDown:sum(packetBytes) 0
scalar TopologyChange.R5.eth[0].mac packetDropNotAddressedToUs:count 0
scalar TopologyChange.R5.eth[0].mac packetDropNotAddressedToUs:sum(packetBytes) 0
scalar TopologyChange.R5.eth[0] packetDropInterfaceDown:count 0
scalar TopologyChange.R5.eth[0] packetDropInterfaceDown:sum(packetBytes) 0
scalar TopologyChange.R5.eth[0] packetDropNoCarrier:count 0
scalar TopologyChange.R5.eth[0] packetDropNoCarrier:sum(packetBytes) 0
scalar TopologyChange.R5.eth[1].queue queueLength:last 0
scalar TopologyChange.R5.eth[1].queue queueLength:max 0
scalar TopologyChange.R5.eth[1].queue queueLength:timeavg 0
scalar TopologyChange.R5.eth[1].queue queueBitLength:last 0
scalar TopologyChange.R5.eth[1].queue queueBitLength:max 0
scalar TopologyChange.R5.eth[1].queue queueBitLength:timeavg 0
scalar TopologyChange.R5.eth[1].queue outgoingPackets:count 100
scalar TopologyChange.R5.eth[1].queue outgoingPacketLengths:sum 65600
scalar TopologyChange.R5.eth[1].queue incomingPackets:count 100
scalar TopologyChange.R5.eth[1].queue incomingPacketLengths:sum 65600
scalar TopologyChange.R5.eth[1].queue droppedPacketsQueueOverflow:count 0
scalar TopologyChange.R5.eth[1].queue droppedPacketLengthsQueueOverflow:sum 0
scalar TopologyChange.R5.eth[1].mac "simulated time" 1000
scalar TopologyChange.R5.eth[1].mac full-duplex 1
scalar TopologyChange.R5.eth[1].mac "frames/sec sent" 0.10000000000000001
scalar TopologyChange.R5.eth[1].mac "frames/sec rcvd" 0
scalar TopologyChange.R5.eth[1].mac "bits/sec sent" 65.599999999999994
scalar TopologyChange.R5.eth[1].mac "bits/sec rcvd" 0
scalar TopologyChange.R5.eth[1].mac "rx channel idle (%)" 100
scalar TopologyChange.R5.eth[1].mac "rx channel utilization (%)" 0
scalar TopologyChange.R5.eth[1].mac rxPausePkUnits:count 0
scalar TopologyChange.R5.eth[1].mac rxPausePkUnits:sum 0
scalar TopologyChange.R5.eth[1].mac txPausePkUnits:count 0
scalar TopologyChange.R5.eth[1].mac txPausePkUnits:sum 0
scalar TopologyChange.R5.eth[1].mac rxPkOk:count 0
scalar TopologyChange.R5.eth[1].mac rxPkOk:sum(packetBytes) 0
scalar TopologyChange.R5.eth[1].mac txPk:count 100
scalar TopologyChange.R5.eth[1].mac txPk:sum(packetBytes) 8200
scalar TopologyChange.R5.eth[1].mac packetReceivedFromUpper:count 100
scalar TopologyChange.R5.eth[1].mac packetReceivedFromUpper:sum(packetBytes) 8200
scalar TopologyChange.R5.eth[1].mac passedUpPk:count 0
scalar TopologyChange.R5.eth[1].mac passedUpPk:sum(packetBytes) 0
scalar TopologyChange.R5.eth[1].mac packetDropIncorrectlyReceived:count 0
scalar TopologyChange.R5.eth[1].mac packetDropIncorrectlyReceived:sum(packetBytes) 0
scalar TopologyChange.R5.eth[1].mac packetDropInterfaceDown:count 0
scalar TopologyChange.R5.eth[1].mac packetDropInterfaceDown:sum(packetBytes) 0
scalar TopologyChange.R5.eth[1].mac packetDropNotAddressedToUs:count 0
scalar TopologyChange.R5.eth[1].mac packetDropNotAddressedToUs:sum(packetBytes) 0
scalar TopologyChange.R5.eth[1] packetDropInterfaceDown:count 0
scalar TopologyChange.R5.eth[1] packetDropInterfaceDown:sum(packetBytes) 0
scalar TopologyChange.R5.eth[1] packetDropNoCarrier:count 0
scalar TopologyChange.R5.eth[1] packetDropNoCarrier:sum(packetBytes) 0
scalar TopologyChange.R5.ipv4.ip packetDropAddressResolutionFailed:count 0
scalar TopologyChange.R5.ipv4.ip packetDropAddressResolutionFailed:sum(packetBytes) 0
scalar TopologyChange.R5.ipv4.ip packetDropHopLimitReached:count 0
scalar TopologyChange.R5.ipv4.ip packetDropHopLimitReached:sum(packetBytes) 0
scalar TopologyChange.R5.ipv4.ip packetDropForwardingDisabled:count 0
scalar TopologyChange.R5.ipv4.ip packetDropForwardingDisabled:sum(packetBytes) 0
scalar TopologyChange.R5.ipv4.ip packetDropLifetimeExpired:count 0
scalar TopologyChange.R5.ipv4.ip packetDropLifetimeExpired:sum(packetBytes) 0
scalar TopologyChange.R5.ipv4.ip packetDropNoInterfaceFound:count 0
scalar TopologyChange.R5.ipv4.ip packetDropNoInterfaceFound:sum(packetBytes) 0
scalar TopologyChange.R5.ipv4.ip packetDropNoRouteFound:count 0
scalar TopologyChange.R5.ipv4.ip packetDropNoRouteFound:sum(packetBytes) 0
scalar TopologyChange.R5.ipv4.ip packetDropUndefined:count 0
scalar TopologyChange.R5.ipv4.ip packetDropUndefined:sum(packetBytes) 0
scalar TopologyChange.R5.ipv4.arp arpResolutionFailed:count 0
scalar TopologyChange.R5.ipv4.arp arpResolutionCompleted:count 13
scalar TopologyChange.R5.ipv4.arp arpResolutionInitiated:count 1
scalar TopologyChange.R5.ipv4.arp arpReplySent:count 2
scalar TopologyChange.R5.ipv4.arp arpReplySent:sum(packetBytes) 56
scalar TopologyChange.R5.ipv4.arp arpRequestSent:count 1
scalar TopologyChange.R5.ipv4.arp arpRequestSent:sum(packetBytes) 28
scalar TopologyChange.R6.ethernet pauseSent:count 0
scalar TopologyChange.R6.ethernet pauseSent:sum 0
scalar TopologyChange.R6.ethernet decapPk:count 1402
scalar TopologyChange.R6.ethernet decapPk:sum(packetBytes) 115336
scalar TopologyChange.R6.ethernet encapPk:count 1245
scalar TopologyChange.R6.ethernet encapPk:sum(packetBytes) 100568
scalar TopologyChange.R6.lo[0].lo rcvdPkFromHl:count 0
scalar TopologyChange.R6.lo[0].lo rcvdPkFromHl:sum(packetBytes) 0
scalar TopologyChange.R6.lo[0].lo passedUpPk:count 0
scalar TopologyChange.R6.lo[0].lo passedUpPk:sum(packetBytes) 0
scalar TopologyChange.R6.lo[0] packetDropInterfaceDown:count 0
scalar TopologyChange.R6.lo[0] packetDropInterfaceDown:sum(packetBytes) 0
scalar TopologyChange.R6.lo[0] packetDropNoCarrier:count 0
scalar TopologyChange.R6.lo[0] packetDropNoCarrier:sum(packetBytes) 0
scalar TopologyChange.R6.eth[0].queue queueLength:last 0
scalar TopologyChange.R6.eth[0].queue queueLength:max 2
scalar TopologyChange.R6.eth[0].queue queueLength:timeavg 1.5087999999999999e-07
scalar TopologyChange.R6.eth[0].queue queueBitLength:last 0
scalar TopologyChange.R6.eth[0].queue queueBitLength:max 1824
scalar TopologyChange.R6.eth[0].queue queueBitLength:timeavg 0.00011948799999999999
scalar TopologyChange.R6.eth[0].queue outgoingPackets:count 1145
scalar TopologyChange.R6.eth[0].queue outgoingPacketLengths:sum 918224
scalar TopologyChange.R6.eth[0].queue incomingPackets:count 1145
scalar TopologyChange.R6.eth[0].queue incomingPacketLengths:sum 918224
scalar TopologyChange.R6.eth[0].queue droppedPacketsQueueOverflow:count 0
scalar TopologyChange.R6.eth[0].queue droppedPacketLengthsQueueOverflow:sum 0
scalar TopologyChange.R6.eth[0].mac "simulated time" 1000
scalar TopologyChange.R6.eth[0].mac full-duplex 1
scalar TopologyChange.R6.eth[0].mac "frames/sec sent" 1.145
scalar TopologyChange.R6.eth[0].mac "frames/sec rcvd" 1.4019999999999999
scalar TopologyChange.R6.eth[0].mac "bits/sec sent" 919.80799999999999
scalar TopologyChange.R6.eth[0].mac "bits/sec rcvd" 1124.576
scalar TopologyChange.R6.eth[0].mac "rx channel idle (%)" 99.998785695999999
scalar TopologyChange.R6.eth[0].mac "rx channel utilization (%)" 0.001214304
scalar TopologyChange.R6.eth[0].mac rxPausePkUnits:count 0
scalar TopologyChange.R6.eth[0].mac rxPausePkUnits:sum 0
scalar TopologyChange.R6.eth[0].mac txPausePkUnits:count 0
scalar TopologyChange.R6.eth[0].mac txPausePkUnits:sum 0
scalar TopologyChange.R6.eth[0].mac rxPkOk:count 1402
scalar TopologyChange.R6.eth[0].mac rxPkOk:sum(packetBytes) 140572
scalar TopologyChange.R6.eth[0].mac txPk:count 1145
scalar TopologyChange.R6.eth[0].mac txPk:sum(packetBytes) 114976
scalar TopologyChange.R6.eth[0].mac packetReceivedFromUpper:count 1145
scalar TopologyChange.R6.eth[0].mac packetReceivedFromUpper:sum(packetBytes) 114778
scalar TopologyChange.R6.eth[0].mac passedUpPk:count 1402
scalar TopologyChange.R6.eth[0].mac passedUpPk:sum(packetBytes) 140572
scalar TopologyChange.R6.eth[0].mac packetDropIncorrectlyReceived:count 0
scalar TopologyChange.R6.eth[0].mac packetDropIncorrectlyReceived:sum(packetBytes) 0
scalar TopologyChange.R6.eth[0].mac packetDropInterfaceDown:count 0
scalar TopologyChange.R6.eth[0].mac packetDropInterfaceDown:sum(packetBytes) 0
scalar TopologyChange.R6.eth[0].mac packetDropNotAddressedToUs:count 0
scalar TopologyChange.R6.eth[0].mac packetDropNotAddressedToUs:sum(packetBytes) 0
scalar TopologyChange.R6.eth[0] packetDropInterfaceDown:count 0
scalar TopologyChange.R6.eth[0] packetDropInterfaceDown:sum(packetBytes) 0
scalar TopologyChange.R6.eth[0] packetDropNoCarrier:count 0
scalar TopologyChange.R6.eth[0] packetDropNoCarrier:sum(packetBytes) 0
scalar TopologyChange.R6.eth[1].queue queueLength:last 0
scalar TopologyChange.R6.eth[1].queue queueLength:max 0
scalar TopologyChange.R6.eth[1].queue queueLength:timeavg 0
scalar TopologyChange.R6.eth[1].queue queueBitLength:last 0
scalar TopologyChange.R6.eth[1].queue queueBitLength:max 0
scalar TopologyChange.R6.eth[1].queue queueBitLength:timeavg 0
scalar TopologyChange.R6.eth[1].queue outgoingPackets:count 100
scalar TopologyChange.R6.eth[1].queue outgoingPacketLengths:sum 65600
scalar TopologyChange.R6.eth[1].queue incomingPackets:count 100
scalar TopologyChange.R6.eth[1].queue incomingPacketLengths:sum 65600
scalar TopologyChange.R6.eth[1].queue droppedPacketsQueueOverflow:count 0
scalar TopologyChange.R6.eth[1].queue droppedPacketLengthsQueueOverflow:sum 0
scalar TopologyChange.R6.eth[1].mac "simulated time" 1000
scalar TopologyChange.R6.eth[1].mac full-duplex 1
scalar TopologyChange.R6.eth[1].mac "frames/sec sent" 0.10000000000000001
scalar TopologyChange.R6.eth[1].mac "frames/sec rcvd" 0
scalar TopologyChange.R6.eth[1].mac "bits/sec sent" 65.599999999999994
[...]
scalar TopologyChange.switch7.ethernet encapPk:vector(packetBytes):max -inf
scalar TopologyChange.switch7.ethernet encapPk:vector(packetBytes):starttime nan
scalar TopologyChange.switch7.ethernet encapPk:vector(packetBytes):endtime nan
scalar TopologyChange.switch7.ethernet decapPk:vector(packetBytes):count 100
scalar TopologyChange.switch7.ethernet decapPk:vector(packetBytes):sum 6400
scalar TopologyChange.switch7.ethernet decapPk:vector(packetBytes):sumweights 100
scalar TopologyChange.switch7.ethernet decapPk:vector(packetBytes):mean 64
scalar TopologyChange.switch7.ethernet decapPk:vector(packetBytes):stddev 0
scalar TopologyChange.switch7.ethernet decapPk:vector(packetBytes):min 64
scalar TopologyChange.switch7.ethernet decapPk:vector(packetBytes):max 64
scalar TopologyChange.switch7.ethernet decapPk:vector(packetBytes):starttime 0.11174401016400003
scalar TopologyChange.switch7.ethernet decapPk:vector(packetBytes):endtime 990.11174401016422
scalar TopologyChange.switch7.ethernet pauseSent:vector:count 0
scalar TopologyChange.switch7.ethernet pauseSent:vector:sum 0
scalar TopologyChange.switch7.ethernet pauseSent:vector:sumweights 0
scalar TopologyChange.switch7.ethernet pauseSent:vector:mean -nan
scalar TopologyChange.switch7.ethernet pauseSent:vector:stddev nan
scalar TopologyChange.switch7.ethernet pauseSent:vector:min inf
scalar TopologyChange.switch7.ethernet pauseSent:vector:max -inf
scalar TopologyChange.switch7.ethernet pauseSent:vector:starttime nan
scalar TopologyChange.switch7.ethernet pauseSent:vector:endtime nan
scalar TopologyChange.switch7.eth[0].queue queueLength:vector:count 5
scalar TopologyChange.switch7.eth[0].queue queueLength:vector:sum 0
scalar TopologyChange.switch7.eth[0].queue queueLength:vector:sumweights 5
scalar TopologyChange.switch7.eth[0].queue queueLength:vector:mean 0
scalar TopologyChange.switch7.eth[0].queue queueLength:vector:stddev 0
scalar TopologyChange.switch7.eth[0].queue queueLength:vector:min 0
scalar TopologyChange.switch7.eth[0].queue queueLength:vector:max 0
scalar TopologyChange.switch7.eth[0].queue queueLength:vector:starttime 0
scalar TopologyChange.switch7.eth[0].queue queueLength:vector:endtime 0
scalar TopologyChange.switch7.eth[0].queue queueBitLength:vector:count 5
scalar TopologyChange.switch7.eth[0].queue queueBitLength:vector:sum 0
scalar TopologyChange.switch7.eth[0].queue queueBitLength:vector:sumweights 5
scalar TopologyChange.switch7.eth[0].queue queueBitLength:vector:mean 0
scalar TopologyChange.switch7.eth[0].queue queueBitLength:vector:stddev 0
scalar TopologyChange.switch7.eth[0].queue queueBitLength:vector:min 0
scalar TopologyChange.switch7.eth[0].queue queueBitLength:vector:max 0
scalar TopologyChange.switch7.eth[0].queue queueBitLength:vector:starttime 0
scalar TopologyChange.switch7.eth[0].queue queueBitLength:vector:endtime 0
scalar TopologyChange.switch7.eth[0].queue queueingTime:vector:count 0
scalar TopologyChange.switch7.eth[0].queue queueingTime:vector:sum 0
scalar TopologyChange.switch7.eth[0].queue queueingTime:vector:sumweights 0
scalar TopologyChange.switch7.eth[0].queue queueingTime:vector:mean -nan
scalar TopologyChange.switch7.eth[0].queue queueingTime:vector:stddev nan
scalar TopologyChange.switch7.eth[0].queue queueingTime:vector:min inf
scalar TopologyChange.switch7.eth[0].queue queueingTime:vector:max -inf
scalar TopologyChange.switch7.eth[0].queue queueingTime:vector:starttime nan
scalar TopologyChange.switch7.eth[0].queue queueingTime:vector:endtime nan
scalar TopologyChange.switch7.eth[0].queue incomingPacketLengths:vector:count 0
scalar TopologyChange.switch7.eth[0].queue incomingPacketLengths:vector:sum 0
scalar TopologyChange.switch7.eth[0].queue incomingPacketLengths:vector:sumweights 0
scalar TopologyChange.switch7.eth[0].queue incomingPacketLengths:vector:mean -nan
scalar TopologyChange.switch7.eth[0].queue incomingPacketLengths:vector:stddev nan
scalar TopologyChange.switch7.eth[0].queue incomingPacketLengths:vector:min inf
scalar TopologyChange.switch7.eth[0].queue incomingPacketLengths:vector:max -inf
scalar TopologyChange.switch7.eth[0].queue incomingPacketLengths:vector:starttime nan
scalar TopologyChange.switch7.eth[0].queue incomingPacketLengths:vector:endtime nan
scalar TopologyChange.switch7.eth[0].queue incomingDataRate:vector:count 10000
scalar TopologyChange.switch7.eth[0].queue incomingDataRate:vector:sum 0
scalar TopologyChange.switch7.eth[0].queue incomingDataRate:vector:sumweights 10000
scalar TopologyChange.switch7.eth[0].queue incomingDataRate:vector:mean 0
scalar TopologyChange.switch7.eth[0].queue incomingDataRate:vector:stddev 0
scalar TopologyChange.switch7.eth[0].queue incomingDataRate:vector:min 0
scalar TopologyChange.switch7.eth[0].queue incomingDataRate:vector:max 0
scalar TopologyChange.switch7.eth[0].queue incomingDataRate:vector:starttime 0.10000000000000001
scalar TopologyChange.switch7.eth[0].queue incomingDataRate:vector:endtime 1000
scalar TopologyChange.switch7.eth[0].queue outgoingPacketLengths:vector:count 0
scalar TopologyChange.switch7.eth[0].queue outgoingPacketLengths:vector:sum 0
scalar TopologyChange.switch7.eth[0].queue outgoingPacketLengths:vector:sumweights 0
scalar TopologyChange.switch7.eth[0].queue outgoingPacketLengths:vector:mean -nan
scalar TopologyChange.switch7.eth[0].queue outgoingPacketLengths:vector:stddev nan
scalar TopologyChange.switch7.eth[0].queue outgoingPacketLengths:vector:min inf
scalar TopologyChange.switch7.eth[0].queue outgoingPacketLengths:vector:max -inf
scalar TopologyChange.switch7.eth[0].queue outgoingPacketLengths:vector:starttime nan
scalar TopologyChange.switch7.eth[0].queue outgoingPacketLengths:vector:endtime nan
scalar TopologyChange.switch7.eth[0].queue outgoingDataRate:vector:count 10000
scalar TopologyChange.switch7.eth[0].queue outgoingDataRate:vector:sum 0
scalar TopologyChange.switch7.eth[0].queue outgoingDataRate:vector:sumweights 10000
scalar TopologyChange.switch7.eth[0].queue outgoingDataRate:vector:mean 0
scalar TopologyChange.switch7.eth[0].queue outgoingDataRate:vector:stddev 0
scalar TopologyChange.switch7.eth[0].queue outgoingDataRate:vector:min 0
scalar TopologyChange.switch7.eth[0].queue outgoingDataRate:vector:max 0
scalar TopologyChange.switch7.eth[0].queue outgoingDataRate:vector:starttime 0.10000000000000001
scalar TopologyChange.switch7.eth[0].queue outgoingDataRate:vector:endtime 1000
scalar TopologyChange.switch7.eth[0].queue droppedPacketLengthsQueueOverflow:vector:count 0
scalar TopologyChange.switch7.eth[0].queue droppedPacketLengthsQueueOverflow:vector:sum 0
scalar TopologyChange.switch7.eth[0].queue droppedPacketLengthsQueueOverflow:vector:sumweights 0
scalar TopologyChange.switch7.eth[0].queue droppedPacketLengthsQueueOverflow:vector:mean -nan
scalar TopologyChange.switch7.eth[0].queue droppedPacketLengthsQueueOverflow:vector:stddev nan
scalar TopologyChange.switch7.eth[0].queue droppedPacketLengthsQueueOverflow:vector:min inf
scalar TopologyChange.switch7.eth[0].queue droppedPacketLengthsQueueOverflow:vector:max -inf
scalar TopologyChange.switch7.eth[0].queue droppedPacketLengthsQueueOverflow:vector:starttime nan
scalar TopologyChange.switch7.eth[0].queue droppedPacketLengthsQueueOverflow:vector:endtime nan
scalar TopologyChange.switch7.eth[0].queue flowQueueingTime:vector:count 0
scalar TopologyChange.switch7.eth[0].queue flowQueueingTime:vector:sum 0
scalar TopologyChange.switch7.eth[0].queue flowQueueingTime:vector:sumweights 0
scalar TopologyChange.switch7.eth[0].queue flowQueueingTime:vector:mean -nan
scalar TopologyChange.switch7.eth[0].queue flowQueueingTime:vector:stddev nan
scalar TopologyChange.switch7.eth[0].queue flowQueueingTime:vector:min inf
scalar TopologyChange.switch7.eth[0].queue flowQueueingTime:vector:max -inf
scalar TopologyChange.switch7.eth[0].queue flowQueueingTime:vector:starttime nan
scalar TopologyChange.switch7.eth[0].queue flowQueueingTime:vector:endtime nan
scalar TopologyChange.switch7.eth[0].queue flowIncomingDataRate:vector:count 10000
scalar TopologyChange.switch7.eth[0].queue flowIncomingDataRate:vector:sum 0
scalar TopologyChange.switch7.eth[0].queue flowIncomingDataRate:vector:sumweights 10000
scalar TopologyChange.switch7.eth[0].queue flowIncomingDataRate:vector:mean 0
scalar TopologyChange.switch7.eth[0].queue flowIncomingDataRate:vector:stddev 0
scalar TopologyChange.switch7.eth[0].queue flowIncomingDataRate:vector:min 0
scalar TopologyChange.switch7.eth[0].queue flowIncomingDataRate:vector:max 0
scalar TopologyChange.switch7.eth[0].queue flowIncomingDataRate:vector:starttime 0.10000000000000001
scalar TopologyChange.switch7.eth[0].queue flowIncomingDataRate:vector:endtime 1000
scalar TopologyChange.switch7.eth[0].queue flowOutgoingDataRate:vector:count 10000
scalar TopologyChange.switch7.eth[0].queue flowOutgoingDataRate:vector:sum 0
scalar TopologyChange.switch7.eth[0].queue flowOutgoingDataRate:vector:sumweights 10000
scalar TopologyChange.switch7.eth[0].queue flowOutgoingDataRate:vector:mean 0
scalar TopologyChange.switch7.eth[0].queue flowOutgoingDataRate:vector:stddev 0
scalar TopologyChange.switch7.eth[0].queue flowOutgoingDataRate:vector:min 0
scalar TopologyChange.switch7.eth[0].queue flowOutgoingDataRate:vector:max 0
scalar TopologyChange.switch7.eth[0].queue flowOutgoingDataRate:vector:starttime 0.10000000000000001
scalar TopologyChange.switch7.eth[0].queue flowOutgoingDataRate:vector:endtime 1000
scalar TopologyChange.switch7.eth[0].mac transmitting:vector:count 2
scalar TopologyChange.switch7.eth[0].mac transmitting:vector:sum 0
scalar TopologyChange.switch7.eth[0].mac transmitting:vector:sumweights 2
scalar TopologyChange.switch7.eth[0].mac transmitting:vector:mean 0
scalar TopologyChange.switch7.eth[0].mac transmitting:vector:stddev 0
scalar TopologyChange.switch7.eth[0].mac transmitting:vector:min 0
scalar TopologyChange.switch7.eth[0].mac transmitting:vector:max 0
scalar TopologyChange.switch7.eth[0].mac transmitting:vector:starttime 0
scalar TopologyChange.switch7.eth[0].mac transmitting:vector:endtime 0
scalar TopologyChange.switch7.eth[0].mac throughput:vector:count 10000
scalar TopologyChange.switch7.eth[0].mac throughput:vector:sum 0
scalar TopologyChange.switch7.eth[0].mac throughput:vector:sumweights 10000
scalar TopologyChange.switch7.eth[0].mac throughput:vector:mean 0
scalar TopologyChange.switch7.eth[0].mac throughput:vector:stddev 0
scalar TopologyChange.switch7.eth[0].mac throughput:vector:min 0
scalar TopologyChange.switch7.eth[0].mac throughput:vector:max 0
scalar TopologyChange.switch7.eth[0].mac throughput:vector:starttime 0.10000000000000001
scalar TopologyChange.switch7.eth[0].mac throughput:vector:endtime 1000
scalar TopologyChange.switch7.eth[0].mac utilization:vector:count 10000
scalar TopologyChange.switch7.eth[0].mac utilization:vector:sum 0
scalar TopologyChange.switch7.eth[0].mac utilization:vector:sumweights 10000
scalar TopologyChange.switch7.eth[0].mac utilization:vector:mean 0
scalar TopologyChange.switch7.eth[0].mac utilization:vector:stddev 0
scalar TopologyChange.switch7.eth[0].mac utilization:vector:min 0
scalar TopologyChange.switch7.eth[0].mac utilization:vector:max 0
scalar TopologyChange.switch7.eth[0].mac utilization:vector:starttime 0.10000000000000001
scalar TopologyChange.switch7.eth[0].mac utilization:vector:endtime 1000
scalar TopologyChange.switch7.eth[0].mac txPk:vector(packetBytes):count 0
scalar TopologyChange.switch7.eth[0].mac txPk:vector(packetBytes):sum 0
scalar TopologyChange.switch7.eth[0].mac txPk:vector(packetBytes):sumweights 0
scalar TopologyChange.switch7.eth[0].mac txPk:vector(packetBytes):mean -nan
scalar TopologyChange.switch7.eth[0].mac txPk:vector(packetBytes):stddev nan
scalar TopologyChange.switch7.eth[0].mac txPk:vector(packetBytes):min inf
scalar TopologyChange.switch7.eth[0].mac txPk:vector(packetBytes):max -inf
scalar TopologyChange.switch7.eth[0].mac txPk:vector(packetBytes):starttime nan
scalar TopologyChange.switch7.eth[0].mac txPk:vector(packetBytes):endtime nan
scalar TopologyChange.switch7.eth[0].mac rxPkOk:vector(packetBytes):count 100
scalar TopologyChange.switch7.eth[0].mac rxPkOk:vector(packetBytes):sum 8200
scalar TopologyChange.switch7.eth[0].mac rxPkOk:vector(packetBytes):sumweights 100
scalar TopologyChange.switch7.eth[0].mac rxPkOk:vector(packetBytes):mean 82
scalar TopologyChange.switch7.eth[0].mac rxPkOk:vector(packetBytes):stddev 0
scalar TopologyChange.switch7.eth[0].mac rxPkOk:vector(packetBytes):min 82
scalar TopologyChange.switch7.eth[0].mac rxPkOk:vector(packetBytes):max 82
scalar TopologyChange.switch7.eth[0].mac rxPkOk:vector(packetBytes):starttime 0.11174401016400003
scalar TopologyChange.switch7.eth[0].mac rxPkOk:vector(packetBytes):endtime 990.11174401016422
scalar TopologyChange.switch7.eth[0].mac passedUpPk:vector(packetBytes):count 100
scalar TopologyChange.switch7.eth[0].mac passedUpPk:vector(packetBytes):sum 8200
scalar TopologyChange.switch7.eth[0].mac passedUpPk:vector(packetBytes):sumweights 100
scalar TopologyChange.switch7.eth[0].mac passedUpPk:vector(packetBytes):mean 82
scalar TopologyChange.switch7.eth[0].mac passedUpPk:vector(packetBytes):stddev 0
scalar TopologyChange.switch7.eth[0].mac passedUpPk:vector(packetBytes):min 82
scalar TopologyChange.switch7.eth[0].mac passedUpPk:vector(packetBytes):max 82
scalar TopologyChange.switch7.eth[0].mac passedUpPk:vector(packetBytes):starttime 0.11174401016400003
scalar TopologyChange.switch7.eth[0].mac passedUpPk:vector(packetBytes):endtime 990.11174401016422
scalar TopologyChange.switch7.eth[0].mac txPausePkUnits:vector:count 0
scalar TopologyChange.switch7.eth[0].mac txPausePkUnits:vector:sum 0
scalar TopologyChange.switch7.eth[0].mac txPausePkUnits:vector:sumweights 0
scalar TopologyChange.switch7.eth[0].mac txPausePkUnits:vector:mean -nan
scalar TopologyChange.switch7.eth[0].mac txPausePkUnits:vector:stddev nan
scalar TopologyChange.switch7.eth[0].mac txPausePkUnits:vector:min inf
scalar TopologyChange.switch7.eth[0].mac txPausePkUnits:vector:max -inf
scalar TopologyChange.switch7.eth[0].mac txPausePkUnits:vector:starttime nan
scalar TopologyChange.switch7.eth[0].mac txPausePkUnits:vector:endtime nan
scalar TopologyChange.switch7.eth[0].mac rxPausePkUnits:vector:count 0
scalar TopologyChange.switch7.eth[0].mac rxPausePkUnits:vector:sum 0
scalar TopologyChange.switch7.eth[0].mac rxPausePkUnits:vector:sumweights 0
scalar TopologyChange.switch7.eth[0].mac rxPausePkUnits:vector:mean -nan
scalar TopologyChange.switch7.eth[0].mac rxPausePkUnits:vector:stddev nan
scalar TopologyChange.switch7.eth[0].mac rxPausePkUnits:vector:min inf
scalar TopologyChange.switch7.eth[0].mac rxPausePkUnits:vector:max -inf
scalar TopologyChange.switch7.eth[0].mac rxPausePkUnits:vector:starttime nan
scalar TopologyChange.switch7.eth[0].mac rxPausePkUnits:vector:endtime nan
scalar TopologyChange.switch7.eth[0].mac packetReceivedFromUpper:vector(packetBytes):count 0
scalar TopologyChange.switch7.eth[0].mac packetReceivedFromUpper:vector(packetBytes):sum 0
scalar TopologyChange.switch7.eth[0].mac packetReceivedFromUpper:vector(packetBytes):sumweights 0
scalar TopologyChange.switch7.eth[0].mac packetReceivedFromUpper:vector(packetBytes):mean -nan
scalar TopologyChange.switch7.eth[0].mac packetReceivedFromUpper:vector(packetBytes):stddev nan
scalar TopologyChange.switch7.eth[0].mac packetReceivedFromUpper:vector(packetBytes):min inf
scalar TopologyChange.switch7.eth[0].mac packetReceivedFromUpper:vector(packetBytes):max -inf
scalar TopologyChange.switch7.eth[0].mac packetReceivedFromUpper:vector(packetBytes):starttime nan
scalar TopologyChange.switch7.eth[0].mac packetReceivedFromUpper:vector(packetBytes):endtime nan
scalar TopologyChange.switch7.eth[0].mac packetDropIncorrectlyReceived:vector(packetBytes):count 0
scalar TopologyChange.switch7.eth[0].mac packetDropIncorrectlyReceived:vector(packetBytes):sum 0
scalar TopologyChange.switch7.eth[0].mac packetDropIncorrectlyReceived:vector(packetBytes):sumweights 0
scalar TopologyChange.switch7.eth[0].mac packetDropIncorrectlyReceived:vector(packetBytes):mean -nan
scalar TopologyChange.switch7.eth[0].mac packetDropIncorrectlyReceived:vector(packetBytes):stddev nan
scalar TopologyChange.switch7.eth[0].mac packetDropIncorrectlyReceived:vector(packetBytes):min inf
scalar TopologyChange.switch7.eth[0].mac packetDropIncorrectlyReceived:vector(packetBytes):max -inf
scalar TopologyChange.switch7.eth[0].mac packetDropIncorrectlyReceived:vector(packetBytes):starttime nan
scalar TopologyChange.switch7.eth[0].mac packetDropIncorrectlyReceived:vector(packetBytes):endtime nan
scalar TopologyChange.switch7.eth[0].mac packetDropInterfaceDown:vector(packetBytes):count 0
scalar TopologyChange.switch7.eth[0].mac packetDropInterfaceDown:vector(packetBytes):sum 0
scalar TopologyChange.switch7.eth[0].mac packetDropInterfaceDown:vector(packetBytes):sumweights 0
scalar TopologyChange.switch7.eth[0].mac packetDropInterfaceDown:vector(packetBytes):mean -nan
scalar TopologyChange.switch7.eth[0].mac packetDropInterfaceDown:vector(packetBytes):stddev nan
scalar TopologyChange.switch7.eth[0].mac packetDropInterfaceDown:vector(packetBytes):min inf
scalar TopologyChange.switch7.eth[0].mac packetDropInterfaceDown:vector(packetBytes):max -inf
scalar TopologyChange.switch7.eth[0].mac packetDropInterfaceDown:vector(packetBytes):starttime nan
scalar TopologyChange.switch7.eth[0].mac packetDropInterfaceDown:vector(packetBytes):endtime nan
scalar TopologyChange.switch7.eth[0].mac packetDropNotAddressedToUs:vector(packetBytes):count 0
scalar TopologyChange.switch7.eth[0].mac packetDropNotAddressedToUs:vector(packetBytes):sum 0
scalar TopologyChange.switch7.eth[0].mac packetDropNotAddressedToUs:vector(packetBytes):sumweights 0
scalar TopologyChange.switch7.eth[0].mac packetDropNotAddressedToUs:vector(packetBytes):mean -nan
scalar TopologyChange.switch7.eth[0].mac packetDropNotAddressedToUs:vector(packetBytes):stddev nan
scalar TopologyChange.switch7.eth[0].mac packetDropNotAddressedToUs:vector(packetBytes):min inf
scalar TopologyChange.switch7.eth[0].mac packetDropNotAddressedToUs:vector(packetBytes):max -inf
scalar TopologyChange.switch7.eth[0].mac packetDropNotAddressedToUs:vector(packetBytes):starttime nan
scalar TopologyChange.switch7.eth[0].mac packetDropNotAddressedToUs:vector(packetBytes):endtime nan
scalar TopologyChange.switch7.eth[0] packetDropInterfaceDown:vector(packetBytes):count 0
scalar TopologyChange.switch7.eth[0] packetDropInterfaceDown:vector(packetBytes):sum 0
scalar TopologyChange.switch7.eth[0] packetDropInterfaceDown:vector(packetBytes):sumweights 0
scalar TopologyChange.switch7.eth[0] packetDropInterfaceDown:vector(packetBytes):mean -nan
scalar TopologyChange.switch7.eth[0] packetDropInterfaceDown:vector(packetBytes):stddev nan
scalar TopologyChange.switch7.eth[0] packetDropInterfaceDown:vector(packetBytes):min inf
scalar TopologyChange.switch7.eth[0] packetDropInterfaceDown:vector(packetBytes):max -inf
scalar TopologyChange.switch7.eth[0] packetDropInterfaceDown:vector(packetBytes):starttime nan
scalar TopologyChange.switch7.eth[0] packetDropInterfaceDown:vector(packetBytes):endtime nan
scalar TopologyChange.switch7.eth[0] packetDropNoCarrier:vector(packetBytes):count 0
scalar TopologyChange.switch7.eth[0] packetDropNoCarrier:vector(packetBytes):sum 0
scalar TopologyChange.switch7.eth[0] packetDropNoCarrier:vector(packetBytes):sumweights 0
scalar TopologyChange.switch7.eth[0] packetDropNoCarrier:vector(packetBytes):mean -nan
scalar TopologyChange.switch7.eth[0] packetDropNoCarrier:vector(packetBytes):stddev nan
scalar TopologyChange.switch7.eth[0] packetDropNoCarrier:vector(packetBytes):min inf
scalar TopologyChange.switch7.eth[0] packetDropNoCarrier:vector(packetBytes):max -inf
scalar TopologyChange.switch7.eth[0] packetDropNoCarrier:vector(packetBytes):starttime nan
scalar TopologyChange.switch7.eth[0] packetDropNoCarrier:vector(packetBytes):endtime nan

