version 3
run Step10a-0-20260206-18:06:55-120905
attr configname Step10a
attr datetime 20260206-18:06:55
attr datetimef 20260206-180655
attr experiment Step10a
attr inifile omnetpp.ini
attr iterationvars ""
attr iterationvarsd ""
attr iterationvarsf ""
attr measurement ""
attr network TopologyChange
attr processid 120905
attr repetition 0
attr replication #0
attr resultdir results
attr runnumber 0
attr seedset 0
config **.param-recording false
config image-path /home/user/inet/images
config output-scalar-file results/omnetpp.ini-Step10a-#0.sca
config output-scalar-precision 17
config output-vector-file results/omnetpp.ini-Step10a-#0.vec
config output-vector-precision 17
config record-eventlog false
config sim-time-limit 1000s
config description "Router R4 goes down"
config extends Step10
config *.scenarioManager.script "xml(\"<scenario> <at t='60'> <shutdown module='R4'/> </at> </scenario>\")"
config description "Network Topology Changes"
config network TopologyChange
config *.R*.ospf.ospfConfig "xmldoc(\"ASConfig_tp_priority.xml\")"
config *.visualizer.routingTableVisualizer.displayRoutingTables true
config *.visualizer.routingTableVisualizer.destinationFilter "\"*\""
config *.visualizer.routingTableVisualizer.nodeFilter "\"R*\""
config *.*.hasStatus true
config *.scenarioManager.script "xml(\"<scenario>                                     <disconnect t='60' src-module='R4' dest-module='switch3' />                                 </scenario>\")"
config *.R3.numApps 1
config *.R3.app[0].typename PingApp
config *.R3.app[0].destAddr "\"R1\""
config *.R3.app[0].startTime 60s
config sim-time-limit 1000s
config **.ospf.cmdenv-log-level trace
config **.cmdenv-log-level off
config cmdenv-express-mode false
config *.pcapRecorder.moduleNamePatterns "\".^\""
config *.pcapRecorder.pcapFile "\"results/Step10a-0.pcap\""
config **.checksumMode "\"computed\""
config **.fcsMode "\"computed\""
config *.*.ospf.displayStringTextFormat "\"routerID: {routerID}\\n{interfaces}\""
config *.R*.hasOspf true
config *.configurator.addStaticRoutes false
config *.visualizer.interfaceTableVisualizer[0].displayInterfaceTables true
config **.visualizer.interfaceTableVisualizer.nodeFilter "\"not fullPath =~ *.N**\""
config *.visualizer.interfaceTableVisualizer.displayInterfaceTables true
config *.visualizer.numRoutingTableVisualizers 2
config *.visualizer.routingTableVisualizer[*].displayRoutingTables true
config *.visualizer.routingTableVisualizer[0].destinationFilter "\"host6\""
config *.visualizer.routingTableVisualizer[1].destinationFilter "\"host0\""
config *.visualizer.routingTableVisualizer[*].nodeFilter "\"R* and not(N*)\""
config *.visualizer.routingTableVisualizer[0].lineColor "\"blue\""
config *.visualizer.routingTableVisualizer[1].lineColor "\"red\""
config *.visualizer.routingTableVisualizer[*].labelFormat "\"%d/%m (%e) -> %g (%n)\""
config *.visualizer.routingTableVisualizer[*].lineStyle "\"dashed\""
config *.visualizer**.infoVisualizer.displayInfos true
config *.visualizer**.infoVisualizer.modules "\"**ospf\""
config *.visualizer.networkRouteVisualizer[*].displayRoutes true
config *.visualizer.networkRouteVisualizer[*].packetFilter "\"ping* or Udp*\""
config *.visualizer.networkRouteVisualizer.displayRoutes true
config *.visualizer.networkRouteVisualizer.packetFilter "\"ping* or Udp*\""

scalar TopologyChange.R2.ethernet pauseSent:count 0
scalar TopologyChange.R2.ethernet pauseSent:sum 0
scalar TopologyChange.R2.ethernet decapPk:count 1482
scalar TopologyChange.R2.ethernet decapPk:sum(packetBytes) 121106
scalar TopologyChange.R2.ethernet encapPk:count 1616
scalar TopologyChange.R2.ethernet encapPk:sum(packetBytes) 119784
scalar TopologyChange.R2.lo[0].lo rcvdPkFromHl:count 0
scalar TopologyChange.R2.lo[0].lo rcvdPkFromHl:sum(packetBytes) 0
scalar TopologyChange.R2.lo[0].lo passedUpPk:count 0
scalar TopologyChange.R2.lo[0].lo passedUpPk:sum(packetBytes) 0
scalar TopologyChange.R2.lo[0] packetDropInterfaceDown:count 0
scalar TopologyChange.R2.lo[0] packetDropInterfaceDown:sum(packetBytes) 0
scalar TopologyChange.R2.lo[0] packetDropNoCarrier:count 0
scalar TopologyChange.R2.lo[0] packetDropNoCarrier:sum(packetBytes) 0
scalar TopologyChange.R2.ppp[0].queue queueLength:last 0
scalar TopologyChange.R2.ppp[0].queue queueLength:max 4
scalar TopologyChange.R2.ppp[0].queue queueLength:timeavg 2.0719999999999995e-07
scalar TopologyChange.R2.ppp[0].queue queueBitLength:last 0
scalar TopologyChange.R2.ppp[0].queue queueBitLength:max 3840
scalar TopologyChange.R2.ppp[0].queue queueBitLength:timeavg 0.00018264063999999999
scalar TopologyChange.R2.ppp[0].queue outgoingPackets:count 1083
scalar TopologyChange.R2.ppp[0].queue outgoingPacketLengths:sum 721344
scalar TopologyChange.R2.ppp[0].queue incomingPackets:count 1083
scalar TopologyChange.R2.ppp[0].queue incomingPacketLengths:sum 721344
scalar TopologyChange.R2.ppp[0].queue droppedPacketsQueueOverflow:count 0
scalar TopologyChange.R2.ppp[0].queue droppedPacketLengthsQueueOverflow:sum 0
scalar TopologyChange.R2.ppp[0].ppp transmissionState:timeavg 7.8199200000000839e-06
scalar TopologyChange.R2.ppp[0].ppp rxPkOk:count 1062
scalar TopologyChange.R2.ppp[0].ppp rxPkOk:sum(packetBytes) 95322
scalar TopologyChange.R2.ppp[0].ppp txPk:count 1083
scalar TopologyChange.R2.ppp[0].ppp txPk:sum(packetBytes) 97749
scalar TopologyChange.R2.ppp[0].ppp rcvdPkFromHl:count 1083
scalar TopologyChange.R2.ppp[0].ppp rcvdPkFromHl:sum(packetBytes) 90168
scalar TopologyChange.R2.ppp[0].ppp passedUpPk:count 1062
scalar TopologyChange.R2.ppp[0].ppp passedUpPk:sum(packetBytes) 87888
scalar TopologyChange.R2.ppp[0].ppp packetDropIncorrectlyReceived:count 0
scalar TopologyChange.R2.ppp[0].ppp packetDropIncorrectlyReceived:sum(packetBytes) 0
scalar TopologyChange.R2.ppp[0].ppp packetDropInterfaceDown:count 0
scalar TopologyChange.R2.ppp[0].ppp packetDropInterfaceDown:sum(packetBytes) 0
scalar TopologyChange.R2.ppp[0] packetDropInterfaceDown:count 0
scalar TopologyChange.R2.ppp[0] packetDropInterfaceDown:sum(packetBytes) 0
scalar TopologyChange.R2.ppp[0] packetDropNoCarrier:count 0
scalar TopologyChange.R2.ppp[0] packetDropNoCarrier:sum(packetBytes) 0
scalar TopologyChange.R2.eth[0].queue queueLength:last 0
scalar TopologyChange.R2.eth[0].queue queueLength:max 9
scalar TopologyChange.R2.eth[0].queue queueLength:timeavg 1.527679999999999e-06
scalar TopologyChange.R2.eth[0].queue queueBitLength:last 0
scalar TopologyChange.R2.eth[0].queue queueBitLength:max 7728
scalar TopologyChange.R2.eth[0].queue queueBitLength:timeavg 0.0012666419199999989
scalar TopologyChange.R2.eth[0].queue outgoingPackets:count 1516
scalar TopologyChange.R2.eth[0].queue outgoingPacketLengths:sum 1125376
scalar TopologyChange.R2.eth[0].queue incomingPackets:count 1516
scalar TopologyChange.R2.eth[0].queue incomingPacketLengths:sum 1125376
scalar TopologyChange.R2.eth[0].queue droppedPacketsQueueOverflow:count 0
scalar TopologyChange.R2.eth[0].queue droppedPacketLengthsQueueOverflow:sum 0
scalar TopologyChange.R2.eth[0].mac "simulated time" 1000
scalar TopologyChange.R2.eth[0].mac full-duplex 1
scalar TopologyChange.R2.eth[0].mac "frames/sec sent" 1.516
scalar TopologyChange.R2.eth[0].mac "frames/sec rcvd" 1.482
scalar TopologyChange.R2.eth[0].mac "bits/sec sent" 1127.9680000000001
scalar TopologyChange.R2.eth[0].mac "bits/sec rcvd" 1182.2560000000001
scalar TopologyChange.R2.eth[0].mac "rx channel idle (%)" 99.998722896000004
scalar TopologyChange.R2.eth[0].mac "rx channel utilization (%)" 0.001277104
scalar TopologyChange.R2.eth[0].mac rxPausePkUnits:count 0
scalar TopologyChange.R2.eth[0].mac rxPausePkUnits:sum 0
scalar TopologyChange.R2.eth[0].mac txPausePkUnits:count 0
scalar TopologyChange.R2.eth[0].mac txPausePkUnits:sum 0
scalar TopologyChange.R2.eth[0].mac rxPkOk:count 1482
scalar TopologyChange.R2.eth[0].mac rxPkOk:sum(packetBytes) 147782
scalar TopologyChange.R2.eth[0].mac txPk:count 1516
scalar TopologyChange.R2.eth[0].mac txPk:sum(packetBytes) 140996
scalar TopologyChange.R2.eth[0].mac packetReceivedFromUpper:count 1516
scalar TopologyChange.R2.eth[0].mac packetReceivedFromUpper:sum(packetBytes) 140672
scalar TopologyChange.R2.eth[0].mac passedUpPk:count 1482
scalar TopologyChange.R2.eth[0].mac passedUpPk:sum(packetBytes) 147782
scalar TopologyChange.R2.eth[0].mac packetDropIncorrectlyReceived:count 0
scalar TopologyChange.R2.eth[0].mac packetDropIncorrectlyReceived:sum(packetBytes) 0
scalar TopologyChange.R2.eth[0].mac packetDropInterfaceDown:count 0
scalar TopologyChange.R2.eth[0].mac packetDropInterfaceDown:sum(packetBytes) 0
scalar TopologyChange.R2.eth[0].mac packetDropNotAddressedToUs:count 0
scalar TopologyChange.R2.eth[0].mac packetDropNotAddressedToUs:sum(packetBytes) 0
scalar TopologyChange.R2.eth[0] packetDropInterfaceDown:count 0
scalar TopologyChange.R2.eth[0] packetDropInterfaceDown:sum(packetBytes) 0
scalar TopologyChange.R2.eth[0] packetDropNoCarrier:count 0
scalar TopologyChange.R2.eth[0] packetDropNoCarrier:sum(packetBytes) 0
scalar TopologyChange.R2.eth[1].queue queueLength:last 0
scalar TopologyChange.R2.eth[1].queue queueLength:max 0
scalar TopologyChange.R2.eth[1].queue queueLength:timeavg 0
scalar TopologyChange.R2.eth[1].queue queueBitLength:last 0
scalar TopologyChange.R2.eth[1].queue queueBitLength:max 0
scalar TopologyChange.R2.eth[1].queue queueBitLength:timeavg 0
scalar TopologyChange.R2.eth[1].queue outgoingPackets:count 100
scalar TopologyChange.R2.eth[1].queue outgoingPacketLengths:sum 65600
scalar TopologyChange.R2.eth[1].queue incomingPackets:count 100
scalar TopologyChange.R2.eth[1].queue incomingPacketLengths:sum 65600
scalar TopologyChange.R2.eth[1].queue droppedPacketsQueueOverflow:count 0
scalar TopologyChange.R2.eth[1].queue droppedPacketLengthsQueueOverflow:sum 0
scalar TopologyChange.R2.eth[1].mac "simulated time" 1000
scalar TopologyChange.R2.eth[1].mac full-duplex 1
scalar TopologyChange.R2.eth[1].mac "frames/sec sent" 0.10000000000000001
scalar TopologyChange.R2.eth[1].mac "frames/sec rcvd" 0
scalar TopologyChange.R2.eth[1].mac "bits/sec sent" 65.599999999999994
scalar TopologyChange.R2.eth[1].mac "bits/sec rcvd" 0
scalar TopologyChange.R2.eth[1].mac "rx channel idle (%)" 100
scalar TopologyChange.R2.eth[1].mac "rx channel utilization (%)" 0
scalar TopologyChange.R2.eth[1].mac rxPausePkUnits:count 0
scalar TopologyChange.R2.eth[1].mac rxPausePkUnits:sum 0
scalar TopologyChange.R2.eth[1].mac txPausePkUnits:count 0
scalar TopologyChange.R2.eth[1].mac txPausePkUnits:sum 0
scalar TopologyChange.R2.eth[1].mac rxPkOk:count 0
scalar TopologyChange.R2.eth[1].mac rxPkOk:sum(packetBytes) 0
scalar TopologyChange.R2.eth[1].mac txPk:count 100
scalar TopologyChange.R2.eth[1].mac txPk:sum(packetBytes) 8200
scalar TopologyChange.R2.eth[1].mac packetReceivedFromUpper:count 100
scalar TopologyChange.R2.eth[1].mac packetReceivedFromUpper:sum(packetBytes) 8200
scalar TopologyChange.R2.eth[1].mac passedUpPk:count 0
scalar TopologyChange.R2.eth[1].mac passedUpPk:sum(packetBytes) 0
scalar TopologyChange.R2.eth[1].mac packetDropIncorrectlyReceived:count 0
scalar TopologyChange.R2.eth[1].mac packetDropIncorrectlyReceived:sum(packetBytes) 0
scalar TopologyChange.R2.eth[1].mac packetDropInterfaceDown:count 0
scalar TopologyChange.R2.eth[1].mac packetDropInterfaceDown:sum(packetBytes) 0
scalar TopologyChange.R2.eth[1].mac packetDropNotAddressedToUs:count 0
scalar TopologyChange.R2.eth[1].mac packetDropNotAddressedToUs:sum(packetBytes) 0
scalar TopologyChange.R2.eth[1] packetDropInterfaceDown:count 0
scalar TopologyChange.R2.eth[1] packetDropInterfaceDown:sum(packetBytes) 0
scalar TopologyChange.R2.eth[1] packetDropNoCarrier:count 0
scalar TopologyChange.R2.eth[1] packetDropNoCarrier:sum(packetBytes) 0
scalar TopologyChange.R2.ipv4.ip packetDropAddressResolutionFailed:count 0
scalar TopologyChange.R2.ipv4.ip packetDropAddressResolutionFailed:sum(packetBytes) 0
scalar TopologyChange.R2.ipv4.ip packetDropHopLimitReached:count 0
scalar TopologyChange.R2.ipv4.ip packetDropHopLimitReached:sum(packetBytes) 0
scalar TopologyChange.R2.ipv4.ip packetDropForwardingDisabled:count 0
scalar TopologyChange.R2.ipv4.ip packetDropForwardingDisabled:sum(packetBytes) 0
scalar TopologyChange.R2.ipv4.ip packetDropLifetimeExpired:count 0
scalar TopologyChange.R2.ipv4.ip packetDropLifetimeExpired:sum(packetBytes) 0
scalar TopologyChange.R2.ipv4.ip packetDropNoInterfaceFound:count 0
scalar TopologyChange.R2.ipv4.ip packetDropNoInterfaceFound:sum(packetBytes) 0
scalar TopologyChange.R2.ipv4.ip packetDropNoRouteFound:count 0
scalar TopologyChange.R2.ipv4.ip packetDropNoRouteFound:sum(packetBytes) 0
scalar TopologyChange.R2.ipv4.ip packetDropUndefined:count 0
scalar TopologyChange.R2.ipv4.ip packetDropUndefined:sum(packetBytes) 0
scalar TopologyChange.R2.ipv4.arp arpResolutionFailed:count 0
scalar TopologyChange.R2.ipv4.arp arpResolutionCompleted:count 18
scalar TopologyChange.R2.ipv4.arp arpResolutionInitiated:count 15
scalar TopologyChange.R2.ipv4.arp arpReplySent:count 3
scalar TopologyChange.R2.ipv4.arp arpReplySent:sum(packetBytes) 84
scalar TopologyChange.R2.ipv4.arp arpRequestSent:count 15
scalar TopologyChange.R2.ipv4.arp arpRequestSent:sum(packetBytes) 420
scalar TopologyChange.switch3.bridging "processed frames" 0
scalar TopologyChange.switch3.bridging "discarded frames" 0
scalar TopologyChange.switch3.bridging "number of received BPDUs from STP module" 0
scalar TopologyChange.switch3.bridging "number of received frames from network (including BPDUs)" 6
scalar TopologyChange.switch3.bridging "number of dropped frames (including BPDUs)" 0
scalar TopologyChange.switch3.bridging "number of delivered BPDUs to the STP module" 0
scalar TopologyChange.switch3.bridging "number of dispatched BPDU frames to the network" 0
scalar TopologyChange.switch3.bridging "number of dispatched non-BDPU frames to the network" 0
scalar TopologyChange.switch3.bridging packetDropped:count 0
scalar TopologyChange.switch3.bridging packetDropped:sum(packetBytes) 0
scalar TopologyChange.switch3.ethernet pauseSent:count 0
scalar TopologyChange.switch3.ethernet pauseSent:sum 0
scalar TopologyChange.switch3.ethernet decapPk:count 6
scalar TopologyChange.switch3.ethernet decapPk:sum(packetBytes) 384
scalar TopologyChange.switch3.ethernet encapPk:count 0
scalar TopologyChange.switch3.ethernet encapPk:sum(packetBytes) 0
scalar TopologyChange.switch3.eth[0].queue queueLength:last 0
scalar TopologyChange.switch3.eth[0].queue queueLength:max 0
scalar TopologyChange.switch3.eth[0].queue queueLength:timeavg 0
scalar TopologyChange.switch3.eth[0].queue queueBitLength:last 0
scalar TopologyChange.switch3.eth[0].queue queueBitLength:max 0
scalar TopologyChange.switch3.eth[0].queue queueBitLength:timeavg 0
scalar TopologyChange.switch3.eth[0].queue outgoingPackets:count 0
scalar TopologyChange.switch3.eth[0].queue outgoingPacketLengths:sum 0
scalar TopologyChange.switch3.eth[0].queue incomingPackets:count 0
scalar TopologyChange.switch3.eth[0].queue incomingPacketLengths:sum 0
scalar TopologyChange.switch3.eth[0].queue droppedPacketsQueueOverflow:count 0
scalar TopologyChange.switch3.eth[0].queue droppedPacketLengthsQueueOverflow:sum 0
scalar TopologyChange.switch3.eth[0].mac "simulated time" 1000
scalar TopologyChange.switch3.eth[0].mac full-duplex 1
scalar TopologyChange.switch3.eth[0].mac "frames/sec sent" 0
scalar TopologyChange.switch3.eth[0].mac "frames/sec rcvd" 0.0060000000000000001
scalar TopologyChange.switch3.eth[0].mac "bits/sec sent" 0
scalar TopologyChange.switch3.eth[0].mac "bits/sec rcvd" 3.9359999999999999
scalar TopologyChange.switch3.eth[0].mac "rx channel idle (%)" 99.999995679999998
scalar TopologyChange.switch3.eth[0].mac "rx channel utilization (%)" 4.3200000000000001e-06
scalar TopologyChange.switch3.eth[0].mac rxPausePkUnits:count 0
scalar TopologyChange.switch3.eth[0].mac rxPausePkUnits:sum 0
scalar TopologyChange.switch3.eth[0].mac txPausePkUnits:count 0
scalar TopologyChange.switch3.eth[0].mac txPausePkUnits:sum 0
scalar TopologyChange.switch3.eth[0].mac rxPkOk:count 6
scalar TopologyChange.switch3.eth[0].mac rxPkOk:sum(packetBytes) 492
scalar TopologyChange.switch3.eth[0].mac txPk:count 0
scalar TopologyChange.switch3.eth[0].mac txPk:sum(packetBytes) 0
scalar TopologyChange.switch3.eth[0].mac packetReceivedFromUpper:count 0
scalar TopologyChange.switch3.eth[0].mac packetReceivedFromUpper:sum(packetBytes) 0
scalar TopologyChange.switch3.eth[0].mac passedUpPk:count 6
scalar TopologyChange.switch3.eth[0].mac passedUpPk:sum(packetBytes) 492
scalar TopologyChange.switch3.eth[0].mac packetDropIncorrectlyReceived:count 0
scalar TopologyChange.switch3.eth[0].mac packetDropIncorrectlyReceived:sum(packetBytes) 0
scalar TopologyChange.switch3.eth[0].mac packetDropInterfaceDown:count 0
scalar TopologyChange.switch3.eth[0].mac packetDropInterfaceDown:sum(packetBytes) 0
scalar TopologyChange.switch3.eth[0].mac packetDropNotAddressedToUs:count 0
scalar TopologyChange.switch3.eth[0].mac packetDropNotAddressedToUs:sum(packetBytes) 0
scalar TopologyChange.switch3.eth[0] packetDropInterfaceDown:count 0
scalar TopologyChange.switch3.eth[0] packetDropInterfaceDown:sum(packetBytes) 0
scalar TopologyChange.switch3.eth[0] packetDropNoCarrier:count 0
scalar TopologyChange.switch3.eth[0] packetDropNoCarrier:sum(packetBytes) 0
scalar TopologyChange.R4.ethernet pauseSent:count 0
scalar TopologyChange.R4.ethernet pauseSent:sum 0
scalar TopologyChange.R4.ethernet decapPk:count 0
scalar TopologyChange.R4.ethernet decapPk:sum(packetBytes) 0
scalar TopologyChange.R4.ethernet encapPk:count 6
scalar TopologyChange.R4.ethernet encapPk:sum(packetBytes) 384
scalar TopologyChange.R4.lo[0].lo rcvdPkFromHl:count 0
scalar TopologyChange.R4.lo[0].lo rcvdPkFromHl:sum(packetBytes) 0
scalar TopologyChange.R4.lo[0].lo passedUpPk:count 0
scalar TopologyChange.R4.lo[0].lo passedUpPk:sum(packetBytes) 0
scalar TopologyChange.R4.lo[0] packetDropInterfaceDown:count 0
scalar TopologyChange.R4.lo[0] packetDropInterfaceDown:sum(packetBytes) 0
scalar TopologyChange.R4.lo[0] packetDropNoCarrier:count 0
scalar TopologyChange.R4.lo[0] packetDropNoCarrier:sum(packetBytes) 0
scalar TopologyChange.R4.ppp[0].queue queueLength:last 0
scalar TopologyChange.R4.ppp[0].queue queueLength:max 1
scalar TopologyChange.R4.ppp[0].queue queueLength:timeavg 1.0399999999999999e-08
scalar TopologyChange.R4.ppp[0].queue queueBitLength:last 0
scalar TopologyChange.R4.ppp[0].queue queueBitLength:max 672
scalar TopologyChange.R4.ppp[0].queue queueBitLength:timeavg 6.3846399999999992e-06
scalar TopologyChange.R4.ppp[0].queue outgoingPackets:count 20
scalar TopologyChange.R4.ppp[0].queue outgoingPacketLengths:sum 14112
scalar TopologyChange.R4.ppp[0].queue incomingPackets:count 20
scalar TopologyChange.R4.ppp[0].queue incomingPacketLengths:sum 14112
scalar TopologyChange.R4.ppp[0].queue droppedPacketsQueueOverflow:count 0
scalar TopologyChange.R4.ppp[0].queue droppedPacketLengthsQueueOverflow:sum 0
scalar TopologyChange.R4.ppp[0].ppp transmissionState:timeavg 1.5231999999999998e-07
scalar TopologyChange.R4.ppp[0].ppp rxPkOk:count 41
scalar TopologyChange.R4.ppp[0].ppp rxPkOk:sum(packetBytes) 4039
scalar TopologyChange.R4.ppp[0].ppp txPk:count 20
scalar TopologyChange.R4.ppp[0].ppp txPk:sum(packetBytes) 1904
scalar TopologyChange.R4.ppp[0].ppp rcvdPkFromHl:count 20
scalar TopologyChange.R4.ppp[0].ppp rcvdPkFromHl:sum(packetBytes) 1764
scalar TopologyChange.R4.ppp[0].ppp passedUpPk:count 41
scalar TopologyChange.R4.ppp[0].ppp passedUpPk:sum(packetBytes) 3752
scalar TopologyChange.R4.ppp[0].ppp packetDropIncorrectlyReceived:count 0
scalar TopologyChange.R4.ppp[0].ppp packetDropIncorrectlyReceived:sum(packetBytes) 0
scalar TopologyChange.R4.ppp[0].ppp packetDropInterfaceDown:count 0
scalar TopologyChange.R4.ppp[0].ppp packetDropInterfaceDown:sum(packetBytes) 0
scalar TopologyChange.R4.ppp[0] packetDropInterfaceDown:count 0
scalar TopologyChange.R4.ppp[0] packetDropInterfaceDown:sum(packetBytes) 0
scalar TopologyChange.R4.ppp[0] packetDropNoCarrier:count 0
scalar TopologyChange.R4.ppp[0] packetDropNoCarrier:sum(packetBytes) 0
scalar TopologyChange.R4.eth[0].queue queueLength:last 0
scalar TopologyChange.R4.eth[0].queue queueLength:max 0
scalar TopologyChange.R4.eth[0].queue queueLength:timeavg 0
scalar TopologyChange.R4.eth[0].queue queueBitLength:last 0
scalar TopologyChange.R4.eth[0].queue queueBitLength:max 0
scalar TopologyChange.R4.eth[0].queue queueBitLength:timeavg 0
scalar TopologyChange.R4.eth[0].queue outgoingPackets:count 6
scalar TopologyChange.R4.eth[0].queue outgoingPacketLengths:sum 3936
scalar TopologyChange.R4.eth[0].queue incomingPackets:count 6
scalar TopologyChange.R4.eth[0].queue incomingPacketLengths:sum 3936
scalar TopologyChange.R4.eth[0].queue droppedPacketsQueueOverflow:count 0
scalar TopologyChange.R4.eth[0].queue droppedPacketLengthsQueueOverflow:sum 0
scalar TopologyChange.R4.eth[0].mac "simulated time" 1000
scalar TopologyChange.R4.eth[0].mac full-duplex 1
scalar TopologyChange.R4.eth[0].mac "frames/sec sent" 0.0060000000000000001
scalar TopologyChange.R4.eth[0].mac "frames/sec rcvd" 0
scalar TopologyChange.R4.eth[0].mac "bits/sec sent" 3.9359999999999999
scalar TopologyChange.R4.eth[0].mac "bits/sec rcvd" 0
scalar TopologyChange.R4.eth[0].mac "rx channel idle (%)" 100
scalar TopologyChange.R4.eth[0].mac "rx channel utilization (%)" 0
scalar TopologyChange.R4.eth[0].mac rxPausePkUnits:count 0
scalar TopologyChange.R4.eth[0].mac rxPausePkUnits:sum 0
scalar TopologyChange.R4.eth[0].mac txPausePkUnits:count 0
scalar TopologyChange.R4.eth[0].mac txPausePkUnits:sum 0
scalar TopologyChange.R4.eth[0].mac rxPkOk:count 0
scalar TopologyChange.R4.eth[0].mac rxPkOk:sum(packetBytes) 0
scalar TopologyChange.R4.eth[0].mac txPk:count 6
scalar TopologyChange.R4.eth[0].mac txPk:sum(packetBytes) 492
scalar TopologyChange.R4.eth[0].mac packetReceivedFromUpper:count 6
scalar TopologyChange.R4.eth[0].mac packetReceivedFromUpper:sum(packetBytes) 492
scalar TopologyChange.R4.eth[0].mac passedUpPk:count 0
scalar TopologyChange.R4.eth[0].mac passedUpPk:sum(packetBytes) 0
scalar TopologyChange.R4.eth[0].mac packetDropIncorrectlyReceived:count 0
scalar TopologyChange.R4.eth[0].mac packetDropIncorrectlyReceived:sum(packetBytes) 0
scalar TopologyChange.R4.eth[0].mac packetDropInterfaceDown:count 0
scalar TopologyChange.R4.eth[0].mac packetDropInterfaceDown:sum(packetBytes) 0
scalar TopologyChange.R4.eth[0].mac packetDropNotAddressedToUs:count 0
scalar TopologyChange.R4.eth[0].mac packetDropNotAddressedToUs:sum(packetBytes) 0
scalar TopologyChange.R4.eth[0] packetDropInterfaceDown:count 0
scalar TopologyChange.R4.eth[0] packetDropInterfaceDown:sum(packetBytes) 0
scalar TopologyChange.R4.eth[0] packetDropNoCarrier:count 0
scalar TopologyChange.R4.eth[0] packetDropNoCarrier:sum(packetBytes) 0
scalar TopologyChange.R4.ipv4.ip packetDropAddressResolutionFailed:count 0
scalar TopologyChange.R4.ipv4.ip packetDropAddressResolutionFailed:sum(packetBytes) 0
scalar TopologyChange.R4.ipv4.ip packetDropHopLimitReached:count 0
scalar TopologyChange.R4.ipv4.ip packetDropHopLimitReached:sum(packetBytes) 0
scalar TopologyChange.R4.ipv4.ip packetDropForwardingDisabled:count 0
scalar TopologyChange.R4.ipv4.ip packetDropForwardingDisabled:sum(packetBytes) 0
scalar TopologyChange.R4.ipv4.ip packetDropLifetimeExpired:count 0
scalar TopologyChange.R4.ipv4.ip packetDropLifetimeExpired:sum(packetBytes) 0
scalar TopologyChange.R4.ipv4.ip packetDropNoInterfaceFound:count 0
scalar TopologyChange.R4.ipv4.ip packetDropNoInterfaceFound:sum(packetBytes) 0
scalar TopologyChange.R4.ipv4.ip packetDropNoRouteFound:count 0
scalar TopologyChange.R4.ipv4.ip packetDropNoRouteFound:sum(packetBytes) 0
scalar TopologyChange.R4.ipv4.ip packetDropUndefined:count 0
scalar TopologyChange.R4.ipv4.ip packetDropUndefined:sum(packetBytes) 0
scalar TopologyChange.R4.ipv4.arp arpResolutionFailed:count 0
scalar TopologyChange.R4.ipv4.arp arpResolutionCompleted:count 0
scalar TopologyChange.R4.ipv4.arp arpResolutionInitiated:count 0
scalar TopologyChange.R4.ipv4.arp arpReplySent:count 0
scalar TopologyChange.R4.ipv4.arp arpReplySent:sum(packetBytes) 0
scalar TopologyChange.R4.ipv4.arp arpRequestSent:count 0
scalar TopologyChange.R4.ipv4.arp arpRequestSent:sum(packetBytes) 0
scalar TopologyChange.R3.ethernet pauseSent:count 0
scalar TopologyChange.R3.ethernet pauseSent:sum 0
scalar TopologyChange.R3.ethernet decapPk:count 0
scalar TopologyChange.R3.ethernet decapPk:sum(packetBytes) 0
scalar TopologyChange.R3.ethernet encapPk:count 100
scalar TopologyChange.R3.ethernet encapPk:sum(packetBytes) 6400
scalar TopologyChange.R3.lo[0].lo rcvdPkFromHl:count 0
scalar TopologyChange.R3.lo[0].lo rcvdPkFromHl:sum(packetBytes) 0
scalar TopologyChange.R3.lo[0].lo passedUpPk:count 0
scalar TopologyChange.R3.lo[0].lo passedUpPk:sum(packetBytes) 0
scalar TopologyChange.R3.lo[0] packetDropInterfaceDown:count 0
scalar TopologyChange.R3.lo[0] packetDropInterfaceDown:sum(packetBytes) 0
scalar TopologyChange.R3.lo[0] packetDropNoCarrier:count 0
scalar TopologyChange.R3.lo[0] packetDropNoCarrier:sum(packetBytes) 0
scalar TopologyChange.R3.ppp[0].queue queueLength:last 0
scalar TopologyChange.R3.ppp[0].queue queueLength:max 2
scalar TopologyChange.R3.ppp[0].queue queueLength:timeavg 3.0639999999999995e-08
scalar TopologyChange.R3.ppp[0].queue queueBitLength:last 0
scalar TopologyChange.R3.ppp[0].queue queueBitLength:max 1056
scalar TopologyChange.R3.ppp[0].queue queueBitLength:timeavg 1.9243520000000001e-05
scalar TopologyChange.R3.ppp[0].queue outgoingPackets:count 1063
scalar TopologyChange.R3.ppp[0].queue outgoingPacketLengths:sum 703776
scalar TopologyChange.R3.ppp[0].queue incomingPackets:count 1063
scalar TopologyChange.R3.ppp[0].queue incomingPacketLengths:sum 703776
scalar TopologyChange.R3.ppp[0].queue droppedPacketsQueueOverflow:count 0
scalar TopologyChange.R3.ppp[0].queue droppedPacketLengthsQueueOverflow:sum 0
scalar TopologyChange.R3.ppp[0].ppp transmissionState:timeavg 7.6257600000000818e-06
scalar TopologyChange.R3.ppp[0].ppp rxPkOk:count 1083
scalar TopologyChange.R3.ppp[0].ppp rxPkOk:sum(packetBytes) 97749
scalar TopologyChange.R3.ppp[0].ppp txPk:count 1063
scalar TopologyChange.R3.ppp[0].ppp txPk:sum(packetBytes) 95413
scalar TopologyChange.R3.ppp[0].ppp rcvdPkFromHl:count 1063
scalar TopologyChange.R3.ppp[0].ppp rcvdPkFromHl:sum(packetBytes) 87972
scalar TopologyChange.R3.ppp[0].ppp passedUpPk:count 1083
scalar TopologyChange.R3.ppp[0].ppp passedUpPk:sum(packetBytes) 90168
scalar TopologyChange.R3.ppp[0].ppp packetDropIncorrectlyReceived:count 0
scalar TopologyChange.R3.ppp[0].ppp packetDropIncorrectlyReceived:sum(packetBytes) 0
scalar TopologyChange.R3.ppp[0].ppp packetDropInterfaceDown:count 0
scalar TopologyChange.R3.ppp[0].ppp packetDropInterfaceDown:sum(packetBytes) 0
scalar TopologyChange.R3.ppp[0] packetDropInterfaceDown:count 0
scalar TopologyChange.R3.ppp[0] packetDropInterfaceDown:sum(packetBytes) 0
scalar TopologyChange.R3.ppp[0] packetDropNoCarrier:count 0
scalar TopologyChange.R3.ppp[0] packetDropNoCarrier:sum(packetBytes) 0
scalar TopologyChange.R3.ppp[1].queue queueLength:last 0
scalar TopologyChange.R3.ppp[1].queue queueLength:max 2
scalar TopologyChange.R3.ppp[1].queue queueLength:timeavg 2.7999999999999999e-08
scalar TopologyChange.R3.ppp[1].queue queueBitLength:last 0
scalar TopologyChange.R3.ppp[1].queue queueBitLength:max 1824
scalar TopologyChange.R3.ppp[1].queue queueBitLength:timeavg 2.1844479999999999e-05
scalar TopologyChange.R3.ppp[1].queue outgoingPackets:count 135
scalar TopologyChange.R3.ppp[1].queue outgoingPacketLengths:sum 78272
scalar TopologyChange.R3.ppp[1].queue incomingPackets:count 135
scalar TopologyChange.R3.ppp[1].queue incomingPacketLengths:sum 78272
scalar TopologyChange.R3.ppp[1].queue droppedPacketsQueueOverflow:count 0
scalar TopologyChange.R3.ppp[1].queue droppedPacketLengthsQueueOverflow:sum 0
scalar TopologyChange.R3.ppp[1].ppp transmissionState:timeavg 8.5831999999999875e-07
scalar TopologyChange.R3.ppp[1].ppp rxPkOk:count 20
scalar TopologyChange.R3.ppp[1].ppp rxPkOk:sum(packetBytes) 1904
scalar TopologyChange.R3.ppp[1].ppp txPk:count 135
scalar TopologyChange.R3.ppp[1].ppp txPk:sum(packetBytes) 10729
scalar TopologyChange.R3.ppp[1].ppp rcvdPkFromHl:count 135
scalar TopologyChange.R3.ppp[1].ppp rcvdPkFromHl:sum(packetBytes) 9784
scalar TopologyChange.R3.ppp[1].ppp passedUpPk:count 20
scalar TopologyChange.R3.ppp[1].ppp passedUpPk:sum(packetBytes) 1764
scalar TopologyChange.R3.ppp[1].ppp packetDropIncorrectlyReceived:count 0
scalar TopologyChange.R3.ppp[1].ppp packetDropIncorrectlyReceived:sum(packetBytes) 0
scalar TopologyChange.R3.ppp[1].ppp packetDropInterfaceDown:count 0
scalar TopologyChange.R3.ppp[1].ppp packetDropInterfaceDown:sum(packetBytes) 0
scalar TopologyChange.R3.ppp[1] packetDropInterfaceDown:count 0
scalar TopologyChange.R3.ppp[1] packetDropInterfaceDown:sum(packetBytes) 0
scalar TopologyChange.R3.ppp[1] packetDropNoCarrier:count 0
scalar TopologyChange.R3.ppp[1] packetDropNoCarrier:sum(packetBytes) 0
scalar TopologyChange.R3.eth[0].queue queueLength:last 0
scalar TopologyChange.R3.eth[0].queue queueLength:max 0
scalar TopologyChange.R3.eth[0].queue queueLength:timeavg 0
scalar TopologyChange.R3.eth[0].queue queueBitLength:last 0
scalar TopologyChange.R3.eth[0].queue queueBitLength:max 0
scalar TopologyChange.R3.eth[0].queue queueBitLength:timeavg 0
scalar TopologyChange.R3.eth[0].queue outgoingPackets:count 100
scalar TopologyChange.R3.eth[0].queue outgoingPacketLengths:sum 65600
scalar TopologyChange.R3.eth[0].queue incomingPackets:count 100
scalar TopologyChange.R3.eth[0].queue incomingPacketLengths:sum 65600
scalar TopologyChange.R3.eth[0].queue droppedPacketsQueueOverflow:count 0
scalar TopologyChange.R3.eth[0].queue droppedPacketLengthsQueueOverflow:sum 0
scalar TopologyChange.R3.eth[0].mac "simulated time" 1000
scalar TopologyChange.R3.eth[0].mac full-duplex 1
scalar TopologyChange.R3.eth[0].mac "frames/sec sent" 0.10000000000000001
scalar TopologyChange.R3.eth[0].mac "frames/sec rcvd" 0
scalar TopologyChange.R3.eth[0].mac "bits/sec sent" 65.599999999999994
scalar TopologyChange.R3.eth[0].mac "bits/sec rcvd" 0
scalar TopologyChange.R3.eth[0].mac "rx channel idle (%)" 100
scalar TopologyChange.R3.eth[0].mac "rx channel utilization (%)" 0
scalar TopologyChange.R3.eth[0].mac rxPausePkUnits:count 0
scalar TopologyChange.R3.eth[0].mac rxPausePkUnits:sum 0
scalar TopologyChange.R3.eth[0].mac txPausePkUnits:count 0
scalar TopologyChange.R3.eth[0].mac txPausePkUnits:sum 0
scalar TopologyChange.R3.eth[0].mac rxPkOk:count 0
scalar TopologyChange.R3.eth[0].mac rxPkOk:sum(packetBytes) 0
scalar TopologyChange.R3.eth[0].mac txPk:count 100
scalar TopologyChange.R3.eth[0].mac txPk:sum(packetBytes) 8200
scalar TopologyChange.R3.eth[0].mac packetReceivedFromUpper:count 100
scalar TopologyChange.R3.eth[0].mac packetReceivedFromUpper:sum(packetBytes) 8200
scalar TopologyChange.R3.eth[0].mac passedUpPk:count 0
scalar TopologyChange.R3.eth[0].mac passedUpPk:sum(packetBytes) 0
scalar TopologyChange.R3.eth[0].mac packetDropIncorrectlyReceived:count 0
scalar TopologyChange.R3.eth[0].mac packetDropIncorrectlyReceived:sum(packetBytes) 0
scalar TopologyChange.R3.eth[0].mac packetDropInterfaceDown:count 0
scalar TopologyChange.R3.eth[0].mac packetDropInterfaceDown:sum(packetBytes) 0
scalar TopologyChange.R3.eth[0].mac packetDropNotAddressedToUs:count 0
scalar TopologyChange.R3.eth[0].mac packetDropNotAddressedToUs:sum(packetBytes) 0
scalar TopologyChange.R3.eth[0] packetDropInterfaceDown:count 0
scalar TopologyChange.R3.eth[0] packetDropInterfaceDown:sum(packetBytes) 0
scalar TopologyChange.R3.eth[0] packetDropNoCarrier:count 0
scalar TopologyChange.R3.eth[0] packetDropNoCarrier:sum(packetBytes) 0
scalar TopologyChange.R3.ipv4.ip packetDropAddressResolutionFailed:count 0
scalar TopologyChange.R3.ipv4.ip packetDropAddressResolutionFailed:sum(packetBytes) 0
scalar TopologyChange.R3.ipv4.ip packetDropHopLimitReached:count 0
scalar TopologyChange.R3.ipv4.ip packetDropHopLimitReached:sum(packetBytes) 0
scalar TopologyChange.R3.ipv4.ip packetDropForwardingDisabled:count 0
scalar TopologyChange.R3.ipv4.ip packetDropForwardingDisabled:sum(packetBytes) 0
scalar TopologyChange.R3.ipv4.ip packetDropLifetimeExpired:count 0
scalar TopologyChange.R3.ipv4.ip packetDropLifetimeExpired:sum(packetBytes) 0
scalar TopologyChange.R3.ipv4.ip packetDropNoInterfaceFound:count 0
scalar TopologyChange.R3.ipv4.ip packetDropNoInterfaceFound:sum(packetBytes) 0
scalar TopologyChange.R3.ipv4.ip packetDropNoRouteFound:count 0
scalar TopologyChange.R3.ipv4.ip packetDropNoRouteFound:sum(packetBytes) 0
scalar TopologyChange.R3.ipv4.ip packetDropUndefined:count 0
scalar TopologyChange.R3.ipv4.ip packetDropUndefined:sum(packetBytes) 0
scalar TopologyChange.R3.ipv4.arp arpResolutionFailed:count 0
scalar TopologyChange.R3.ipv4.arp arpResolutionCompleted:count 0
scalar TopologyChange.R3.ipv4.arp arpResolutionInitiated:count 0
scalar TopologyChange.R3.ipv4.arp arpReplySent:count 0
scalar TopologyChange.R3.ipv4.arp arpReplySent:sum(packetBytes) 0
scalar TopologyChange.R3.ipv4.arp arpRequestSent:count 0
scalar TopologyChange.R3.ipv4.arp arpRequestSent:sum(packetBytes) 0
scalar TopologyChange.R3.app[0] "Pings sent" 941
scalar TopologyChange.R3.app[0] "ping loss rate (%)" 0.10626992561105207
scalar TopologyChange.R3.app[0] "ping out-of-order rate (%)" 0
scalar TopologyChange.R3.app[0] pingRxSeq:count 940
scalar TopologyChange.R3.app[0] pingTxSeq:count 941
scalar TopologyChange.R3.app[0] numOutOfOrderArrivals:last nan
scalar TopologyChange.R3.app[0] numLost:last nan
scalar TopologyChange.switch2.bridging "processed frames" 0
scalar TopologyChange.switch2.bridging "discarded frames" 0
scalar TopologyChange.switch2.bridging "number of received BPDUs from STP module" 0
scalar TopologyChange.switch2.bridging "number of received frames from network (including BPDUs)" 3058
scalar TopologyChange.switch2.bridging "number of dropped frames (including BPDUs)" 0
scalar TopologyChange.switch2.bridging "number of delivered BPDUs to the STP module" 0
scalar TopologyChange.switch2.bridging "number of dispatched BPDU frames to the network" 0
scalar TopologyChange.switch2.bridging "number of dispatched non-BDPU frames to the network" 0
scalar TopologyChange.switch2.bridging packetDropped:count 0
scalar TopologyChange.switch2.bridging packetDropped:sum(packetBytes) 0
scalar TopologyChange.switch2.ethernet pauseSent:count 0
scalar TopologyChange.switch2.ethernet pauseSent:sum 0
scalar TopologyChange.switch2.ethernet decapPk:count 3058
scalar TopologyChange.switch2.ethernet decapPk:sum(packetBytes) 239500
scalar TopologyChange.switch2.ethernet encapPk:count 4384
scalar TopologyChange.switch2.ethernet encapPk:sum(packetBytes) 344176
scalar TopologyChange.switch2.eth[0].queue queueLength:last 0
scalar TopologyChange.switch2.eth[0].queue queueLength:max 18
scalar TopologyChange.switch2.eth[0].queue queueLength:timeavg 7.4765199999999992e-06
scalar TopologyChange.switch2.eth[0].queue queueBitLength:last 0
scalar TopologyChange.switch2.eth[0].queue queueBitLength:max 12832
scalar TopologyChange.switch2.eth[0].queue queueBitLength:timeavg 0.0057409708799999971
scalar TopologyChange.switch2.eth[0].queue outgoingPackets:count 1482
scalar TopologyChange.switch2.eth[0].queue outgoingPacketLengths:sum 1182256
scalar TopologyChange.switch2.eth[0].queue incomingPackets:count 1482
scalar TopologyChange.switch2.eth[0].queue incomingPacketLengths:sum 1182256
scalar TopologyChange.switch2.eth[0].queue droppedPacketsQueueOverflow:count 0
scalar TopologyChange.switch2.eth[0].queue droppedPacketLengthsQueueOverflow:sum 0
scalar TopologyChange.switch2.eth[0].mac "simulated time" 1000
scalar TopologyChange.switch2.eth[0].mac full-duplex 1
scalar TopologyChange.switch2.eth[0].mac "frames/sec sent" 1.482
scalar TopologyChange.switch2.eth[0].mac "frames/sec rcvd" 1.516
scalar TopologyChange.switch2.eth[0].mac "bits/sec sent" 1182.2560000000001
scalar TopologyChange.switch2.eth[0].mac "bits/sec rcvd" 1127.9680000000001
scalar TopologyChange.switch2.eth[0].mac "rx channel idle (%)" 99.998775007999996
scalar TopologyChange.switch2.eth[0].mac "rx channel utilization (%)" 0.0012249920000000001
scalar TopologyChange.switch2.eth[0].mac rxPausePkUnits:count 0
scalar TopologyChange.switch2.eth[0].mac rxPausePkUnits:sum 0
scalar TopologyChange.switch2.eth[0].mac txPausePkUnits:count 0
scalar TopologyChange.switch2.eth[0].mac txPausePkUnits:sum 0
scalar TopologyChange.switch2.eth[0].mac rxPkOk:count 1516
scalar TopologyChange.switch2.eth[0].mac rxPkOk:sum(packetBytes) 140996
scalar TopologyChange.switch2.eth[0].mac txPk:count 1482
scalar TopologyChange.switch2.eth[0].mac txPk:sum(packetBytes) 147782
scalar TopologyChange.switch2.eth[0].mac packetReceivedFromUpper:count 1482
scalar TopologyChange.switch2.eth[0].mac packetReceivedFromUpper:sum(packetBytes) 147782
scalar TopologyChange.switch2.eth[0].mac passedUpPk:count 1516
scalar TopologyChange.switch2.eth[0].mac passedUpPk:sum(packetBytes) 140996
scalar TopologyChange.switch2.eth[0].mac packetDropIncorrectlyReceived:count 0
scalar TopologyChange.switch2.eth[0].mac packetDropIncorrectlyReceived:sum(packetBytes) 0
scalar TopologyChange.switch2.eth[0].mac packetDropInterfaceDown:count 0
scalar TopologyChange.switch2.eth[0].mac packetDropInterfaceDown:sum(packetBytes) 0
scalar TopologyChange.switch2.eth[0].mac packetDropNotAddressedToUs:count 0
scalar TopologyChange.switch2.eth[0].mac packetDropNotAddressedToUs:sum(packetBytes) 0
scalar TopologyChange.switch2.eth[0] packetDropInterfaceDown:count 0
scalar TopologyChange.switch2.eth[0] packetDropInterfaceDown:sum(packetBytes) 0
scalar TopologyChange.switch2.eth[0] packetDropNoCarrier:count 0
scalar TopologyChange.switch2.eth[0] packetDropNoCarrier:sum(packetBytes) 0
scalar TopologyChange.switch2.eth[1].queue queueLength:last 0
scalar TopologyChange.switch2.eth[1].queue queueLength:max 22
scalar TopologyChange.switch2.eth[1].queue queueLength:timeavg 7.7832600000000079e-06
scalar TopologyChange.switch2.eth[1].queue queueBitLength:last 0
scalar TopologyChange.switch2.eth[1].queue queueBitLength:max 15904
scalar TopologyChange.switch2.eth[1].queue queueBitLength:timeavg 0.0059288332799999977
scalar TopologyChange.switch2.eth[1].queue outgoingPackets:count 1640
scalar TopologyChange.switch2.eth[1].queue outgoingPacketLengths:sum 1263408
scalar TopologyChange.switch2.eth[1].queue incomingPackets:count 1640
scalar TopologyChange.switch2.eth[1].queue incomingPacketLengths:sum 1263408
scalar TopologyChange.switch2.eth[1].queue droppedPacketsQueueOverflow:count 0
scalar TopologyChange.switch2.eth[1].queue droppedPacketLengthsQueueOverflow:sum 0
scalar TopologyChange.switch2.eth[1].mac "simulated time" 1000
scalar TopologyChange.switch2.eth[1].mac full-duplex 1
scalar TopologyChange.switch2.eth[1].mac "frames/sec sent" 1.6399999999999999
scalar TopologyChange.switch2.eth[1].mac "frames/sec rcvd" 1.1579999999999999
scalar TopologyChange.switch2.eth[1].mac "bits/sec sent" 1263.4079999999999
scalar TopologyChange.switch2.eth[1].mac "bits/sec rcvd" 936.33600000000001
scalar TopologyChange.switch2.eth[1].mac "rx channel idle (%)" 99.998989551999998
scalar TopologyChange.switch2.eth[1].mac "rx channel utilization (%)" 0.0010104479999999999
scalar TopologyChange.switch2.eth[1].mac rxPausePkUnits:count 0
scalar TopologyChange.switch2.eth[1].mac rxPausePkUnits:sum 0
scalar TopologyChange.switch2.eth[1].mac txPausePkUnits:count 0
scalar TopologyChange.switch2.eth[1].mac txPausePkUnits:sum 0
scalar TopologyChange.switch2.eth[1].mac rxPkOk:count 1158
scalar TopologyChange.switch2.eth[1].mac rxPkOk:sum(packetBytes) 117042
scalar TopologyChange.switch2.eth[1].mac txPk:count 1640
scalar TopologyChange.switch2.eth[1].mac txPk:sum(packetBytes) 157926
scalar TopologyChange.switch2.eth[1].mac packetReceivedFromUpper:count 1640
scalar TopologyChange.switch2.eth[1].mac packetReceivedFromUpper:sum(packetBytes) 157926
scalar TopologyChange.switch2.eth[1].mac passedUpPk:count 1158
scalar TopologyChange.switch2.eth[1].mac passedUpPk:sum(packetBytes) 117042
scalar TopologyChange.switch2.eth[1].mac packetDropIncorrectlyReceived:count 0
scalar TopologyChange.switch2.eth[1].mac packetDropIncorrectlyReceived:sum(packetBytes) 0
scalar TopologyChange.switch2.eth[1].mac packetDropInterfaceDown:count 0
scalar TopologyChange.switch2.eth[1].mac packetDropInterfaceDown:sum(packetBytes) 0
scalar TopologyChange.switch2.eth[1].mac packetDropNotAddressedToUs:count 0
scalar TopologyChange.switch2.eth[1].mac packetDropNotAddressedToUs:sum(packetBytes) 0
scalar TopologyChange.switch2.eth[1] packetDropInterfaceDown:count 0
scalar TopologyChange.switch2.eth[1] packetDropInterfaceDown:sum(packetBytes) 0
scalar TopologyChange.switch2.eth[1] packetDropNoCarrier:count 0
scalar TopologyChange.switch2.eth[1] packetDropNoCarrier:sum(packetBytes) 0
scalar TopologyChange.switch2.eth[2].queue queueLength:last 0
scalar TopologyChange.switch2.eth[2].queue queueLength:max 23
scalar TopologyChange.switch2.eth[2].queue queueLength:timeavg 1.0081319999999996e-05
scalar TopologyChange.switch2.eth[2].queue queueBitLength:last 0
scalar TopologyChange.switch2.eth[2].queue queueBitLength:max 16560
scalar TopologyChange.switch2.eth[2].queue queueBitLength:timeavg 0.007730632319999999
scalar TopologyChange.switch2.eth[2].queue outgoingPackets:count 535
scalar TopologyChange.switch2.eth[2].queue outgoingPacketLengths:sum 416032
scalar TopologyChange.switch2.eth[2].queue incomingPackets:count 535
scalar TopologyChange.switch2.eth[2].queue incomingPacketLengths:sum 416032
scalar TopologyChange.switch2.eth[2].queue droppedPacketsQueueOverflow:count 0
scalar TopologyChange.switch2.eth[2].queue droppedPacketLengthsQueueOverflow:sum 0
scalar TopologyChange.switch2.eth[2].mac "simulated time" 1000
scalar TopologyChange.switch2.eth[2].mac full-duplex 1
scalar TopologyChange.switch2.eth[2].mac "frames/sec sent" 0.53500000000000003
scalar TopologyChange.switch2.eth[2].mac "frames/sec rcvd" 0.192
scalar TopologyChange.switch2.eth[2].mac "bits/sec sent" 416.03199999999998
scalar TopologyChange.switch2.eth[2].mac "bits/sec rcvd" 147.44
scalar TopologyChange.switch2.eth[2].mac "rx channel idle (%)" 99.999840272
scalar TopologyChange.switch2.eth[2].mac "rx channel utilization (%)" 0.00015972800000000001
scalar TopologyChange.switch2.eth[2].mac rxPausePkUnits:count 0
scalar TopologyChange.switch2.eth[2].mac rxPausePkUnits:sum 0
scalar TopologyChange.switch2.eth[2].mac txPausePkUnits:count 0
scalar TopologyChange.switch2.eth[2].mac txPausePkUnits:sum 0
scalar TopologyChange.switch2.eth[2].mac rxPkOk:count 192
scalar TopologyChange.switch2.eth[2].mac rxPkOk:sum(packetBytes) 18430
scalar TopologyChange.switch2.eth[2].mac txPk:count 535
scalar TopologyChange.switch2.eth[2].mac txPk:sum(packetBytes) 52004
scalar TopologyChange.switch2.eth[2].mac packetReceivedFromUpper:count 535
scalar TopologyChange.switch2.eth[2].mac packetReceivedFromUpper:sum(packetBytes) 52004
scalar TopologyChange.switch2.eth[2].mac passedUpPk:count 192
scalar TopologyChange.switch2.eth[2].mac passedUpPk:sum(packetBytes) 18430
scalar TopologyChange.switch2.eth[2].mac packetDropIncorrectlyReceived:count 0
scalar TopologyChange.switch2.eth[2].mac packetDropIncorrectlyReceived:sum(packetBytes) 0
scalar TopologyChange.switch2.eth[2].mac packetDropInterfaceDown:count 0
scalar TopologyChange.switch2.eth[2].mac packetDropInterfaceDown:sum(packetBytes) 0
scalar TopologyChange.switch2.eth[2].mac packetDropNotAddressedToUs:count 0
scalar TopologyChange.switch2.eth[2].mac packetDropNotAddressedToUs:sum(packetBytes) 0
scalar TopologyChange.switch2.eth[2] packetDropInterfaceDown:count 0
scalar TopologyChange.switch2.eth[2] packetDropInterfaceDown:sum(packetBytes) 0
scalar TopologyChange.switch2.eth[2] packetDropNoCarrier:count 0
scalar TopologyChange.switch2.eth[2] packetDropNoCarrier:sum(packetBytes) 0
scalar TopologyChange.switch2.eth[3].queue queueLength:last 0
scalar TopologyChange.switch2.eth[3].queue queueLength:max 25
scalar TopologyChange.switch2.eth[3].queue queueLength:timeavg 1.0696440000000001e-05
scalar TopologyChange.switch2.eth[3].queue queueBitLength:last 0
scalar TopologyChange.switch2.eth[3].queue queueBitLength:max 17984
scalar TopologyChange.switch2.eth[3].queue queueBitLength:timeavg 0.0081489785600000024
scalar TopologyChange.switch2.eth[3].queue outgoingPackets:count 727
scalar TopologyChange.switch2.eth[3].queue outgoingPacketLengths:sum 523008
scalar TopologyChange.switch2.eth[3].queue incomingPackets:count 727
scalar TopologyChange.switch2.eth[3].queue incomingPacketLengths:sum 523008
scalar TopologyChange.switch2.eth[3].queue droppedPacketsQueueOverflow:count 0
scalar TopologyChange.switch2.eth[3].queue droppedPacketLengthsQueueOverflow:sum 0
scalar TopologyChange.switch2.eth[3].mac "simulated time" 1000
scalar TopologyChange.switch2.eth[3].mac full-duplex 1
scalar TopologyChange.switch2.eth[3].mac "frames/sec sent" 0.72699999999999998
scalar TopologyChange.switch2.eth[3].mac "frames/sec rcvd" 0.192
scalar TopologyChange.switch2.eth[3].mac "bits/sec sent" 523.00800000000004
scalar TopologyChange.switch2.eth[3].mac "bits/sec rcvd" 144.608
scalar TopologyChange.switch2.eth[3].mac "rx channel idle (%)" 99.999843103999993
scalar TopologyChange.switch2.eth[3].mac "rx channel utilization (%)" 0.00015689600000000001
scalar TopologyChange.switch2.eth[3].mac rxPausePkUnits:count 0
scalar TopologyChange.switch2.eth[3].mac rxPausePkUnits:sum 0
scalar TopologyChange.switch2.eth[3].mac txPausePkUnits:count 0
scalar TopologyChange.switch2.eth[3].mac txPausePkUnits:sum 0
scalar TopologyChange.switch2.eth[3].mac rxPkOk:count 192
scalar TopologyChange.switch2.eth[3].mac rxPkOk:sum(packetBytes) 18076
scalar TopologyChange.switch2.eth[3].mac txPk:count 727
scalar TopologyChange.switch2.eth[3].mac txPk:sum(packetBytes) 65376
scalar TopologyChange.switch2.eth[3].mac packetReceivedFromUpper:count 727
scalar TopologyChange.switch2.eth[3].mac packetReceivedFromUpper:sum(packetBytes) 65376
scalar TopologyChange.switch2.eth[3].mac passedUpPk:count 192
scalar TopologyChange.switch2.eth[3].mac passedUpPk:sum(packetBytes) 18076
scalar TopologyChange.switch2.eth[3].mac packetDropIncorrectlyReceived:count 0
scalar TopologyChange.switch2.eth[3].mac packetDropIncorrectlyReceived:sum(packetBytes) 0
scalar TopologyChange.switch2.eth[3].mac packetDropInterfaceDown:count 0
scalar TopologyChange.switch2.eth[3].mac packetDropInterfaceDown:sum(packetBytes) 0
scalar TopologyChange.switch2.eth[3].mac packetDropNotAddressedToUs:count 0
scalar TopologyChange.switch2.eth[3].mac packetDropNotAddressedToUs:sum(packetBytes) 0
scalar TopologyChange.switch2.eth[3] packetDropInterfaceDown:count 0
scalar TopologyChange.switch2.eth[3] packetDropInterfaceDown:sum(packetBytes) 0
scalar TopologyChange.switch2.eth[3] packetDropNoCarrier:count 0
scalar TopologyChange.switch2.eth[3] packetDropNoCarrier:sum(packetBytes) 0
scalar TopologyChange.switch5.bridging "processed frames" 0
scalar TopologyChange.switch5.bridging "discarded frames" 0
scalar TopologyChange.switch5.bridging "number of received BPDUs from STP module" 0
scalar TopologyChange.switch5.bridging "number of received frames from network (including BPDUs)" 100
scalar TopologyChange.switch5.bridging "number of dropped frames (including BPDUs)" 0
scalar TopologyChange.switch5.bridging "number of delivered BPDUs to the STP module" 0
scalar TopologyChange.switch5.bridging "number of dispatched BPDU frames to the network" 0
scalar TopologyChange.switch5.bridging "number of dispatched non-BDPU frames to the network" 0
scalar TopologyChange.switch5.bridging packetDropped:count 0
scalar TopologyChange.switch5.bridging packetDropped:sum(packetBytes) 0
scalar TopologyChange.switch5.ethernet pauseSent:count 0
scalar TopologyChange.switch5.ethernet pauseSent:sum 0
scalar TopologyChange.switch5.ethernet decapPk:count 100
scalar TopologyChange.switch5.ethernet decapPk:sum(packetBytes) 6400
scalar TopologyChange.switch5.ethernet encapPk:count 0
scalar TopologyChange.switch5.ethernet encapPk:sum(packetBytes) 0
scalar TopologyChange.switch5.eth[0].queue queueLength:last 0
scalar TopologyChange.switch5.eth[0].queue queueLength:max 0
scalar TopologyChange.switch5.eth[0].queue queueLength:timeavg 0
scalar TopologyChange.switch5.eth[0].queue queueBitLength:last 0
scalar TopologyChange.switch5.eth[0].queue queueBitLength:max 0
scalar TopologyChange.switch5.eth[0].queue queueBitLength:timeavg 0
scalar TopologyChange.switch5.eth[0].queue outgoingPackets:count 0
scalar TopologyChange.switch5.eth[0].queue outgoingPacketLengths:sum 0
scalar TopologyChange.switch5.eth[0].queue incomingPackets:count 0
scalar TopologyChange.switch5.eth[0].queue incomingPacketLengths:sum 0
scalar TopologyChange.switch5.eth[0].queue droppedPacketsQueueOverflow:count 0
scalar TopologyChange.switch5.eth[0].queue droppedPacketLengthsQueueOverflow:sum 0
scalar TopologyChange.switch5.eth[0].mac "simulated time" 1000
scalar TopologyChange.switch5.eth[0].mac full-duplex 1
scalar TopologyChange.switch5.eth[0].mac "frames/sec sent" 0
scalar TopologyChange.switch5.eth[0].mac "frames/sec rcvd" 0.10000000000000001
scalar TopologyChange.switch5.eth[0].mac "bits/sec sent" 0
scalar TopologyChange.switch5.eth[0].mac "bits/sec rcvd" 65.599999999999994
scalar TopologyChange.switch5.eth[0].mac "rx channel idle (%)" 99.999928000000011
scalar TopologyChange.switch5.eth[0].mac "rx channel utilization (%)" 7.2000000000000002e-05
scalar TopologyChange.switch5.eth[0].mac rxPausePkUnits:count 0
scalar TopologyChange.switch5.eth[0].mac rxPausePkUnits:sum 0
scalar TopologyChange.switch5.eth[0].mac txPausePkUnits:count 0
scalar TopologyChange.switch5.eth[0].mac txPausePkUnits:sum 0
scalar TopologyChange.switch5.eth[0].mac rxPkOk:count 100
scalar TopologyChange.switch5.eth[0].mac rxPkOk:sum(packetBytes) 8200
scalar TopologyChange.switch5.eth[0].mac txPk:count 0
scalar TopologyChange.switch5.eth[0].mac txPk:sum(packetBytes) 0
scalar TopologyChange.switch5.eth[0].mac packetReceivedFromUpper:count 0
scalar TopologyChange.switch5.eth[0].mac packetReceivedFromUpper:sum(packetBytes) 0
scalar TopologyChange.switch5.eth[0].mac passedUpPk:count 100
scalar TopologyChange.switch5.eth[0].mac passedUpPk:sum(packetBytes) 8200
scalar TopologyChange.switch5.eth[0].mac packetDropIncorrectlyReceived:count 0
scalar TopologyChange.switch5.eth[0].mac packetDropIncorrectlyReceived:sum(packetBytes) 0
scalar TopologyChange.switch5.eth[0].mac packetDropInterfaceDown:count 0
scalar TopologyChange.switch5.eth[0].mac packetDropInterfaceDown:sum(packetBytes) 0
scalar TopologyChange.switch5.eth[0].mac packetDropNotAddressedToUs:count 0
scalar TopologyChange.switch5.eth[0].mac packetDropNotAddressedToUs:sum(packetBytes) 0
scalar TopologyChange.switch5.eth[0] packetDropInterfaceDown:count 0
scalar TopologyChange.switch5.eth[0] packetDropInterfaceDown:sum(packetBytes) 0
scalar TopologyChange.switch5.eth[0] packetDropNoCarrier:count 0
scalar TopologyChange.switch5.eth[0] packetDropNoCarrier:sum(packetBytes) 0
scalar TopologyChange.R1.ethernet pauseSent:count 0
scalar TopologyChange.R1.ethernet pauseSent:sum 0
scalar TopologyChange.R1.ethernet decapPk:count 1640
scalar TopologyChange.R1.ethernet decapPk:sum(packetBytes) 128406
scalar TopologyChange.R1.ethernet encapPk:count 1258
scalar TopologyChange.R1.ethernet encapPk:sum(packetBytes) 102400
scalar TopologyChange.R1.lo[0].lo rcvdPkFromHl:count 0
scalar TopologyChange.R1.lo[0].lo rcvdPkFromHl:sum(packetBytes) 0
scalar TopologyChange.R1.lo[0].lo passedUpPk:count 0
scalar TopologyChange.R1.lo[0].lo passedUpPk:sum(packetBytes) 0
scalar TopologyChange.R1.lo[0] packetDropInterfaceDown:count 0
scalar TopologyChange.R1.lo[0] packetDropInterfaceDown:sum(packetBytes) 0
scalar TopologyChange.R1.lo[0] packetDropNoCarrier:count 0
scalar TopologyChange.R1.lo[0] packetDropNoCarrier:sum(packetBytes) 0
scalar TopologyChange.R1.eth[0].queue queueLength:last 0
scalar TopologyChange.R1.eth[0].queue queueLength:max 6
scalar TopologyChange.R1.eth[0].queue queueLength:timeavg 1.1228399999999995e-06
scalar TopologyChange.R1.eth[0].queue queueBitLength:last 0
scalar TopologyChange.R1.eth[0].queue queueBitLength:max 5280
scalar TopologyChange.R1.eth[0].queue queueBitLength:timeavg 0.0010439948800000003
scalar TopologyChange.R1.eth[0].queue outgoingPackets:count 1158
scalar TopologyChange.R1.eth[0].queue outgoingPacketLengths:sum 934752
scalar TopologyChange.R1.eth[0].queue incomingPackets:count 1158
scalar TopologyChange.R1.eth[0].queue incomingPacketLengths:sum 934752
scalar TopologyChange.R1.eth[0].queue droppedPacketsQueueOverflow:count 0
scalar TopologyChange.R1.eth[0].queue droppedPacketLengthsQueueOverflow:sum 0
scalar TopologyChange.R1.eth[0].mac "simulated time" 1000
scalar TopologyChange.R1.eth[0].mac full-duplex 1
scalar TopologyChange.R1.eth[0].mac "frames/sec sent" 1.1579999999999999
scalar TopologyChange.R1.eth[0].mac "frames/sec rcvd" 1.6399999999999999
scalar TopologyChange.R1.eth[0].mac "bits/sec sent" 936.33600000000001
scalar TopologyChange.R1.eth[0].mac "bits/sec rcvd" 1263.4079999999999
scalar TopologyChange.R1.eth[0].mac "rx channel idle (%)" 99.998631631999999
scalar TopologyChange.R1.eth[0].mac "rx channel utilization (%)" 0.001368368
scalar TopologyChange.R1.eth[0].mac rxPausePkUnits:count 0
scalar TopologyChange.R1.eth[0].mac rxPausePkUnits:sum 0
scalar TopologyChange.R1.eth[0].mac txPausePkUnits:count 0
scalar TopologyChange.R1.eth[0].mac txPausePkUnits:sum 0
scalar TopologyChange.R1.eth[0].mac rxPkOk:count 1640
scalar TopologyChange.R1.eth[0].mac rxPkOk:sum(packetBytes) 157926
scalar TopologyChange.R1.eth[0].mac txPk:count 1158
scalar TopologyChange.R1.eth[0].mac txPk:sum(packetBytes) 117042
scalar TopologyChange.R1.eth[0].mac packetReceivedFromUpper:count 1158
scalar TopologyChange.R1.eth[0].mac packetReceivedFromUpper:sum(packetBytes) 116844
scalar TopologyChange.R1.eth[0].mac passedUpPk:count 1640
scalar TopologyChange.R1.eth[0].mac passedUpPk:sum(packetBytes) 157926
scalar TopologyChange.R1.eth[0].mac packetDropIncorrectlyReceived:count 0
scalar TopologyChange.R1.eth[0].mac packetDropIncorrectlyReceived:sum(packetBytes) 0
scalar TopologyChange.R1.eth[0].mac packetDropInterfaceDown:count 0
scalar TopologyChange.R1.eth[0].mac packetDropInterfaceDown:sum(packetBytes) 0
scalar TopologyChange.R1.eth[0].mac packetDropNotAddressedToUs:count 0
scalar TopologyChange.R1.eth[0].mac packetDropNotAddressedToUs:sum(packetBytes) 0
scalar TopologyChange.R1.eth[0] packetDropInterfaceDown:count 0
scalar TopologyChange.R1.eth[0] packetDropInterfaceDown:sum(packetBytes) 0
scalar TopologyChange.R1.eth[0] packetDropNoCarrier:count 0
scalar TopologyChange.R1.eth[0] packetDropNoCarrier:sum(packetBytes) 0
scalar TopologyChange.R1.eth[1].queue queueLength:last 0
scalar TopologyChange.R1.eth[1].queue queueLength:max 0
scalar TopologyChange.R1.eth[1].queue queueLength:timeavg 0
scalar TopologyChange.R1.eth[1].queue queueBitLength:last 0
scalar TopologyChange.R1.eth[1].queue queueBitLength:max 0
scalar TopologyChange.R1.eth[1].queue queueBitLength:timeavg 0
scalar TopologyChange.R1.eth[1].queue outgoingPackets:count 100
scalar TopologyChange.R1.eth[1].queue outgoingPacketLengths:sum 65600
scalar TopologyChange.R1.eth[1].queue incomingPackets:count 100
scalar TopologyChange.R1.eth[1].queue incomingPacketLengths:sum 65600
scalar TopologyChange.R1.eth[1].queue droppedPacketsQueueOverflow:count 0
scalar TopologyChange.R1.eth[1].queue droppedPacketLengthsQueueOverflow:sum 0
scalar TopologyChange.R1.eth[1].mac "simulated time" 1000
scalar TopologyChange.R1.eth[1].mac full-duplex 1
scalar TopologyChange.R1.eth[1].mac "frames/sec sent" 0.10000000000000001
scalar TopologyChange.R1.eth[1].mac "frames/sec rcvd" 0
scalar TopologyChange.R1.eth[1].mac "bits/sec sent" 65.599999999999994
scalar TopologyChange.R1.eth[1].mac "bits/sec rcvd" 0
scalar TopologyChange.R1.eth[1].mac "rx channel idle (%)" 100
scalar TopologyChange.R1.eth[1].mac "rx channel utilization (%)" 0
scalar TopologyChange.R1.eth[1].mac rxPausePkUnits:count 0
scalar TopologyChange.R1.eth[1].mac rxPausePkUnits:sum 0
scalar TopologyChange.R1.eth[1].mac txPausePkUnits:count 0
scalar TopologyChange.R1.eth[1].mac txPausePkUnits:sum 0
scalar TopologyChange.R1.eth[1].mac rxPkOk:count 0
scalar TopologyChange.R1.eth[1].mac rxPkOk:sum(packetBytes) 0
scalar TopologyChange.R1.eth[1].mac txPk:count 100
scalar TopologyChange.R1.eth[1].mac txPk:sum(packetBytes) 8200
scalar TopologyChange.R1.eth[1].mac packetReceivedFromUpper:count 100
scalar TopologyChange.R1.eth[1].mac packetReceivedFromUpper:sum(packetBytes) 8200
scalar TopologyChange.R1.eth[1].mac passedUpPk:count 0
scalar TopologyChange.R1.eth[1].mac passedUpPk:sum(packetBytes) 0
scalar TopologyChange.R1.eth[1].mac packetDropIncorrectlyReceived:count 0
scalar TopologyChange.R1.eth[1].mac packetDropIncorrectlyReceived:sum(packetBytes) 0
scalar TopologyChange.R1.eth[1].mac packetDropInterfaceDown:count 0
scalar TopologyChange.R1.eth[1].mac packetDropInterfaceDown:sum(packetBytes) 0
scalar TopologyChange.R1.eth[1].mac packetDropNotAddressedToUs:count 0
scalar TopologyChange.R1.eth[1].mac packetDropNotAddressedToUs:sum(packetBytes) 0
scalar TopologyChange.R1.eth[1] packetDropInterfaceDown:count 0
scalar TopologyChange.R1.eth[1] packetDropInterfaceDown:sum(packetBytes) 0
scalar TopologyChange.R1.eth[1] packetDropNoCarrier:count 0
scalar TopologyChange.R1.eth[1] packetDropNoCarrier:sum(packetBytes) 0
scalar TopologyChange.R1.ipv4.ip packetDropAddressResolutionFailed:count 0
scalar TopologyChange.R1.ipv4.ip packetDropAddressResolutionFailed:sum(packetBytes) 0
scalar TopologyChange.R1.ipv4.ip packetDropHopLimitReached:count 0
scalar TopologyChange.R1.ipv4.ip packetDropHopLimitReached:sum(packetBytes) 0
scalar TopologyChange.R1.ipv4.ip packetDropForwardingDisabled:count 0
scalar TopologyChange.R1.ipv4.ip packetDropForwardingDisabled:sum(packetBytes) 0
scalar TopologyChange.R1.ipv4.ip packetDropLifetimeExpired:count 0
scalar TopologyChange.R1.ipv4.ip packetDropLifetimeExpired:sum(packetBytes) 0
scalar TopologyChange.R1.ipv4.ip packetDropNoInterfaceFound:count 0
scalar TopologyChange.R1.ipv4.ip packetDropNoInterfaceFound:sum(packetBytes) 0
scalar TopologyChange.R1.ipv4.ip packetDropNoRouteFound:count 0
scalar TopologyChange.R1.ipv4.ip packetDropNoRouteFound:sum(packetBytes) 0
scalar TopologyChange.R1.ipv4.ip packetDropUndefined:count 0
scalar TopologyChange.R1.ipv4.ip packetDropUndefined:sum(packetBytes) 0
scalar TopologyChange.R1.ipv4.arp arpResolutionFailed:count 0
scalar TopologyChange.R1.ipv4.arp arpResolutionCompleted:count 21
scalar TopologyChange.R1.ipv4.arp arpResolutionInitiated:count 2
scalar TopologyChange.R1.ipv4.arp arpReplySent:count 9
scalar TopologyChange.R1.ipv4.arp arpReplySent:sum(packetBytes) 252
scalar TopologyChange.R1.ipv4.arp arpRequestSent:count 2
scalar TopologyChange.R1.ipv4.arp arpRequestSent:sum(packetBytes) 56
scalar TopologyChange.switch4.bridging "processed frames" 0
scalar TopologyChange.switch4.bridging "discarded frames" 0
scalar TopologyChange.switch4.bridging "number of received BPDUs from STP module" 0
scalar TopologyChange.switch4.bridging "number of received frames from network (including BPDUs)" 100
scalar TopologyChange.switch4.bridging "number of dropped frames (including BPDUs)" 0
scalar TopologyChange.switch4.bridging "number of delivered BPDUs to the STP module" 0
scalar TopologyChange.switch4.bridging "number of dispatched BPDU frames to the network" 0
scalar TopologyChange.switch4.bridging "number of dispatched non-BDPU frames to the network" 0
scalar TopologyChange.switch4.bridging packetDropped:count 0
scalar TopologyChange.switch4.bridging packetDropped:sum(packetBytes) 0
scalar TopologyChange.switch4.ethernet pauseSent:count 0
scalar TopologyChange.switch4.ethernet pauseSent:sum 0
scalar TopologyChange.switch4.ethernet decapPk:count 100
scalar TopologyChange.switch4.ethernet decapPk:sum(packetBytes) 6400
scalar TopologyChange.switch4.ethernet encapPk:count 0
scalar TopologyChange.switch4.ethernet encapPk:sum(packetBytes) 0
scalar TopologyChange.switch4.eth[0].queue queueLength:last 0
scalar TopologyChange.switch4.eth[0].queue queueLength:max 0
scalar TopologyChange.switch4.eth[0].queue queueLength:timeavg 0
scalar TopologyChange.switch4.eth[0].queue queueBitLength:last 0
scalar TopologyChange.switch4.eth[0].queue queueBitLength:max 0
scalar TopologyChange.switch4.eth[0].queue queueBitLength:timeavg 0
scalar TopologyChange.switch4.eth[0].queue outgoingPackets:count 0
scalar TopologyChange.switch4.eth[0].queue outgoingPacketLengths:sum 0
scalar TopologyChange.switch4.eth[0].queue incomingPackets:count 0
scalar TopologyChange.switch4.eth[0].queue incomingPacketLengths:sum 0
scalar TopologyChange.switch4.eth[0].queue droppedPacketsQueueOverflow:count 0
scalar TopologyChange.switch4.eth[0].queue droppedPacketLengthsQueueOverflow:sum 0
scalar TopologyChange.switch4.eth[0].mac "simulated time" 1000
scalar TopologyChange.switch4.eth[0].mac full-duplex 1
scalar TopologyChange.switch4.eth[0].mac "frames/sec sent" 0
scalar TopologyChange.switch4.eth[0].mac "frames/sec rcvd" 0.10000000000000001
scalar TopologyChange.switch4.eth[0].mac "bits/sec sent" 0
scalar TopologyChange.switch4.eth[0].mac "bits/sec rcvd" 65.599999999999994
scalar TopologyChange.switch4.eth[0].mac "rx channel idle (%)" 99.999928000000011
scalar TopologyChange.switch4.eth[0].mac "rx channel utilization (%)" 7.2000000000000002e-05
scalar TopologyChange.switch4.eth[0].mac rxPausePkUnits:count 0
scalar TopologyChange.switch4.eth[0].mac rxPausePkUnits:sum 0
scalar TopologyChange.switch4.eth[0].mac txPausePkUnits:count 0
scalar TopologyChange.switch4.eth[0].mac txPausePkUnits:sum 0
scalar TopologyChange.switch4.eth[0].mac rxPkOk:count 100
scalar TopologyChange.switch4.eth[0].mac rxPkOk:sum(packetBytes) 8200
scalar TopologyChange.switch4.eth[0].mac txPk:count 0
scalar TopologyChange.switch4.eth[0].mac txPk:sum(packetBytes) 0
scalar TopologyChange.switch4.eth[0].mac packetReceivedFromUpper:count 0
scalar TopologyChange.switch4.eth[0].mac packetReceivedFromUpper:sum(packetBytes) 0
scalar TopologyChange.switch4.eth[0].mac passedUpPk:count 100
scalar TopologyChange.switch4.eth[0].mac passedUpPk:sum(packetBytes) 8200
scalar TopologyChange.switch4.eth[0].mac packetDropIncorrectlyReceived:count 0
scalar TopologyChange.switch4.eth[0].mac packetDropIncorrectlyReceived:sum(packetBytes) 0
scalar TopologyChange.switch4.eth[0].mac packetDropInterfaceDown:count 0
scalar TopologyChange.switch4.eth[0].mac packetDropInterfaceDown:sum(packetBytes) 0
scalar TopologyChange.switch4.eth[0].mac packetDropNotAddressedToUs:count 0
scalar TopologyChange.switch4.eth[0].mac packetDropNotAddressedToUs:sum(packetBytes) 0
scalar TopologyChange.switch4.eth[0] packetDropInterfaceDown:count 0
scalar TopologyChange.switch4.eth[0] packetDropInterfaceDown:sum(packetBytes) 0
scalar TopologyChange.switch4.eth[0] packetDropNoCarrier:count 0
scalar TopologyChange.switch4.eth[0] packetDropNoCarrier:sum(packetBytes) 0
scalar TopologyChange.switch1.bridging "processed frames" 0
scalar TopologyChange.switch1.bridging "discarded frames" 0
scalar TopologyChange.switch1.bridging "number of received BPDUs from STP module" 0
scalar TopologyChange.switch1.bridging "number of received frames from network (including BPDUs)" 100
scalar TopologyChange.switch1.bridging "number of dropped frames (including BPDUs)" 0
scalar TopologyChange.switch1.bridging "number of delivered BPDUs to the STP module" 0
scalar TopologyChange.switch1.bridging "number of dispatched BPDU frames to the network" 0
scalar TopologyChange.switch1.bridging "number of dispatched non-BDPU frames to the network" 0
scalar TopologyChange.switch1.bridging packetDropped:count 0
scalar TopologyChange.switch1.bridging packetDropped:sum(packetBytes) 0
scalar TopologyChange.switch1.ethernet pauseSent:count 0
scalar TopologyChange.switch1.ethernet pauseSent:sum 0
scalar TopologyChange.switch1.ethernet decapPk:count 100
scalar TopologyChange.switch1.ethernet decapPk:sum(packetBytes) 6400
scalar TopologyChange.switch1.ethernet encapPk:count 0
scalar TopologyChange.switch1.ethernet encapPk:sum(packetBytes) 0
scalar TopologyChange.switch1.eth[0].queue queueLength:last 0
scalar TopologyChange.switch1.eth[0].queue queueLength:max 0
scalar TopologyChange.switch1.eth[0].queue queueLength:timeavg 0
scalar TopologyChange.switch1.eth[0].queue queueBitLength:last 0
scalar TopologyChange.switch1.eth[0].queue queueBitLength:max 0
scalar TopologyChange.switch1.eth[0].queue queueBitLength:timeavg 0
scalar TopologyChange.switch1.eth[0].queue outgoingPackets:count 0
scalar TopologyChange.switch1.eth[0].queue outgoingPacketLengths:sum 0
scalar TopologyChange.switch1.eth[0].queue incomingPackets:count 0
scalar TopologyChange.switch1.eth[0].queue incomingPacketLengths:sum 0
scalar TopologyChange.switch1.eth[0].queue droppedPacketsQueueOverflow:count 0
scalar TopologyChange.switch1.eth[0].queue droppedPacketLengthsQueueOverflow:sum 0
scalar TopologyChange.switch1.eth[0].mac "simulated time" 1000
scalar TopologyChange.switch1.eth[0].mac full-duplex 1
scalar TopologyChange.switch1.eth[0].mac "frames/sec sent" 0
scalar TopologyChange.switch1.eth[0].mac "frames/sec rcvd" 0.10000000000000001
scalar TopologyChange.switch1.eth[0].mac "bits/sec sent" 0
scalar TopologyChange.switch1.eth[0].mac "bits/sec rcvd" 65.599999999999994
scalar TopologyChange.switch1.eth[0].mac "rx channel idle (%)" 99.999928000000011
scalar TopologyChange.switch1.eth[0].mac "rx channel utilization (%)" 7.2000000000000002e-05
scalar TopologyChange.switch1.eth[0].mac rxPausePkUnits:count 0
scalar TopologyChange.switch1.eth[0].mac rxPausePkUnits:sum 0
scalar TopologyChange.switch1.eth[0].mac txPausePkUnits:count 0
scalar TopologyChange.switch1.eth[0].mac txPausePkUnits:sum 0
scalar TopologyChange.switch1.eth[0].mac rxPkOk:count 100
scalar TopologyChange.switch1.eth[0].mac rxPkOk:sum(packetBytes) 8200
scalar TopologyChange.switch1.eth[0].mac txPk:count 0
scalar TopologyChange.switch1.eth[0].mac txPk:sum(packetBytes) 0
scalar TopologyChange.switch1.eth[0].mac packetReceivedFromUpper:count 0
scalar TopologyChange.switch1.eth[0].mac packetReceivedFromUpper:sum(packetBytes) 0
scalar TopologyChange.switch1.eth[0].mac passedUpPk:count 100
scalar TopologyChange.switch1.eth[0].mac passedUpPk:sum(packetBytes) 8200
scalar TopologyChange.switch1.eth[0].mac packetDropIncorrectlyReceived:count 0
scalar TopologyChange.switch1.eth[0].mac packetDropIncorrectlyReceived:sum(packetBytes) 0
scalar TopologyChange.switch1.eth[0].mac packetDropInterfaceDown:count 0
scalar TopologyChange.switch1.eth[0].mac packetDropInterfaceDown:sum(packetBytes) 0
scalar TopologyChange.switch1.eth[0].mac packetDropNotAddressedToUs:count 0
scalar TopologyChange.switch1.eth[0].mac packetDropNotAddressedToUs:sum(packetBytes) 0
scalar TopologyChange.switch1.eth[0] packetDropInterfaceDown:count 0
scalar TopologyChange.switch1.eth[0] packetDropInterfaceDown:sum(packetBytes) 0
scalar TopologyChange.switch1.eth[0] packetDropNoCarrier:count 0
scalar TopologyChange.switch1.eth[0] packetDropNoCarrier:sum(packetBytes) 0
scalar TopologyChange.R5.ethernet pauseSent:count 0
scalar TopologyChange.R5.ethernet pauseSent:sum 0
scalar TopologyChange.R5.ethernet decapPk:count 535
scalar TopologyChange.R5.ethernet decapPk:sum(packetBytes) 42374
scalar TopologyChange.R5.ethernet encapPk:count 292
scalar TopologyChange.R5.ethernet encapPk:sum(packetBytes) 21320
scalar TopologyChange.R5.lo[0].lo rcvdPkFromHl:count 0
scalar TopologyChange.R5.lo[0].lo rcvdPkFromHl:sum(packetBytes) 0
scalar TopologyChange.R5.lo[0].lo passedUpPk:count 0
scalar TopologyChange.R5.lo[0].lo passedUpPk:sum(packetBytes) 0
scalar TopologyChange.R5.lo[0] packetDropInterfaceDown:count 0
scalar TopologyChange.R5.lo[0] packetDropInterfaceDown:sum(packetBytes) 0
scalar TopologyChange.R5.lo[0] packetDropNoCarrier:count 0
scalar TopologyChange.R5.lo[0] packetDropNoCarrier:sum(packetBytes) 0
scalar TopologyChange.R5.eth[0].queue queueLength:last 0
scalar TopologyChange.R5.eth[0].queue queueLength:max 2
scalar TopologyChange.R5.eth[0].queue queueLength:timeavg 2.4540000000000001e-07
scalar TopologyChange.R5.eth[0].queue queueBitLength:last 0
scalar TopologyChange.R5.eth[0].queue queueBitLength:max 1824
scalar TopologyChange.R5.eth[0].queue queueBitLength:timeavg 0.00019757631999999998
scalar TopologyChange.R5.eth[0].queue outgoingPackets:count 192
scalar TopologyChange.R5.eth[0].queue outgoingPacketLengths:sum 147008
scalar TopologyChange.R5.eth[0].queue incomingPackets:count 192
scalar TopologyChange.R5.eth[0].queue incomingPacketLengths:sum 147008
scalar TopologyChange.R5.eth[0].queue droppedPacketsQueueOverflow:count 0
scalar TopologyChange.R5.eth[0].queue droppedPacketLengthsQueueOverflow:sum 0
scalar TopologyChange.R5.eth[0].mac "simulated time" 1000
scalar TopologyChange.R5.eth[0].mac full-duplex 1
scalar TopologyChange.R5.eth[0].mac "frames/sec sent" 0.192
scalar TopologyChange.R5.eth[0].mac "frames/sec rcvd" 0.53500000000000003
scalar TopologyChange.R5.eth[0].mac "bits/sec sent" 147.44
scalar TopologyChange.R5.eth[0].mac "bits/sec rcvd" 416.03199999999998
scalar TopologyChange.R5.eth[0].mac "rx channel idle (%)" 99.999549728000005
scalar TopologyChange.R5.eth[0].mac "rx channel utilization (%)" 0.00045027199999999999
scalar TopologyChange.R5.eth[0].mac rxPausePkUnits:count 0
scalar TopologyChange.R5.eth[0].mac rxPausePkUnits:sum 0
scalar TopologyChange.R5.eth[0].mac txPausePkUnits:count 0
scalar TopologyChange.R5.eth[0].mac txPausePkUnits:sum 0
scalar TopologyChange.R5.eth[0].mac rxPkOk:count 535
scalar TopologyChange.R5.eth[0].mac rxPkOk:sum(packetBytes) 52004
scalar TopologyChange.R5.eth[0].mac txPk:count 192
scalar TopologyChange.R5.eth[0].mac txPk:sum(packetBytes) 18430
scalar TopologyChange.R5.eth[0].mac packetReceivedFromUpper:count 192
scalar TopologyChange.R5.eth[0].mac packetReceivedFromUpper:sum(packetBytes) 18376
scalar TopologyChange.R5.eth[0].mac passedUpPk:count 535
scalar TopologyChange.R5.eth[0].mac passedUpPk:sum(packetBytes) 52004
scalar TopologyChange.R5.eth[0].mac packetDropIncorrectlyReceived:count 0
scalar TopologyChange.R5.eth[0].mac packetDropIncorrectlyReceived:sum(packetBytes) 0
scalar TopologyChange.R5.eth[0].mac packetDropInterfaceDown:count 0
scalar TopologyChange.R5.eth[0].mac packetDropInterfaceDown:sum(packetBytes) 0
scalar TopologyChange.R5.eth[0].mac packetDropNotAddressedToUs:count 0
scalar TopologyChange.R5.eth[0].mac packetDropNotAddressedToUs:sum(packetBytes) 0
scalar TopologyChange.R5.eth[0] packetDropInterfaceDown:count 0
scalar TopologyChange.R5.eth[0] packetDropInterfaceDown:sum(packetBytes) 0
scalar TopologyChange.R5.eth[0] packetDropNoCarrier:count 0
scalar TopologyChange.R5.eth[0] packetDropNoCarrier:sum(packetBytes) 0
scalar TopologyChange.R5.eth[1].queue queueLength:last 0
scalar TopologyChange.R5.eth[1].queue queueLength:max 0
scalar TopologyChange.R5.eth[1].queue queueLength:timeavg 0
scalar TopologyChange.R5.eth[1].queue queueBitLength:last 0
scalar TopologyChange.R5.eth[1].queue queueBitLength:max 0
scalar TopologyChange.R5.eth[1].queue queueBitLength:timeavg 0
scalar TopologyChange.R5.eth[1].queue outgoingPackets:count 100
scalar TopologyChange.R5.eth[1].queue outgoingPacketLengths:sum 65600
scalar TopologyChange.R5.eth[1].queue incomingPackets:count 100
scalar TopologyChange.R5.eth[1].queue incomingPacketLengths:sum 65600
scalar TopologyChange.R5.eth[1].queue droppedPacketsQueueOverflow:count 0
scalar TopologyChange.R5.eth[1].queue droppedPacketLengthsQueueOverflow:sum 0
scalar TopologyChange.R5.eth[1].mac "simulated time" 1000
scalar TopologyChange.R5.eth[1].mac full-duplex 1
scalar TopologyChange.R5.eth[1].mac "frames/sec sent" 0.10000000000000001
scalar TopologyChange.R5.eth[1].mac "frames/sec rcvd" 0
scalar TopologyChange.R5.eth[1].mac "bits/sec sent" 65.599999999999994
scalar TopologyChange.R5.eth[1].mac "bits/sec rcvd" 0
scalar TopologyChange.R5.eth[1].mac "rx channel idle (%)" 100
scalar TopologyChange.R5.eth[1].mac "rx channel utilization (%)" 0
scalar TopologyChange.R5.eth[1].mac rxPausePkUnits:count 0
scalar TopologyChange.R5.eth[1].mac rxPausePkUnits:sum 0
scalar TopologyChange.R5.eth[1].mac txPausePkUnits:count 0
scalar TopologyChange.R5.eth[1].mac txPausePkUnits:sum 0
scalar TopologyChange.R5.eth[1].mac rxPkOk:count 0
scalar TopologyChange.R5.eth[1].mac rxPkOk:sum(packetBytes) 0
scalar TopologyChange.R5.eth[1].mac txPk:count 100
scalar TopologyChange.R5.eth[1].mac txPk:sum(packetBytes) 8200
scalar TopologyChange.R5.eth[1].mac packetReceivedFromUpper:count 100
scalar TopologyChange.R5.eth[1].mac packetReceivedFromUpper:sum(packetBytes) 8200
scalar TopologyChange.R5.eth[1].mac passedUpPk:count 0
scalar TopologyChange.R5.eth[1].mac passedUpPk:sum(packetBytes) 0
scalar TopologyChange.R5.eth[1].mac packetDropIncorrectlyReceived:count 0
scalar TopologyChange.R5.eth[1].mac packetDropIncorrectlyReceived:sum(packetBytes) 0
scalar TopologyChange.R5.eth[1].mac packetDropInterfaceDown:count 0
scalar TopologyChange.R5.eth[1].mac packetDropInterfaceDown:sum(packetBytes) 0
scalar TopologyChange.R5.eth[1].mac packetDropNotAddressedToUs:count 0
scalar TopologyChange.R5.eth[1].mac packetDropNotAddressedToUs:sum(packetBytes) 0
scalar TopologyChange.R5.eth[1] packetDropInterfaceDown:count 0
scalar TopologyChange.R5.eth[1] packetDropInterfaceDown:sum(packetBytes) 0
scalar TopologyChange.R5.eth[1] packetDropNoCarrier:count 0
scalar TopologyChange.R5.eth[1] packetDropNoCarrier:sum(packetBytes) 0
scalar TopologyChange.R5.ipv4.ip packetDropAddressResolutionFailed:count 0
scalar TopologyChange.R5.ipv4.ip packetDropAddressResolutionFailed:sum(packetBytes) 0
scalar TopologyChange.R5.ipv4.ip packetDropHopLimitReached:count 0
scalar TopologyChange.R5.ipv4.ip packetDropHopLimitReached:sum(packetBytes) 0
scalar TopologyChange.R5.ipv4.ip packetDropForwardingDisabled:count 0
scalar TopologyChange.R5.ipv4.ip packetDropForwardingDisabled:sum(packetBytes) 0
scalar TopologyChange.R5.ipv4.ip packetDropLifetimeExpired:count 0
scalar TopologyChange.R5.ipv4.ip packetDropLifetimeExpired:sum(packetBytes) 0
scalar TopologyChange.R5.ipv4.ip packetDropNoInterfaceFound:count 0
scalar TopologyChange.R5.ipv4.ip packetDropNoInterfaceFound:sum(packetBytes) 0
scalar TopologyChange.R5.ipv4.ip packetDropNoRouteFound:count 0
scalar TopologyChange.R5.ipv4.ip packetDropNoRouteFound:sum(packetBytes) 0
scalar TopologyChange.R5.ipv4.ip packetDropUndefined:count 0
scalar TopologyChange.R5.ipv4.ip packetDropUndefined:sum(packetBytes) 0
scalar TopologyChange.R5.ipv4.arp arpResolutionFailed:count 0
scalar TopologyChange.R5.ipv4.arp arpResolutionCompleted:count 20
scalar TopologyChange.R5.ipv4.arp arpResolutionInitiated:count 1
scalar TopologyChange.R5.ipv4.arp arpReplySent:count 2
scalar TopologyChange.R5.ipv4.arp arpReplySent:sum(packetBytes) 56
scalar TopologyChange.R5.ipv4.arp arpRequestSent:count 1
scalar TopologyChange.R5.ipv4.arp arpRequestSent:sum(packetBytes) 28
scalar TopologyChange.R6.ethernet pauseSent:count 0
scalar TopologyChange.R6.ethernet pauseSent:sum 0
scalar TopologyChange.R6.ethernet decapPk:count 727
scalar TopologyChange.R6.ethernet decapPk:sum(packetBytes) 52290
scalar TopologyChange.R6.ethernet encapPk:count 292
scalar TopologyChange.R6.ethernet encapPk:sum(packetBytes) 20840
scalar TopologyChange.R6.lo[0].lo rcvdPkFromHl:count 0
scalar TopologyChange.R6.lo[0].lo rcvdPkFromHl:sum(packetBytes) 0
scalar TopologyChange.R6.lo[0].lo passedUpPk:count 0
scalar TopologyChange.R6.lo[0].lo passedUpPk:sum(packetBytes) 0
scalar TopologyChange.R6.lo[0] packetDropInterfaceDown:count 0
scalar TopologyChange.R6.lo[0] packetDropInterfaceDown:sum(packetBytes) 0
scalar TopologyChange.R6.lo[0] packetDropNoCarrier:count 0
scalar TopologyChange.R6.lo[0] packetDropNoCarrier:sum(packetBytes) 0
scalar TopologyChange.R6.eth[0].queue queueLength:last 0
scalar TopologyChange.R6.eth[0].queue queueLength:max 2
scalar TopologyChange.R6.eth[0].queue queueLength:timeavg 1.4367999999999997e-07
scalar TopologyChange.R6.eth[0].queue queueBitLength:last 0
scalar TopologyChange.R6.eth[0].queue queueBitLength:max 1824
scalar TopologyChange.R6.eth[0].queue queueBitLength:timeavg 0.0001129216
scalar TopologyChange.R6.eth[0].queue outgoingPackets:count 192
scalar TopologyChange.R6.eth[0].queue outgoingPacketLengths:sum 143168
scalar TopologyChange.R6.eth[0].queue incomingPackets:count 192
scalar TopologyChange.R6.eth[0].queue incomingPacketLengths:sum 143168
scalar TopologyChange.R6.eth[0].queue droppedPacketsQueueOverflow:count 0
scalar TopologyChange.R6.eth[0].queue droppedPacketLengthsQueueOverflow:sum 0
scalar TopologyChange.R6.eth[0].mac "simulated time" 1000
scalar TopologyChange.R6.eth[0].mac full-duplex 1
scalar TopologyChange.R6.eth[0].mac "frames/sec sent" 0.192
scalar TopologyChange.R6.eth[0].mac "frames/sec rcvd" 0.72699999999999998
scalar TopologyChange.R6.eth[0].mac "bits/sec sent" 144.608
scalar TopologyChange.R6.eth[0].mac "bits/sec rcvd" 523.00800000000004
scalar TopologyChange.R6.eth[0].mac "rx channel idle (%)" 99.999430464
scalar TopologyChange.R6.eth[0].mac "rx channel utilization (%)" 0.00056953600000000004
scalar TopologyChange.R6.eth[0].mac rxPausePkUnits:count 0
scalar TopologyChange.R6.eth[0].mac rxPausePkUnits:sum 0
scalar TopologyChange.R6.eth[0].mac txPausePkUnits:count 0
scalar TopologyChange.R6.eth[0].mac txPausePkUnits:sum 0
scalar TopologyChange.R6.eth[0].mac rxPkOk:count 727
scalar TopologyChange.R6.eth[0].mac rxPkOk:sum(packetBytes) 65376
scalar TopologyChange.R6.eth[0].mac txPk:count 192
scalar TopologyChange.R6.eth[0].mac txPk:sum(packetBytes) 18076
scalar TopologyChange.R6.eth[0].mac packetReceivedFromUpper:count 192
scalar TopologyChange.R6.eth[0].mac packetReceivedFromUpper:sum(packetBytes) 17896
scalar TopologyChange.R6.eth[0].mac passedUpPk:count 727
scalar TopologyChange.R6.eth[0].mac passedUpPk:sum(packetBytes) 65376
scalar TopologyChange.R6.eth[0].mac packetDropIncorrectlyReceived:count 0
scalar TopologyChange.R6.eth[0].mac packetDropIncorrectlyReceived:sum(packetBytes) 0
scalar TopologyChange.R6.eth[0].mac packetDropInterfaceDown:count 0
scalar TopologyChange.R6.eth[0].mac packetDropInterfaceDown:sum(packetBytes) 0
scalar TopologyChange.R6.eth[0].mac packetDropNotAddressedToUs:count 0
scalar TopologyChange.R6.eth[0].mac packetDropNotAddressedToUs:sum(packetBytes) 0
scalar TopologyChange.R6.eth[0] packetDropInterfaceDown:count 0
scalar TopologyChange.R6.eth[0] packetDropInterfaceDown:sum(packetBytes) 0
scalar TopologyChange.R6.eth[0] packetDropNoCarrier:count 0
scalar TopologyChange.R6.eth[0] packetDropNoCarrier:sum(packetBytes) 0
scalar TopologyChange.R6.eth[1].queue queueLength:last 0
scalar TopologyChange.R6.eth[1].queue queueLength:max 0
scalar TopologyChange.R6.eth[1].queue queueLength:timeavg 0
scalar TopologyChange.R6.eth[1].queue queueBitLength:last 0
scalar TopologyChange.R6.eth[1].queue queueBitLength:max 0
scalar TopologyChange.R6.eth[1].queue queueBitLength:timeavg 0
scalar TopologyChange.R6.eth[1].queue outgoingPackets:count 100
scalar TopologyChange.R6.eth[1].queue outgoingPacketLengths:sum 65600
scalar TopologyChange.R6.eth[1].queue incomingPackets:count 100
scalar TopologyChange.R6.eth[1].queue incomingPacketLengths:sum 65600
scalar TopologyChange.R6.eth[1].queue droppedPacketsQueueOverflow:count 0
scalar TopologyChange.R6.eth[1].queue droppedPacketLengthsQueueOverflow:sum 0
scalar TopologyChange.R6.eth[1].mac "simulated time" 1000
scalar TopologyChange.R6.eth[1].mac full-duplex 1
scalar TopologyChange.R6.eth[1].mac "frames/sec sent" 0.10000000000000001
scalar TopologyChange.R6.eth[1].mac "frames/sec rcvd" 0
scalar TopologyChange.R6.eth[1].mac "bits/sec sent" 65.599999999999994
scalar TopologyChange.R6.eth[1].mac "bits/sec rcvd" 0
scalar TopologyChange.R6.eth[1].mac "rx channel idle (%)" 100
[...]
scalar TopologyChange.switch7.ethernet encapPk:vector(packetBytes):max -inf
scalar TopologyChange.switch7.ethernet encapPk:vector(packetBytes):starttime nan
scalar TopologyChange.switch7.ethernet encapPk:vector(packetBytes):endtime nan
scalar TopologyChange.switch7.ethernet decapPk:vector(packetBytes):count 100
scalar TopologyChange.switch7.ethernet decapPk:vector(packetBytes):sum 6400
scalar TopologyChange.switch7.ethernet decapPk:vector(packetBytes):sumweights 100
scalar TopologyChange.switch7.ethernet decapPk:vector(packetBytes):mean 64
scalar TopologyChange.switch7.ethernet decapPk:vector(packetBytes):stddev 0
scalar TopologyChange.switch7.ethernet decapPk:vector(packetBytes):min 64
scalar TopologyChange.switch7.ethernet decapPk:vector(packetBytes):max 64
scalar TopologyChange.switch7.ethernet decapPk:vector(packetBytes):starttime 0.11174401016400003
scalar TopologyChange.switch7.ethernet decapPk:vector(packetBytes):endtime 990.11174401016422
scalar TopologyChange.switch7.ethernet pauseSent:vector:count 0
scalar TopologyChange.switch7.ethernet pauseSent:vector:sum 0
scalar TopologyChange.switch7.ethernet pauseSent:vector:sumweights 0
scalar TopologyChange.switch7.ethernet pauseSent:vector:mean -nan
scalar TopologyChange.switch7.ethernet pauseSent:vector:stddev nan
scalar TopologyChange.switch7.ethernet pauseSent:vector:min inf
scalar TopologyChange.switch7.ethernet pauseSent:vector:max -inf
scalar TopologyChange.switch7.ethernet pauseSent:vector:starttime nan
scalar TopologyChange.switch7.ethernet pauseSent:vector:endtime nan
scalar TopologyChange.switch7.eth[0].queue queueLength:vector:count 5
scalar TopologyChange.switch7.eth[0].queue queueLength:vector:sum 0
scalar TopologyChange.switch7.eth[0].queue queueLength:vector:sumweights 5
scalar TopologyChange.switch7.eth[0].queue queueLength:vector:mean 0
scalar TopologyChange.switch7.eth[0].queue queueLength:vector:stddev 0
scalar TopologyChange.switch7.eth[0].queue queueLength:vector:min 0
scalar TopologyChange.switch7.eth[0].queue queueLength:vector:max 0
scalar TopologyChange.switch7.eth[0].queue queueLength:vector:starttime 0
scalar TopologyChange.switch7.eth[0].queue queueLength:vector:endtime 0
scalar TopologyChange.switch7.eth[0].queue queueBitLength:vector:count 5
scalar TopologyChange.switch7.eth[0].queue queueBitLength:vector:sum 0
scalar TopologyChange.switch7.eth[0].queue queueBitLength:vector:sumweights 5
scalar TopologyChange.switch7.eth[0].queue queueBitLength:vector:mean 0
scalar TopologyChange.switch7.eth[0].queue queueBitLength:vector:stddev 0
scalar TopologyChange.switch7.eth[0].queue queueBitLength:vector:min 0
scalar TopologyChange.switch7.eth[0].queue queueBitLength:vector:max 0
scalar TopologyChange.switch7.eth[0].queue queueBitLength:vector:starttime 0
scalar TopologyChange.switch7.eth[0].queue queueBitLength:vector:endtime 0
scalar TopologyChange.switch7.eth[0].queue queueingTime:vector:count 0
scalar TopologyChange.switch7.eth[0].queue queueingTime:vector:sum 0
scalar TopologyChange.switch7.eth[0].queue queueingTime:vector:sumweights 0
scalar TopologyChange.switch7.eth[0].queue queueingTime:vector:mean -nan
scalar TopologyChange.switch7.eth[0].queue queueingTime:vector:stddev nan
scalar TopologyChange.switch7.eth[0].queue queueingTime:vector:min inf
scalar TopologyChange.switch7.eth[0].queue queueingTime:vector:max -inf
scalar TopologyChange.switch7.eth[0].queue queueingTime:vector:starttime nan
scalar TopologyChange.switch7.eth[0].queue queueingTime:vector:endtime nan
scalar TopologyChange.switch7.eth[0].queue incomingPacketLengths:vector:count 0
scalar TopologyChange.switch7.eth[0].queue incomingPacketLengths:vector:sum 0
scalar TopologyChange.switch7.eth[0].queue incomingPacketLengths:vector:sumweights 0
scalar TopologyChange.switch7.eth[0].queue incomingPacketLengths:vector:mean -nan
scalar TopologyChange.switch7.eth[0].queue incomingPacketLengths:vector:stddev nan
scalar TopologyChange.switch7.eth[0].queue incomingPacketLengths:vector:min inf
scalar TopologyChange.switch7.eth[0].queue incomingPacketLengths:vector:max -inf
scalar TopologyChange.switch7.eth[0].queue incomingPacketLengths:vector:starttime nan
scalar TopologyChange.switch7.eth[0].queue incomingPacketLengths:vector:endtime nan
scalar TopologyChange.switch7.eth[0].queue incomingDataRate:vector:count 10000
scalar TopologyChange.switch7.eth[0].queue incomingDataRate:vector:sum 0
scalar TopologyChange.switch7.eth[0].queue incomingDataRate:vector:sumweights 10000
scalar TopologyChange.switch7.eth[0].queue incomingDataRate:vector:mean 0
scalar TopologyChange.switch7.eth[0].queue incomingDataRate:vector:stddev 0
scalar TopologyChange.switch7.eth[0].queue incomingDataRate:vector:min 0
scalar TopologyChange.switch7.eth[0].queue incomingDataRate:vector:max 0
scalar TopologyChange.switch7.eth[0].queue incomingDataRate:vector:starttime 0.10000000000000001
scalar TopologyChange.switch7.eth[0].queue incomingDataRate:vector:endtime 1000
scalar TopologyChange.switch7.eth[0].queue outgoingPacketLengths:vector:count 0
scalar TopologyChange.switch7.eth[0].queue outgoingPacketLengths:vector:sum 0
scalar TopologyChange.switch7.eth[0].queue outgoingPacketLengths:vector:sumweights 0
scalar TopologyChange.switch7.eth[0].queue outgoingPacketLengths:vector:mean -nan
scalar TopologyChange.switch7.eth[0].queue outgoingPacketLengths:vector:stddev nan
scalar TopologyChange.switch7.eth[0].queue outgoingPacketLengths:vector:min inf
scalar TopologyChange.switch7.eth[0].queue outgoingPacketLengths:vector:max -inf
scalar TopologyChange.switch7.eth[0].queue outgoingPacketLengths:vector:starttime nan
scalar TopologyChange.switch7.eth[0].queue outgoingPacketLengths:vector:endtime nan
scalar TopologyChange.switch7.eth[0].queue outgoingDataRate:vector:count 10000
scalar TopologyChange.switch7.eth[0].queue outgoingDataRate:vector:sum 0
scalar TopologyChange.switch7.eth[0].queue outgoingDataRate:vector:sumweights 10000
scalar TopologyChange.switch7.eth[0].queue outgoingDataRate:vector:mean 0
scalar TopologyChange.switch7.eth[0].queue outgoingDataRate:vector:stddev 0
scalar TopologyChange.switch7.eth[0].queue outgoingDataRate:vector:min 0
scalar TopologyChange.switch7.eth[0].queue outgoingDataRate:vector:max 0
scalar TopologyChange.switch7.eth[0].queue outgoingDataRate:vector:starttime 0.10000000000000001
scalar TopologyChange.switch7.eth[0].queue outgoingDataRate:vector:endtime 1000
scalar TopologyChange.switch7.eth[0].queue droppedPacketLengthsQueueOverflow:vector:count 0
scalar TopologyChange.switch7.eth[0].queue droppedPacketLengthsQueueOverflow:vector:sum 0
scalar TopologyChange.switch7.eth[0].queue droppedPacketLengthsQueueOverflow:vector:sumweights 0
scalar TopologyChange.switch7.eth[0].queue droppedPacketLengthsQueueOverflow:vector:mean -nan
scalar TopologyChange.switch7.eth[0].queue droppedPacketLengthsQueueOverflow:vector:stddev nan
scalar TopologyChange.switch7.eth[0].queue droppedPacketLengthsQueueOverflow:vector:min inf
scalar TopologyChange.switch7.eth[0].queue droppedPacketLengthsQueueOverflow:vector:max -inf
scalar TopologyChange.switch7.eth[0].queue droppedPacketLengthsQueueOverflow:vector:starttime nan
scalar TopologyChange.switch7.eth[0].queue droppedPacketLengthsQueueOverflow:vector:endtime nan
scalar TopologyChange.switch7.eth[0].queue flowQueueingTime:vector:count 0
scalar TopologyChange.switch7.eth[0].queue flowQueueingTime:vector:sum 0
scalar TopologyChange.switch7.eth[0].queue flowQueueingTime:vector:sumweights 0
scalar TopologyChange.switch7.eth[0].queue flowQueueingTime:vector:mean -nan
scalar TopologyChange.switch7.eth[0].queue flowQueueingTime:vector:stddev nan
scalar TopologyChange.switch7.eth[0].queue flowQueueingTime:vector:min inf
scalar TopologyChange.switch7.eth[0].queue flowQueueingTime:vector:max -inf
scalar TopologyChange.switch7.eth[0].queue flowQueueingTime:vector:starttime nan
scalar TopologyChange.switch7.eth[0].queue flowQueueingTime:vector:endtime nan
scalar TopologyChange.switch7.eth[0].queue flowIncomingDataRate:vector:count 10000
scalar TopologyChange.switch7.eth[0].queue flowIncomingDataRate:vector:sum 0
scalar TopologyChange.switch7.eth[0].queue flowIncomingDataRate:vector:sumweights 10000
scalar TopologyChange.switch7.eth[0].queue flowIncomingDataRate:vector:mean 0
scalar TopologyChange.switch7.eth[0].queue flowIncomingDataRate:vector:stddev 0
scalar TopologyChange.switch7.eth[0].queue flowIncomingDataRate:vector:min 0
scalar TopologyChange.switch7.eth[0].queue flowIncomingDataRate:vector:max 0
scalar TopologyChange.switch7.eth[0].queue flowIncomingDataRate:vector:starttime 0.10000000000000001
scalar TopologyChange.switch7.eth[0].queue flowIncomingDataRate:vector:endtime 1000
scalar TopologyChange.switch7.eth[0].queue flowOutgoingDataRate:vector:count 10000
scalar TopologyChange.switch7.eth[0].queue flowOutgoingDataRate:vector:sum 0
scalar TopologyChange.switch7.eth[0].queue flowOutgoingDataRate:vector:sumweights 10000
scalar TopologyChange.switch7.eth[0].queue flowOutgoingDataRate:vector:mean 0
scalar TopologyChange.switch7.eth[0].queue flowOutgoingDataRate:vector:stddev 0
scalar TopologyChange.switch7.eth[0].queue flowOutgoingDataRate:vector:min 0
scalar TopologyChange.switch7.eth[0].queue flowOutgoingDataRate:vector:max 0
scalar TopologyChange.switch7.eth[0].queue flowOutgoingDataRate:vector:starttime 0.10000000000000001
scalar TopologyChange.switch7.eth[0].queue flowOutgoingDataRate:vector:endtime 1000
scalar TopologyChange.switch7.eth[0].mac transmitting:vector:count 2
scalar TopologyChange.switch7.eth[0].mac transmitting:vector:sum 0
scalar TopologyChange.switch7.eth[0].mac transmitting:vector:sumweights 2
scalar TopologyChange.switch7.eth[0].mac transmitting:vector:mean 0
scalar TopologyChange.switch7.eth[0].mac transmitting:vector:stddev 0
scalar TopologyChange.switch7.eth[0].mac transmitting:vector:min 0
scalar TopologyChange.switch7.eth[0].mac transmitting:vector:max 0
scalar TopologyChange.switch7.eth[0].mac transmitting:vector:starttime 0
scalar TopologyChange.switch7.eth[0].mac transmitting:vector:endtime 0
scalar TopologyChange.switch7.eth[0].mac throughput:vector:count 10000
scalar TopologyChange.switch7.eth[0].mac throughput:vector:sum 0
scalar TopologyChange.switch7.eth[0].mac throughput:vector:sumweights 10000
scalar TopologyChange.switch7.eth[0].mac throughput:vector:mean 0
scalar TopologyChange.switch7.eth[0].mac throughput:vector:stddev 0
scalar TopologyChange.switch7.eth[0].mac throughput:vector:min 0
scalar TopologyChange.switch7.eth[0].mac throughput:vector:max 0
scalar TopologyChange.switch7.eth[0].mac throughput:vector:starttime 0.10000000000000001
scalar TopologyChange.switch7.eth[0].mac throughput:vector:endtime 1000
scalar TopologyChange.switch7.eth[0].mac utilization:vector:count 10000
scalar TopologyChange.switch7.eth[0].mac utilization:vector:sum 0
scalar TopologyChange.switch7.eth[0].mac utilization:vector:sumweights 10000
scalar TopologyChange.switch7.eth[0].mac utilization:vector:mean 0
scalar TopologyChange.switch7.eth[0].mac utilization:vector:stddev 0
scalar TopologyChange.switch7.eth[0].mac utilization:vector:min 0
scalar TopologyChange.switch7.eth[0].mac utilization:vector:max 0
scalar TopologyChange.switch7.eth[0].mac utilization:vector:starttime 0.10000000000000001
scalar TopologyChange.switch7.eth[0].mac utilization:vector:endtime 1000
scalar TopologyChange.switch7.eth[0].mac txPk:vector(packetBytes):count 0
scalar TopologyChange.switch7.eth[0].mac txPk:vector(packetBytes):sum 0
scalar TopologyChange.switch7.eth[0].mac txPk:vector(packetBytes):sumweights 0
scalar TopologyChange.switch7.eth[0].mac txPk:vector(packetBytes):mean -nan
scalar TopologyChange.switch7.eth[0].mac txPk:vector(packetBytes):stddev nan
scalar TopologyChange.switch7.eth[0].mac txPk:vector(packetBytes):min inf
scalar TopologyChange.switch7.eth[0].mac txPk:vector(packetBytes):max -inf
scalar TopologyChange.switch7.eth[0].mac txPk:vector(packetBytes):starttime nan
scalar TopologyChange.switch7.eth[0].mac txPk:vector(packetBytes):endtime nan
scalar TopologyChange.switch7.eth[0].mac rxPkOk:vector(packetBytes):count 100
scalar TopologyChange.switch7.eth[0].mac rxPkOk:vector(packetBytes):sum 8200
scalar TopologyChange.switch7.eth[0].mac rxPkOk:vector(packetBytes):sumweights 100
scalar TopologyChange.switch7.eth[0].mac rxPkOk:vector(packetBytes):mean 82
scalar TopologyChange.switch7.eth[0].mac rxPkOk:vector(packetBytes):stddev 0
scalar TopologyChange.switch7.eth[0].mac rxPkOk:vector(packetBytes):min 82
scalar TopologyChange.switch7.eth[0].mac rxPkOk:vector(packetBytes):max 82
scalar TopologyChange.switch7.eth[0].mac rxPkOk:vector(packetBytes):starttime 0.11174401016400003
scalar TopologyChange.switch7.eth[0].mac rxPkOk:vector(packetBytes):endtime 990.11174401016422
scalar TopologyChange.switch7.eth[0].mac passedUpPk:vector(packetBytes):count 100
scalar TopologyChange.switch7.eth[0].mac passedUpPk:vector(packetBytes):sum 8200
scalar TopologyChange.switch7.eth[0].mac passedUpPk:vector(packetBytes):sumweights 100
scalar TopologyChange.switch7.eth[0].mac passedUpPk:vector(packetBytes):mean 82
scalar TopologyChange.switch7.eth[0].mac passedUpPk:vector(packetBytes):stddev 0
scalar TopologyChange.switch7.eth[0].mac passedUpPk:vector(packetBytes):min 82
scalar TopologyChange.switch7.eth[0].mac passedUpPk:vector(packetBytes):max 82
scalar TopologyChange.switch7.eth[0].mac passedUpPk:vector(packetBytes):starttime 0.11174401016400003
scalar TopologyChange.switch7.eth[0].mac passedUpPk:vector(packetBytes):endtime 990.11174401016422
scalar TopologyChange.switch7.eth[0].mac txPausePkUnits:vector:count 0
scalar TopologyChange.switch7.eth[0].mac txPausePkUnits:vector:sum 0
scalar TopologyChange.switch7.eth[0].mac txPausePkUnits:vector:sumweights 0
scalar TopologyChange.switch7.eth[0].mac txPausePkUnits:vector:mean -nan
scalar TopologyChange.switch7.eth[0].mac txPausePkUnits:vector:stddev nan
scalar TopologyChange.switch7.eth[0].mac txPausePkUnits:vector:min inf
scalar TopologyChange.switch7.eth[0].mac txPausePkUnits:vector:max -inf
scalar TopologyChange.switch7.eth[0].mac txPausePkUnits:vector:starttime nan
scalar TopologyChange.switch7.eth[0].mac txPausePkUnits:vector:endtime nan
scalar TopologyChange.switch7.eth[0].mac rxPausePkUnits:vector:count 0
scalar TopologyChange.switch7.eth[0].mac rxPausePkUnits:vector:sum 0
scalar TopologyChange.switch7.eth[0].mac rxPausePkUnits:vector:sumweights 0
scalar TopologyChange.switch7.eth[0].mac rxPausePkUnits:vector:mean -nan
scalar TopologyChange.switch7.eth[0].mac rxPausePkUnits:vector:stddev nan
scalar TopologyChange.switch7.eth[0].mac rxPausePkUnits:vector:min inf
scalar TopologyChange.switch7.eth[0].mac rxPausePkUnits:vector:max -inf
scalar TopologyChange.switch7.eth[0].mac rxPausePkUnits:vector:starttime nan
scalar TopologyChange.switch7.eth[0].mac rxPausePkUnits:vector:endtime nan
scalar TopologyChange.switch7.eth[0].mac packetReceivedFromUpper:vector(packetBytes):count 0
scalar TopologyChange.switch7.eth[0].mac packetReceivedFromUpper:vector(packetBytes):sum 0
scalar TopologyChange.switch7.eth[0].mac packetReceivedFromUpper:vector(packetBytes):sumweights 0
scalar TopologyChange.switch7.eth[0].mac packetReceivedFromUpper:vector(packetBytes):mean -nan
scalar TopologyChange.switch7.eth[0].mac packetReceivedFromUpper:vector(packetBytes):stddev nan
scalar TopologyChange.switch7.eth[0].mac packetReceivedFromUpper:vector(packetBytes):min inf
scalar TopologyChange.switch7.eth[0].mac packetReceivedFromUpper:vector(packetBytes):max -inf
scalar TopologyChange.switch7.eth[0].mac packetReceivedFromUpper:vector(packetBytes):starttime nan
scalar TopologyChange.switch7.eth[0].mac packetReceivedFromUpper:vector(packetBytes):endtime nan
scalar TopologyChange.switch7.eth[0].mac packetDropIncorrectlyReceived:vector(packetBytes):count 0
scalar TopologyChange.switch7.eth[0].mac packetDropIncorrectlyReceived:vector(packetBytes):sum 0
scalar TopologyChange.switch7.eth[0].mac packetDropIncorrectlyReceived:vector(packetBytes):sumweights 0
scalar TopologyChange.switch7.eth[0].mac packetDropIncorrectlyReceived:vector(packetBytes):mean -nan
scalar TopologyChange.switch7.eth[0].mac packetDropIncorrectlyReceived:vector(packetBytes):stddev nan
scalar TopologyChange.switch7.eth[0].mac packetDropIncorrectlyReceived:vector(packetBytes):min inf
scalar TopologyChange.switch7.eth[0].mac packetDropIncorrectlyReceived:vector(packetBytes):max -inf
scalar TopologyChange.switch7.eth[0].mac packetDropIncorrectlyReceived:vector(packetBytes):starttime nan
scalar TopologyChange.switch7.eth[0].mac packetDropIncorrectlyReceived:vector(packetBytes):endtime nan
scalar TopologyChange.switch7.eth[0].mac packetDropInterfaceDown:vector(packetBytes):count 0
scalar TopologyChange.switch7.eth[0].mac packetDropInterfaceDown:vector(packetBytes):sum 0
scalar TopologyChange.switch7.eth[0].mac packetDropInterfaceDown:vector(packetBytes):sumweights 0
scalar TopologyChange.switch7.eth[0].mac packetDropInterfaceDown:vector(packetBytes):mean -nan
scalar TopologyChange.switch7.eth[0].mac packetDropInterfaceDown:vector(packetBytes):stddev nan
scalar TopologyChange.switch7.eth[0].mac packetDropInterfaceDown:vector(packetBytes):min inf
scalar TopologyChange.switch7.eth[0].mac packetDropInterfaceDown:vector(packetBytes):max -inf
scalar TopologyChange.switch7.eth[0].mac packetDropInterfaceDown:vector(packetBytes):starttime nan
scalar TopologyChange.switch7.eth[0].mac packetDropInterfaceDown:vector(packetBytes):endtime nan
scalar TopologyChange.switch7.eth[0].mac packetDropNotAddressedToUs:vector(packetBytes):count 0
scalar TopologyChange.switch7.eth[0].mac packetDropNotAddressedToUs:vector(packetBytes):sum 0
scalar TopologyChange.switch7.eth[0].mac packetDropNotAddressedToUs:vector(packetBytes):sumweights 0
scalar TopologyChange.switch7.eth[0].mac packetDropNotAddressedToUs:vector(packetBytes):mean -nan
scalar TopologyChange.switch7.eth[0].mac packetDropNotAddressedToUs:vector(packetBytes):stddev nan
scalar TopologyChange.switch7.eth[0].mac packetDropNotAddressedToUs:vector(packetBytes):min inf
scalar TopologyChange.switch7.eth[0].mac packetDropNotAddressedToUs:vector(packetBytes):max -inf
scalar TopologyChange.switch7.eth[0].mac packetDropNotAddressedToUs:vector(packetBytes):starttime nan
scalar TopologyChange.switch7.eth[0].mac packetDropNotAddressedToUs:vector(packetBytes):endtime nan
scalar TopologyChange.switch7.eth[0] packetDropInterfaceDown:vector(packetBytes):count 0
scalar TopologyChange.switch7.eth[0] packetDropInterfaceDown:vector(packetBytes):sum 0
scalar TopologyChange.switch7.eth[0] packetDropInterfaceDown:vector(packetBytes):sumweights 0
scalar TopologyChange.switch7.eth[0] packetDropInterfaceDown:vector(packetBytes):mean -nan
scalar TopologyChange.switch7.eth[0] packetDropInterfaceDown:vector(packetBytes):stddev nan
scalar TopologyChange.switch7.eth[0] packetDropInterfaceDown:vector(packetBytes):min inf
scalar TopologyChange.switch7.eth[0] packetDropInterfaceDown:vector(packetBytes):max -inf
scalar TopologyChange.switch7.eth[0] packetDropInterfaceDown:vector(packetBytes):starttime nan
scalar TopologyChange.switch7.eth[0] packetDropInterfaceDown:vector(packetBytes):endtime nan
scalar TopologyChange.switch7.eth[0] packetDropNoCarrier:vector(packetBytes):count 0
scalar TopologyChange.switch7.eth[0] packetDropNoCarrier:vector(packetBytes):sum 0
scalar TopologyChange.switch7.eth[0] packetDropNoCarrier:vector(packetBytes):sumweights 0
scalar TopologyChange.switch7.eth[0] packetDropNoCarrier:vector(packetBytes):mean -nan
scalar TopologyChange.switch7.eth[0] packetDropNoCarrier:vector(packetBytes):stddev nan
scalar TopologyChange.switch7.eth[0] packetDropNoCarrier:vector(packetBytes):min inf
scalar TopologyChange.switch7.eth[0] packetDropNoCarrier:vector(packetBytes):max -inf
scalar TopologyChange.switch7.eth[0] packetDropNoCarrier:vector(packetBytes):starttime nan
scalar TopologyChange.switch7.eth[0] packetDropNoCarrier:vector(packetBytes):endtime nan

