version 3
run Step24-0-20260206-18:07:13-121232
attr configname Step24
attr datetime 20260206-18:07:13
attr datetimef 20260206-180713
attr experiment Step24
attr inifile omnetpp.ini
attr iterationvars ""
attr iterationvarsd ""
attr iterationvarsf ""
attr measurement ""
attr network OSPF_Suboptimal
attr processid 121232
attr repetition 0
attr replication #0
attr resultdir results
attr runnumber 0
attr seedset 0
config **.param-recording false
config image-path /home/user/inet/images
config output-scalar-file results/omnetpp.ini-Step24-#0.sca
config output-scalar-precision 17
config output-vector-file results/omnetpp.ini-Step24-#0.vec
config output-vector-precision 17
config record-eventlog false
config sim-time-limit 1000s
config description "OSPF Path Selection - Suboptimal routes"
config network OSPF_Suboptimal
config *.configurator.config "xml(\"<config>                                 <interface hosts='**' address='10.x.x.x' netmask='255.x.x.x'/>                                 <route hosts='host*' destination='*' netmask='0.0.0.0' interface='eth0' />                              </config>\")"
config *.host0.numApps 1
config *.host0.app[0].typename PingApp
config *.host0.app[0].destAddr "\"host6\""
config *.host0.app[0].startTime 60s
config *.R*.ospf.ospfConfig "xmldoc(\"ASConfig_Suboptimal.xml\")"
config sim-time-limit 1000s
config **.ospf.cmdenv-log-level trace
config **.cmdenv-log-level off
config cmdenv-express-mode false
config *.pcapRecorder.moduleNamePatterns "\".^\""
config *.pcapRecorder.pcapFile "\"results/Step24-0.pcap\""
config **.checksumMode "\"computed\""
config **.fcsMode "\"computed\""
config *.*.ospf.displayStringTextFormat "\"routerID: {routerID}\\n{interfaces}\""
config *.R*.hasOspf true
config *.configurator.addStaticRoutes false
config *.visualizer.interfaceTableVisualizer[0].displayInterfaceTables true
config **.visualizer.interfaceTableVisualizer.nodeFilter "\"not fullPath =~ *.N**\""
config *.visualizer.interfaceTableVisualizer.displayInterfaceTables true
config *.visualizer.numRoutingTableVisualizers 2
config *.visualizer.routingTableVisualizer[*].displayRoutingTables true
config *.visualizer.routingTableVisualizer[0].destinationFilter "\"host6\""
config *.visualizer.routingTableVisualizer[1].destinationFilter "\"host0\""
config *.visualizer.routingTableVisualizer[*].nodeFilter "\"R* and not(N*)\""
config *.visualizer.routingTableVisualizer[0].lineColor "\"blue\""
config *.visualizer.routingTableVisualizer[1].lineColor "\"red\""
config *.visualizer.routingTableVisualizer[*].labelFormat "\"%d/%m (%e) -> %g (%n)\""
config *.visualizer.routingTableVisualizer[*].lineStyle "\"dashed\""
config *.visualizer**.infoVisualizer.displayInfos true
config *.visualizer**.infoVisualizer.modules "\"**ospf\""
config *.visualizer.networkRouteVisualizer[*].displayRoutes true
config *.visualizer.networkRouteVisualizer[*].packetFilter "\"ping* or Udp*\""
config *.visualizer.networkRouteVisualizer.displayRoutes true
config *.visualizer.networkRouteVisualizer.packetFilter "\"ping* or Udp*\""

scalar OSPF_Suboptimal.R1.ethernet pauseSent:count 0
scalar OSPF_Suboptimal.R1.ethernet pauseSent:sum 0
scalar OSPF_Suboptimal.R1.ethernet decapPk:count 2098
scalar OSPF_Suboptimal.R1.ethernet decapPk:sum(packetBytes) 173904
scalar OSPF_Suboptimal.R1.ethernet encapPk:count 2052
scalar OSPF_Suboptimal.R1.ethernet encapPk:sum(packetBytes) 169276
scalar OSPF_Suboptimal.R1.lo[0].lo rcvdPkFromHl:count 0
scalar OSPF_Suboptimal.R1.lo[0].lo rcvdPkFromHl:sum(packetBytes) 0
scalar OSPF_Suboptimal.R1.lo[0].lo passedUpPk:count 0
scalar OSPF_Suboptimal.R1.lo[0].lo passedUpPk:sum(packetBytes) 0
scalar OSPF_Suboptimal.R1.lo[0] packetDropInterfaceDown:count 0
scalar OSPF_Suboptimal.R1.lo[0] packetDropInterfaceDown:sum(packetBytes) 0
scalar OSPF_Suboptimal.R1.lo[0] packetDropNoCarrier:count 0
scalar OSPF_Suboptimal.R1.lo[0] packetDropNoCarrier:sum(packetBytes) 0
scalar OSPF_Suboptimal.R1.eth[0].queue queueLength:last 0
scalar OSPF_Suboptimal.R1.eth[0].queue queueLength:max 13
scalar OSPF_Suboptimal.R1.eth[0].queue queueLength:timeavg 8.0352000000000014e-07
scalar OSPF_Suboptimal.R1.eth[0].queue queueBitLength:last 0
scalar OSPF_Suboptimal.R1.eth[0].queue queueBitLength:max 8528
scalar OSPF_Suboptimal.R1.eth[0].queue queueBitLength:timeavg 0.00053893631999999997
scalar OSPF_Suboptimal.R1.eth[0].queue outgoingPackets:count 1097
scalar OSPF_Suboptimal.R1.eth[0].queue outgoingPacketLengths:sum 877136
scalar OSPF_Suboptimal.R1.eth[0].queue incomingPackets:count 1097
scalar OSPF_Suboptimal.R1.eth[0].queue incomingPacketLengths:sum 877136
scalar OSPF_Suboptimal.R1.eth[0].queue droppedPacketsQueueOverflow:count 0
scalar OSPF_Suboptimal.R1.eth[0].queue droppedPacketLengthsQueueOverflow:sum 0
scalar OSPF_Suboptimal.R1.eth[0].mac "simulated time" 1000
scalar OSPF_Suboptimal.R1.eth[0].mac full-duplex 1
scalar OSPF_Suboptimal.R1.eth[0].mac "frames/sec sent" 1.097
scalar OSPF_Suboptimal.R1.eth[0].mac "frames/sec rcvd" 1.143
scalar OSPF_Suboptimal.R1.eth[0].mac "bits/sec sent" 878.43200000000002
scalar OSPF_Suboptimal.R1.eth[0].mac "bits/sec rcvd" 918.62400000000002
scalar OSPF_Suboptimal.R1.eth[0].mac "rx channel idle (%)" 99.999008223999994
scalar OSPF_Suboptimal.R1.eth[0].mac "rx channel utilization (%)" 0.00099177599999999999
scalar OSPF_Suboptimal.R1.eth[0].mac rxPausePkUnits:count 0
scalar OSPF_Suboptimal.R1.eth[0].mac rxPausePkUnits:sum 0
scalar OSPF_Suboptimal.R1.eth[0].mac txPausePkUnits:count 0
scalar OSPF_Suboptimal.R1.eth[0].mac txPausePkUnits:sum 0
scalar OSPF_Suboptimal.R1.eth[0].mac rxPkOk:count 1143
scalar OSPF_Suboptimal.R1.eth[0].mac rxPkOk:sum(packetBytes) 114828
scalar OSPF_Suboptimal.R1.eth[0].mac txPk:count 1097
scalar OSPF_Suboptimal.R1.eth[0].mac txPk:sum(packetBytes) 109804
scalar OSPF_Suboptimal.R1.eth[0].mac packetReceivedFromUpper:count 1097
scalar OSPF_Suboptimal.R1.eth[0].mac packetReceivedFromUpper:sum(packetBytes) 109642
scalar OSPF_Suboptimal.R1.eth[0].mac passedUpPk:count 1143
scalar OSPF_Suboptimal.R1.eth[0].mac passedUpPk:sum(packetBytes) 114828
scalar OSPF_Suboptimal.R1.eth[0].mac packetDropIncorrectlyReceived:count 0
scalar OSPF_Suboptimal.R1.eth[0].mac packetDropIncorrectlyReceived:sum(packetBytes) 0
scalar OSPF_Suboptimal.R1.eth[0].mac packetDropInterfaceDown:count 0
scalar OSPF_Suboptimal.R1.eth[0].mac packetDropInterfaceDown:sum(packetBytes) 0
scalar OSPF_Suboptimal.R1.eth[0].mac packetDropNotAddressedToUs:count 0
scalar OSPF_Suboptimal.R1.eth[0].mac packetDropNotAddressedToUs:sum(packetBytes) 0
scalar OSPF_Suboptimal.R1.eth[0] packetDropInterfaceDown:count 0
scalar OSPF_Suboptimal.R1.eth[0] packetDropInterfaceDown:sum(packetBytes) 0
scalar OSPF_Suboptimal.R1.eth[0] packetDropNoCarrier:count 0
scalar OSPF_Suboptimal.R1.eth[0] packetDropNoCarrier:sum(packetBytes) 0
scalar OSPF_Suboptimal.R1.eth[1].queue queueLength:last 0
scalar OSPF_Suboptimal.R1.eth[1].queue queueLength:max 0
scalar OSPF_Suboptimal.R1.eth[1].queue queueLength:timeavg 0
scalar OSPF_Suboptimal.R1.eth[1].queue queueBitLength:last 0
scalar OSPF_Suboptimal.R1.eth[1].queue queueBitLength:max 0
scalar OSPF_Suboptimal.R1.eth[1].queue queueBitLength:timeavg 0
scalar OSPF_Suboptimal.R1.eth[1].queue outgoingPackets:count 955
scalar OSPF_Suboptimal.R1.eth[1].queue outgoingPacketLengths:sum 772560
scalar OSPF_Suboptimal.R1.eth[1].queue incomingPackets:count 955
scalar OSPF_Suboptimal.R1.eth[1].queue incomingPacketLengths:sum 772560
scalar OSPF_Suboptimal.R1.eth[1].queue droppedPacketsQueueOverflow:count 0
scalar OSPF_Suboptimal.R1.eth[1].queue droppedPacketLengthsQueueOverflow:sum 0
scalar OSPF_Suboptimal.R1.eth[1].mac "simulated time" 1000
scalar OSPF_Suboptimal.R1.eth[1].mac full-duplex 1
scalar OSPF_Suboptimal.R1.eth[1].mac "frames/sec sent" 0.95499999999999996
scalar OSPF_Suboptimal.R1.eth[1].mac "frames/sec rcvd" 0.95499999999999996
scalar OSPF_Suboptimal.R1.eth[1].mac "bits/sec sent" 774.72000000000003
scalar OSPF_Suboptimal.R1.eth[1].mac "bits/sec rcvd" 774.72000000000003
scalar OSPF_Suboptimal.R1.eth[1].mac "rx channel idle (%)" 99.999164159999992
scalar OSPF_Suboptimal.R1.eth[1].mac "rx channel utilization (%)" 0.00083583999999999991
scalar OSPF_Suboptimal.R1.eth[1].mac rxPausePkUnits:count 0
scalar OSPF_Suboptimal.R1.eth[1].mac rxPausePkUnits:sum 0
scalar OSPF_Suboptimal.R1.eth[1].mac txPausePkUnits:count 0
scalar OSPF_Suboptimal.R1.eth[1].mac txPausePkUnits:sum 0
scalar OSPF_Suboptimal.R1.eth[1].mac rxPkOk:count 955
scalar OSPF_Suboptimal.R1.eth[1].mac rxPkOk:sum(packetBytes) 96840
scalar OSPF_Suboptimal.R1.eth[1].mac txPk:count 955
scalar OSPF_Suboptimal.R1.eth[1].mac txPk:sum(packetBytes) 96840
scalar OSPF_Suboptimal.R1.eth[1].mac packetReceivedFromUpper:count 955
scalar OSPF_Suboptimal.R1.eth[1].mac packetReceivedFromUpper:sum(packetBytes) 96570
scalar OSPF_Suboptimal.R1.eth[1].mac passedUpPk:count 955
scalar OSPF_Suboptimal.R1.eth[1].mac passedUpPk:sum(packetBytes) 96840
scalar OSPF_Suboptimal.R1.eth[1].mac packetDropIncorrectlyReceived:count 0
scalar OSPF_Suboptimal.R1.eth[1].mac packetDropIncorrectlyReceived:sum(packetBytes) 0
scalar OSPF_Suboptimal.R1.eth[1].mac packetDropInterfaceDown:count 0
scalar OSPF_Suboptimal.R1.eth[1].mac packetDropInterfaceDown:sum(packetBytes) 0
scalar OSPF_Suboptimal.R1.eth[1].mac packetDropNotAddressedToUs:count 0
scalar OSPF_Suboptimal.R1.eth[1].mac packetDropNotAddressedToUs:sum(packetBytes) 0
scalar OSPF_Suboptimal.R1.eth[1] packetDropInterfaceDown:count 0
scalar OSPF_Suboptimal.R1.eth[1] packetDropInterfaceDown:sum(packetBytes) 0
scalar OSPF_Suboptimal.R1.eth[1] packetDropNoCarrier:count 0
scalar OSPF_Suboptimal.R1.eth[1] packetDropNoCarrier:sum(packetBytes) 0
scalar OSPF_Suboptimal.R1.ipv4.ip packetDropAddressResolutionFailed:count 0
scalar OSPF_Suboptimal.R1.ipv4.ip packetDropAddressResolutionFailed:sum(packetBytes) 0
scalar OSPF_Suboptimal.R1.ipv4.ip packetDropHopLimitReached:count 0
scalar OSPF_Suboptimal.R1.ipv4.ip packetDropHopLimitReached:sum(packetBytes) 0
scalar OSPF_Suboptimal.R1.ipv4.ip packetDropForwardingDisabled:count 0
scalar OSPF_Suboptimal.R1.ipv4.ip packetDropForwardingDisabled:sum(packetBytes) 0
scalar OSPF_Suboptimal.R1.ipv4.ip packetDropLifetimeExpired:count 0
scalar OSPF_Suboptimal.R1.ipv4.ip packetDropLifetimeExpired:sum(packetBytes) 0
scalar OSPF_Suboptimal.R1.ipv4.ip packetDropNoInterfaceFound:count 0
scalar OSPF_Suboptimal.R1.ipv4.ip packetDropNoInterfaceFound:sum(packetBytes) 0
scalar OSPF_Suboptimal.R1.ipv4.ip packetDropNoRouteFound:count 0
scalar OSPF_Suboptimal.R1.ipv4.ip packetDropNoRouteFound:sum(packetBytes) 0
scalar OSPF_Suboptimal.R1.ipv4.ip packetDropUndefined:count 0
scalar OSPF_Suboptimal.R1.ipv4.ip packetDropUndefined:sum(packetBytes) 0
scalar OSPF_Suboptimal.R1.ipv4.arp arpResolutionFailed:count 0
scalar OSPF_Suboptimal.R1.ipv4.arp arpResolutionCompleted:count 24
scalar OSPF_Suboptimal.R1.ipv4.arp arpResolutionInitiated:count 12
scalar OSPF_Suboptimal.R1.ipv4.arp arpReplySent:count 12
scalar OSPF_Suboptimal.R1.ipv4.arp arpReplySent:sum(packetBytes) 336
scalar OSPF_Suboptimal.R1.ipv4.arp arpRequestSent:count 12
scalar OSPF_Suboptimal.R1.ipv4.arp arpRequestSent:sum(packetBytes) 336
scalar OSPF_Suboptimal.R2.ethernet pauseSent:count 0
scalar OSPF_Suboptimal.R2.ethernet pauseSent:sum 0
scalar OSPF_Suboptimal.R2.ethernet decapPk:count 2609
scalar OSPF_Suboptimal.R2.ethernet decapPk:sum(packetBytes) 212676
scalar OSPF_Suboptimal.R2.ethernet encapPk:count 2879
scalar OSPF_Suboptimal.R2.ethernet encapPk:sum(packetBytes) 228560
scalar OSPF_Suboptimal.R2.lo[0].lo rcvdPkFromHl:count 0
scalar OSPF_Suboptimal.R2.lo[0].lo rcvdPkFromHl:sum(packetBytes) 0
scalar OSPF_Suboptimal.R2.lo[0].lo passedUpPk:count 0
scalar OSPF_Suboptimal.R2.lo[0].lo passedUpPk:sum(packetBytes) 0
scalar OSPF_Suboptimal.R2.lo[0] packetDropInterfaceDown:count 0
scalar OSPF_Suboptimal.R2.lo[0] packetDropInterfaceDown:sum(packetBytes) 0
scalar OSPF_Suboptimal.R2.lo[0] packetDropNoCarrier:count 0
scalar OSPF_Suboptimal.R2.lo[0] packetDropNoCarrier:sum(packetBytes) 0
scalar OSPF_Suboptimal.R2.eth[0].queue queueLength:last 0
scalar OSPF_Suboptimal.R2.eth[0].queue queueLength:max 7
scalar OSPF_Suboptimal.R2.eth[0].queue queueLength:timeavg 1.2359200000000009e-06
scalar OSPF_Suboptimal.R2.eth[0].queue queueBitLength:last 0
scalar OSPF_Suboptimal.R2.eth[0].queue queueBitLength:max 5616
scalar OSPF_Suboptimal.R2.eth[0].queue queueBitLength:timeavg 0.00094880128000000017
scalar OSPF_Suboptimal.R2.eth[0].queue outgoingPackets:count 1143
scalar OSPF_Suboptimal.R2.eth[0].queue outgoingPacketLengths:sum 917328
scalar OSPF_Suboptimal.R2.eth[0].queue incomingPackets:count 1143
scalar OSPF_Suboptimal.R2.eth[0].queue incomingPacketLengths:sum 917328
scalar OSPF_Suboptimal.R2.eth[0].queue droppedPacketsQueueOverflow:count 0
scalar OSPF_Suboptimal.R2.eth[0].queue droppedPacketLengthsQueueOverflow:sum 0
scalar OSPF_Suboptimal.R2.eth[0].mac "simulated time" 1000
scalar OSPF_Suboptimal.R2.eth[0].mac full-duplex 1
scalar OSPF_Suboptimal.R2.eth[0].mac "frames/sec sent" 1.143
scalar OSPF_Suboptimal.R2.eth[0].mac "frames/sec rcvd" 1.097
scalar OSPF_Suboptimal.R2.eth[0].mac "bits/sec sent" 918.62400000000002
scalar OSPF_Suboptimal.R2.eth[0].mac "bits/sec rcvd" 878.43200000000002
scalar OSPF_Suboptimal.R2.eth[0].mac "rx channel idle (%)" 99.999051359999996
scalar OSPF_Suboptimal.R2.eth[0].mac "rx channel utilization (%)" 0.00094863999999999994
scalar OSPF_Suboptimal.R2.eth[0].mac rxPausePkUnits:count 0
scalar OSPF_Suboptimal.R2.eth[0].mac rxPausePkUnits:sum 0
scalar OSPF_Suboptimal.R2.eth[0].mac txPausePkUnits:count 0
scalar OSPF_Suboptimal.R2.eth[0].mac txPausePkUnits:sum 0
scalar OSPF_Suboptimal.R2.eth[0].mac rxPkOk:count 1097
scalar OSPF_Suboptimal.R2.eth[0].mac rxPkOk:sum(packetBytes) 109804
scalar OSPF_Suboptimal.R2.eth[0].mac txPk:count 1143
scalar OSPF_Suboptimal.R2.eth[0].mac txPk:sum(packetBytes) 114828
scalar OSPF_Suboptimal.R2.eth[0].mac packetReceivedFromUpper:count 1143
scalar OSPF_Suboptimal.R2.eth[0].mac packetReceivedFromUpper:sum(packetBytes) 114666
scalar OSPF_Suboptimal.R2.eth[0].mac passedUpPk:count 1097
scalar OSPF_Suboptimal.R2.eth[0].mac passedUpPk:sum(packetBytes) 109804
scalar OSPF_Suboptimal.R2.eth[0].mac packetDropIncorrectlyReceived:count 0
scalar OSPF_Suboptimal.R2.eth[0].mac packetDropIncorrectlyReceived:sum(packetBytes) 0
scalar OSPF_Suboptimal.R2.eth[0].mac packetDropInterfaceDown:count 0
scalar OSPF_Suboptimal.R2.eth[0].mac packetDropInterfaceDown:sum(packetBytes) 0
scalar OSPF_Suboptimal.R2.eth[0].mac packetDropNotAddressedToUs:count 0
scalar OSPF_Suboptimal.R2.eth[0].mac packetDropNotAddressedToUs:sum(packetBytes) 0
scalar OSPF_Suboptimal.R2.eth[0] packetDropInterfaceDown:count 0
scalar OSPF_Suboptimal.R2.eth[0] packetDropInterfaceDown:sum(packetBytes) 0
scalar OSPF_Suboptimal.R2.eth[0] packetDropNoCarrier:count 0
scalar OSPF_Suboptimal.R2.eth[0] packetDropNoCarrier:sum(packetBytes) 0
scalar OSPF_Suboptimal.R2.eth[1].queue queueLength:last 0
scalar OSPF_Suboptimal.R2.eth[1].queue queueLength:max 13
scalar OSPF_Suboptimal.R2.eth[1].queue queueLength:timeavg 1.4248999999999997e-06
scalar OSPF_Suboptimal.R2.eth[1].queue queueBitLength:last 0
scalar OSPF_Suboptimal.R2.eth[1].queue queueBitLength:max 9104
scalar OSPF_Suboptimal.R2.eth[1].queue queueBitLength:timeavg 0.0010611343999999997
scalar OSPF_Suboptimal.R2.eth[1].queue outgoingPackets:count 191
scalar OSPF_Suboptimal.R2.eth[1].queue outgoingPacketLengths:sum 144144
scalar OSPF_Suboptimal.R2.eth[1].queue incomingPackets:count 191
scalar OSPF_Suboptimal.R2.eth[1].queue incomingPacketLengths:sum 144144
scalar OSPF_Suboptimal.R2.eth[1].queue droppedPacketsQueueOverflow:count 0
scalar OSPF_Suboptimal.R2.eth[1].queue droppedPacketLengthsQueueOverflow:sum 0
scalar OSPF_Suboptimal.R2.eth[1].mac "simulated time" 1000
scalar OSPF_Suboptimal.R2.eth[1].mac full-duplex 1
scalar OSPF_Suboptimal.R2.eth[1].mac "frames/sec sent" 0.191
scalar OSPF_Suboptimal.R2.eth[1].mac "frames/sec rcvd" 0.17799999999999999
scalar OSPF_Suboptimal.R2.eth[1].mac "bits/sec sent" 144.28800000000001
scalar OSPF_Suboptimal.R2.eth[1].mac "bits/sec rcvd" 132.65600000000001
scalar OSPF_Suboptimal.R2.eth[1].mac "rx channel idle (%)" 99.999855952000004
scalar OSPF_Suboptimal.R2.eth[1].mac "rx channel utilization (%)" 0.000144048
scalar OSPF_Suboptimal.R2.eth[1].mac rxPausePkUnits:count 0
scalar OSPF_Suboptimal.R2.eth[1].mac rxPausePkUnits:sum 0
scalar OSPF_Suboptimal.R2.eth[1].mac txPausePkUnits:count 0
scalar OSPF_Suboptimal.R2.eth[1].mac txPausePkUnits:sum 0
scalar OSPF_Suboptimal.R2.eth[1].mac rxPkOk:count 178
scalar OSPF_Suboptimal.R2.eth[1].mac rxPkOk:sum(packetBytes) 16582
scalar OSPF_Suboptimal.R2.eth[1].mac txPk:count 191
scalar OSPF_Suboptimal.R2.eth[1].mac txPk:sum(packetBytes) 18036
scalar OSPF_Suboptimal.R2.eth[1].mac packetReceivedFromUpper:count 191
scalar OSPF_Suboptimal.R2.eth[1].mac packetReceivedFromUpper:sum(packetBytes) 18018
scalar OSPF_Suboptimal.R2.eth[1].mac passedUpPk:count 178
scalar OSPF_Suboptimal.R2.eth[1].mac passedUpPk:sum(packetBytes) 16582
scalar OSPF_Suboptimal.R2.eth[1].mac packetDropIncorrectlyReceived:count 0
scalar OSPF_Suboptimal.R2.eth[1].mac packetDropIncorrectlyReceived:sum(packetBytes) 0
scalar OSPF_Suboptimal.R2.eth[1].mac packetDropInterfaceDown:count 0
scalar OSPF_Suboptimal.R2.eth[1].mac packetDropInterfaceDown:sum(packetBytes) 0
scalar OSPF_Suboptimal.R2.eth[1].mac packetDropNotAddressedToUs:count 0
scalar OSPF_Suboptimal.R2.eth[1].mac packetDropNotAddressedToUs:sum(packetBytes) 0
scalar OSPF_Suboptimal.R2.eth[1] packetDropInterfaceDown:count 0
scalar OSPF_Suboptimal.R2.eth[1] packetDropInterfaceDown:sum(packetBytes) 0
scalar OSPF_Suboptimal.R2.eth[1] packetDropNoCarrier:count 0
scalar OSPF_Suboptimal.R2.eth[1] packetDropNoCarrier:sum(packetBytes) 0
scalar OSPF_Suboptimal.R2.eth[2].queue queueLength:last 0
scalar OSPF_Suboptimal.R2.eth[2].queue queueLength:max 5
scalar OSPF_Suboptimal.R2.eth[2].queue queueLength:timeavg 1.0703600000000003e-06
scalar OSPF_Suboptimal.R2.eth[2].queue queueBitLength:last 0
scalar OSPF_Suboptimal.R2.eth[2].queue queueBitLength:max 3920
scalar OSPF_Suboptimal.R2.eth[2].queue queueBitLength:timeavg 0.00082936127999999989
scalar OSPF_Suboptimal.R2.eth[2].queue outgoingPackets:count 210
scalar OSPF_Suboptimal.R2.eth[2].queue outgoingPacketLengths:sum 158880
scalar OSPF_Suboptimal.R2.eth[2].queue incomingPackets:count 210
scalar OSPF_Suboptimal.R2.eth[2].queue incomingPacketLengths:sum 158880
scalar OSPF_Suboptimal.R2.eth[2].queue droppedPacketsQueueOverflow:count 0
scalar OSPF_Suboptimal.R2.eth[2].queue droppedPacketLengthsQueueOverflow:sum 0
scalar OSPF_Suboptimal.R2.eth[2].mac "simulated time" 1000
scalar OSPF_Suboptimal.R2.eth[2].mac full-duplex 1
scalar OSPF_Suboptimal.R2.eth[2].mac "frames/sec sent" 0.20999999999999999
scalar OSPF_Suboptimal.R2.eth[2].mac "frames/sec rcvd" 1.145
scalar OSPF_Suboptimal.R2.eth[2].mac "bits/sec sent" 160.17599999999999
scalar OSPF_Suboptimal.R2.eth[2].mac "bits/sec rcvd" 922.91200000000003
scalar OSPF_Suboptimal.R2.eth[2].mac "rx channel idle (%)" 99.999003807999998
scalar OSPF_Suboptimal.R2.eth[2].mac "rx channel utilization (%)" 0.00099619199999999991
scalar OSPF_Suboptimal.R2.eth[2].mac rxPausePkUnits:count 0
scalar OSPF_Suboptimal.R2.eth[2].mac rxPausePkUnits:sum 0
scalar OSPF_Suboptimal.R2.eth[2].mac txPausePkUnits:count 0
scalar OSPF_Suboptimal.R2.eth[2].mac txPausePkUnits:sum 0
scalar OSPF_Suboptimal.R2.eth[2].mac rxPkOk:count 1145
scalar OSPF_Suboptimal.R2.eth[2].mac rxPkOk:sum(packetBytes) 115364
scalar OSPF_Suboptimal.R2.eth[2].mac txPk:count 210
scalar OSPF_Suboptimal.R2.eth[2].mac txPk:sum(packetBytes) 20022
scalar OSPF_Suboptimal.R2.eth[2].mac packetReceivedFromUpper:count 210
scalar OSPF_Suboptimal.R2.eth[2].mac packetReceivedFromUpper:sum(packetBytes) 19860
scalar OSPF_Suboptimal.R2.eth[2].mac passedUpPk:count 1145
scalar OSPF_Suboptimal.R2.eth[2].mac passedUpPk:sum(packetBytes) 115364
scalar OSPF_Suboptimal.R2.eth[2].mac packetDropIncorrectlyReceived:count 0
scalar OSPF_Suboptimal.R2.eth[2].mac packetDropIncorrectlyReceived:sum(packetBytes) 0
scalar OSPF_Suboptimal.R2.eth[2].mac packetDropInterfaceDown:count 0
scalar OSPF_Suboptimal.R2.eth[2].mac packetDropInterfaceDown:sum(packetBytes) 0
scalar OSPF_Suboptimal.R2.eth[2].mac packetDropNotAddressedToUs:count 0
scalar OSPF_Suboptimal.R2.eth[2].mac packetDropNotAddressedToUs:sum(packetBytes) 0
scalar OSPF_Suboptimal.R2.eth[2] packetDropInterfaceDown:count 0
scalar OSPF_Suboptimal.R2.eth[2] packetDropInterfaceDown:sum(packetBytes) 0
scalar OSPF_Suboptimal.R2.eth[2] packetDropNoCarrier:count 0
scalar OSPF_Suboptimal.R2.eth[2] packetDropNoCarrier:sum(packetBytes) 0
scalar OSPF_Suboptimal.R2.eth[3].queue queueLength:last 0
scalar OSPF_Suboptimal.R2.eth[3].queue queueLength:max 8
scalar OSPF_Suboptimal.R2.eth[3].queue queueLength:timeavg 1.1823600000000005e-06
scalar OSPF_Suboptimal.R2.eth[3].queue queueBitLength:last 0
scalar OSPF_Suboptimal.R2.eth[3].queue queueBitLength:max 6880
scalar OSPF_Suboptimal.R2.eth[3].queue queueBitLength:timeavg 0.00092977152000000033
scalar OSPF_Suboptimal.R2.eth[3].queue outgoingPackets:count 1335
scalar OSPF_Suboptimal.R2.eth[3].queue outgoingPacketLengths:sum 1022704
scalar OSPF_Suboptimal.R2.eth[3].queue incomingPackets:count 1335
scalar OSPF_Suboptimal.R2.eth[3].queue incomingPacketLengths:sum 1022704
scalar OSPF_Suboptimal.R2.eth[3].queue droppedPacketsQueueOverflow:count 0
scalar OSPF_Suboptimal.R2.eth[3].queue droppedPacketLengthsQueueOverflow:sum 0
scalar OSPF_Suboptimal.R2.eth[3].mac "simulated time" 1000
scalar OSPF_Suboptimal.R2.eth[3].mac full-duplex 1
scalar OSPF_Suboptimal.R2.eth[3].mac "frames/sec sent" 1.335
scalar OSPF_Suboptimal.R2.eth[3].mac "frames/sec rcvd" 0.189
scalar OSPF_Suboptimal.R2.eth[3].mac "bits/sec sent" 1024
scalar OSPF_Suboptimal.R2.eth[3].mac "bits/sec rcvd" 143.10400000000001
scalar OSPF_Suboptimal.R2.eth[3].mac "rx channel idle (%)" 99.999844800000005
scalar OSPF_Suboptimal.R2.eth[3].mac "rx channel utilization (%)" 0.0001552
scalar OSPF_Suboptimal.R2.eth[3].mac rxPausePkUnits:count 0
scalar OSPF_Suboptimal.R2.eth[3].mac rxPausePkUnits:sum 0
scalar OSPF_Suboptimal.R2.eth[3].mac txPausePkUnits:count 0
scalar OSPF_Suboptimal.R2.eth[3].mac txPausePkUnits:sum 0
scalar OSPF_Suboptimal.R2.eth[3].mac rxPkOk:count 189
scalar OSPF_Suboptimal.R2.eth[3].mac rxPkOk:sum(packetBytes) 17888
scalar OSPF_Suboptimal.R2.eth[3].mac txPk:count 1335
scalar OSPF_Suboptimal.R2.eth[3].mac txPk:sum(packetBytes) 128000
scalar OSPF_Suboptimal.R2.eth[3].mac packetReceivedFromUpper:count 1335
scalar OSPF_Suboptimal.R2.eth[3].mac packetReceivedFromUpper:sum(packetBytes) 127838
scalar OSPF_Suboptimal.R2.eth[3].mac passedUpPk:count 189
scalar OSPF_Suboptimal.R2.eth[3].mac passedUpPk:sum(packetBytes) 17888
scalar OSPF_Suboptimal.R2.eth[3].mac packetDropIncorrectlyReceived:count 0
scalar OSPF_Suboptimal.R2.eth[3].mac packetDropIncorrectlyReceived:sum(packetBytes) 0
scalar OSPF_Suboptimal.R2.eth[3].mac packetDropInterfaceDown:count 0
scalar OSPF_Suboptimal.R2.eth[3].mac packetDropInterfaceDown:sum(packetBytes) 0
scalar OSPF_Suboptimal.R2.eth[3].mac packetDropNotAddressedToUs:count 0
scalar OSPF_Suboptimal.R2.eth[3].mac packetDropNotAddressedToUs:sum(packetBytes) 0
scalar OSPF_Suboptimal.R2.eth[3] packetDropInterfaceDown:count 0
scalar OSPF_Suboptimal.R2.eth[3] packetDropInterfaceDown:sum(packetBytes) 0
scalar OSPF_Suboptimal.R2.eth[3] packetDropNoCarrier:count 0
scalar OSPF_Suboptimal.R2.eth[3] packetDropNoCarrier:sum(packetBytes) 0
scalar OSPF_Suboptimal.R2.ipv4.ip packetDropAddressResolutionFailed:count 0
scalar OSPF_Suboptimal.R2.ipv4.ip packetDropAddressResolutionFailed:sum(packetBytes) 0
scalar OSPF_Suboptimal.R2.ipv4.ip packetDropHopLimitReached:count 0
scalar OSPF_Suboptimal.R2.ipv4.ip packetDropHopLimitReached:sum(packetBytes) 0
scalar OSPF_Suboptimal.R2.ipv4.ip packetDropForwardingDisabled:count 0
scalar OSPF_Suboptimal.R2.ipv4.ip packetDropForwardingDisabled:sum(packetBytes) 0
scalar OSPF_Suboptimal.R2.ipv4.ip packetDropLifetimeExpired:count 0
scalar OSPF_Suboptimal.R2.ipv4.ip packetDropLifetimeExpired:sum(packetBytes) 0
scalar OSPF_Suboptimal.R2.ipv4.ip packetDropNoInterfaceFound:count 0
scalar OSPF_Suboptimal.R2.ipv4.ip packetDropNoInterfaceFound:sum(packetBytes) 0
scalar OSPF_Suboptimal.R2.ipv4.ip packetDropNoRouteFound:count 0
scalar OSPF_Suboptimal.R2.ipv4.ip packetDropNoRouteFound:sum(packetBytes) 0
scalar OSPF_Suboptimal.R2.ipv4.ip packetDropUndefined:count 0
scalar OSPF_Suboptimal.R2.ipv4.ip packetDropUndefined:sum(packetBytes) 0
scalar OSPF_Suboptimal.R2.ipv4.arp arpResolutionFailed:count 0
scalar OSPF_Suboptimal.R2.ipv4.arp arpResolutionCompleted:count 28
scalar OSPF_Suboptimal.R2.ipv4.arp arpResolutionInitiated:count 14
scalar OSPF_Suboptimal.R2.ipv4.arp arpReplySent:count 14
scalar OSPF_Suboptimal.R2.ipv4.arp arpReplySent:sum(packetBytes) 392
scalar OSPF_Suboptimal.R2.ipv4.arp arpRequestSent:count 14
scalar OSPF_Suboptimal.R2.ipv4.arp arpRequestSent:sum(packetBytes) 392
scalar OSPF_Suboptimal.R3.ethernet pauseSent:count 0
scalar OSPF_Suboptimal.R3.ethernet pauseSent:sum 0
scalar OSPF_Suboptimal.R3.ethernet decapPk:count 1529
scalar OSPF_Suboptimal.R3.ethernet decapPk:sum(packetBytes) 124170
scalar OSPF_Suboptimal.R3.ethernet encapPk:count 1501
scalar OSPF_Suboptimal.R3.ethernet encapPk:sum(packetBytes) 121212
scalar OSPF_Suboptimal.R3.lo[0].lo rcvdPkFromHl:count 0
scalar OSPF_Suboptimal.R3.lo[0].lo rcvdPkFromHl:sum(packetBytes) 0
scalar OSPF_Suboptimal.R3.lo[0].lo passedUpPk:count 0
scalar OSPF_Suboptimal.R3.lo[0].lo passedUpPk:sum(packetBytes) 0
scalar OSPF_Suboptimal.R3.lo[0] packetDropInterfaceDown:count 0
scalar OSPF_Suboptimal.R3.lo[0] packetDropInterfaceDown:sum(packetBytes) 0
scalar OSPF_Suboptimal.R3.lo[0] packetDropNoCarrier:count 0
scalar OSPF_Suboptimal.R3.lo[0] packetDropNoCarrier:sum(packetBytes) 0
scalar OSPF_Suboptimal.R3.eth[0].queue queueLength:last 0
scalar OSPF_Suboptimal.R3.eth[0].queue queueLength:max 6
scalar OSPF_Suboptimal.R3.eth[0].queue queueLength:timeavg 8.0852000000000031e-07
scalar OSPF_Suboptimal.R3.eth[0].queue queueBitLength:last 0
scalar OSPF_Suboptimal.R3.eth[0].queue queueBitLength:max 4704
scalar OSPF_Suboptimal.R3.eth[0].queue queueBitLength:timeavg 0.00059819903999999994
scalar OSPF_Suboptimal.R3.eth[0].queue outgoingPackets:count 178
scalar OSPF_Suboptimal.R3.eth[0].queue outgoingPacketLengths:sum 132512
scalar OSPF_Suboptimal.R3.eth[0].queue incomingPackets:count 178
scalar OSPF_Suboptimal.R3.eth[0].queue incomingPacketLengths:sum 132512
scalar OSPF_Suboptimal.R3.eth[0].queue droppedPacketsQueueOverflow:count 0
scalar OSPF_Suboptimal.R3.eth[0].queue droppedPacketLengthsQueueOverflow:sum 0
scalar OSPF_Suboptimal.R3.eth[0].mac "simulated time" 1000
scalar OSPF_Suboptimal.R3.eth[0].mac full-duplex 1
scalar OSPF_Suboptimal.R3.eth[0].mac "frames/sec sent" 0.17799999999999999
scalar OSPF_Suboptimal.R3.eth[0].mac "frames/sec rcvd" 0.191
scalar OSPF_Suboptimal.R3.eth[0].mac "bits/sec sent" 132.65600000000001
scalar OSPF_Suboptimal.R3.eth[0].mac "bits/sec rcvd" 144.28800000000001
scalar OSPF_Suboptimal.R3.eth[0].mac "rx channel idle (%)" 99.999843487999996
scalar OSPF_Suboptimal.R3.eth[0].mac "rx channel utilization (%)" 0.00015651200000000001
scalar OSPF_Suboptimal.R3.eth[0].mac rxPausePkUnits:count 0
scalar OSPF_Suboptimal.R3.eth[0].mac rxPausePkUnits:sum 0
scalar OSPF_Suboptimal.R3.eth[0].mac txPausePkUnits:count 0
scalar OSPF_Suboptimal.R3.eth[0].mac txPausePkUnits:sum 0
scalar OSPF_Suboptimal.R3.eth[0].mac rxPkOk:count 191
scalar OSPF_Suboptimal.R3.eth[0].mac rxPkOk:sum(packetBytes) 18036
scalar OSPF_Suboptimal.R3.eth[0].mac txPk:count 178
scalar OSPF_Suboptimal.R3.eth[0].mac txPk:sum(packetBytes) 16582
scalar OSPF_Suboptimal.R3.eth[0].mac packetReceivedFromUpper:count 178
scalar OSPF_Suboptimal.R3.eth[0].mac packetReceivedFromUpper:sum(packetBytes) 16564
scalar OSPF_Suboptimal.R3.eth[0].mac passedUpPk:count 191
scalar OSPF_Suboptimal.R3.eth[0].mac passedUpPk:sum(packetBytes) 18036
scalar OSPF_Suboptimal.R3.eth[0].mac packetDropIncorrectlyReceived:count 0
scalar OSPF_Suboptimal.R3.eth[0].mac packetDropIncorrectlyReceived:sum(packetBytes) 0
scalar OSPF_Suboptimal.R3.eth[0].mac packetDropInterfaceDown:count 0
scalar OSPF_Suboptimal.R3.eth[0].mac packetDropInterfaceDown:sum(packetBytes) 0
scalar OSPF_Suboptimal.R3.eth[0].mac packetDropNotAddressedToUs:count 0
scalar OSPF_Suboptimal.R3.eth[0].mac packetDropNotAddressedToUs:sum(packetBytes) 0
scalar OSPF_Suboptimal.R3.eth[0] packetDropInterfaceDown:count 0
scalar OSPF_Suboptimal.R3.eth[0] packetDropInterfaceDown:sum(packetBytes) 0
scalar OSPF_Suboptimal.R3.eth[0] packetDropNoCarrier:count 0
scalar OSPF_Suboptimal.R3.eth[0] packetDropNoCarrier:sum(packetBytes) 0
scalar OSPF_Suboptimal.R3.eth[1].queue queueLength:last 0
scalar OSPF_Suboptimal.R3.eth[1].queue queueLength:max 10
scalar OSPF_Suboptimal.R3.eth[1].queue queueLength:timeavg 1.0834800000000004e-06
scalar OSPF_Suboptimal.R3.eth[1].queue queueBitLength:last 0
scalar OSPF_Suboptimal.R3.eth[1].queue queueBitLength:max 7520
scalar OSPF_Suboptimal.R3.eth[1].queue queueBitLength:timeavg 0.00080740416000000008
scalar OSPF_Suboptimal.R3.eth[1].queue outgoingPackets:count 189
scalar OSPF_Suboptimal.R3.eth[1].queue outgoingPacketLengths:sum 141520
scalar OSPF_Suboptimal.R3.eth[1].queue incomingPackets:count 189
scalar OSPF_Suboptimal.R3.eth[1].queue incomingPacketLengths:sum 141520
scalar OSPF_Suboptimal.R3.eth[1].queue droppedPacketsQueueOverflow:count 0
scalar OSPF_Suboptimal.R3.eth[1].queue droppedPacketLengthsQueueOverflow:sum 0
scalar OSPF_Suboptimal.R3.eth[1].mac "simulated time" 1000
scalar OSPF_Suboptimal.R3.eth[1].mac full-duplex 1
scalar OSPF_Suboptimal.R3.eth[1].mac "frames/sec sent" 0.189
scalar OSPF_Suboptimal.R3.eth[1].mac "frames/sec rcvd" 1.137
scalar OSPF_Suboptimal.R3.eth[1].mac "bits/sec sent" 142.816
scalar OSPF_Suboptimal.R3.eth[1].mac "bits/sec rcvd" 917.24800000000005
scalar OSPF_Suboptimal.R3.eth[1].mac "rx channel idle (%)" 99.999009983999997
scalar OSPF_Suboptimal.R3.eth[1].mac "rx channel utilization (%)" 0.00099001600000000003
scalar OSPF_Suboptimal.R3.eth[1].mac rxPausePkUnits:count 0
scalar OSPF_Suboptimal.R3.eth[1].mac rxPausePkUnits:sum 0
scalar OSPF_Suboptimal.R3.eth[1].mac txPausePkUnits:count 0
scalar OSPF_Suboptimal.R3.eth[1].mac txPausePkUnits:sum 0
scalar OSPF_Suboptimal.R3.eth[1].mac rxPkOk:count 1137
scalar OSPF_Suboptimal.R3.eth[1].mac rxPkOk:sum(packetBytes) 114656
scalar OSPF_Suboptimal.R3.eth[1].mac txPk:count 189
scalar OSPF_Suboptimal.R3.eth[1].mac txPk:sum(packetBytes) 17852
scalar OSPF_Suboptimal.R3.eth[1].mac packetReceivedFromUpper:count 189
scalar OSPF_Suboptimal.R3.eth[1].mac packetReceivedFromUpper:sum(packetBytes) 17690
scalar OSPF_Suboptimal.R3.eth[1].mac passedUpPk:count 1137
scalar OSPF_Suboptimal.R3.eth[1].mac passedUpPk:sum(packetBytes) 114656
scalar OSPF_Suboptimal.R3.eth[1].mac packetDropIncorrectlyReceived:count 0
scalar OSPF_Suboptimal.R3.eth[1].mac packetDropIncorrectlyReceived:sum(packetBytes) 0
scalar OSPF_Suboptimal.R3.eth[1].mac packetDropInterfaceDown:count 0
scalar OSPF_Suboptimal.R3.eth[1].mac packetDropInterfaceDown:sum(packetBytes) 0
scalar OSPF_Suboptimal.R3.eth[1].mac packetDropNotAddressedToUs:count 0
scalar OSPF_Suboptimal.R3.eth[1].mac packetDropNotAddressedToUs:sum(packetBytes) 0
scalar OSPF_Suboptimal.R3.eth[1] packetDropInterfaceDown:count 0
scalar OSPF_Suboptimal.R3.eth[1] packetDropInterfaceDown:sum(packetBytes) 0
scalar OSPF_Suboptimal.R3.eth[1] packetDropNoCarrier:count 0
scalar OSPF_Suboptimal.R3.eth[1] packetDropNoCarrier:sum(packetBytes) 0
scalar OSPF_Suboptimal.R3.eth[2].queue queueLength:last 0
scalar OSPF_Suboptimal.R3.eth[2].queue queueLength:max 10
scalar OSPF_Suboptimal.R3.eth[2].queue queueLength:timeavg 1.4151200000000001e-06
scalar OSPF_Suboptimal.R3.eth[2].queue queueBitLength:last 0
scalar OSPF_Suboptimal.R3.eth[2].queue queueBitLength:max 7520
scalar OSPF_Suboptimal.R3.eth[2].queue queueBitLength:timeavg 0.0010944479999999998
scalar OSPF_Suboptimal.R3.eth[2].queue outgoingPackets:count 1134
scalar OSPF_Suboptimal.R3.eth[2].queue outgoingPacketLengths:sum 911808
scalar OSPF_Suboptimal.R3.eth[2].queue incomingPackets:count 1134
scalar OSPF_Suboptimal.R3.eth[2].queue incomingPacketLengths:sum 911808
scalar OSPF_Suboptimal.R3.eth[2].queue droppedPacketsQueueOverflow:count 0
scalar OSPF_Suboptimal.R3.eth[2].queue droppedPacketLengthsQueueOverflow:sum 0
scalar OSPF_Suboptimal.R3.eth[2].mac "simulated time" 1000
scalar OSPF_Suboptimal.R3.eth[2].mac full-duplex 1
scalar OSPF_Suboptimal.R3.eth[2].mac "frames/sec sent" 1.1339999999999999
scalar OSPF_Suboptimal.R3.eth[2].mac "frames/sec rcvd" 0.20100000000000001
scalar OSPF_Suboptimal.R3.eth[2].mac "bits/sec sent" 913.10400000000004
scalar OSPF_Suboptimal.R3.eth[2].mac "bits/sec rcvd" 152
scalar OSPF_Suboptimal.R3.eth[2].mac "rx channel idle (%)" 99.999835136000002
scalar OSPF_Suboptimal.R3.eth[2].mac "rx channel utilization (%)" 0.000164864
scalar OSPF_Suboptimal.R3.eth[2].mac rxPausePkUnits:count 0
scalar OSPF_Suboptimal.R3.eth[2].mac rxPausePkUnits:sum 0
scalar OSPF_Suboptimal.R3.eth[2].mac txPausePkUnits:count 0
scalar OSPF_Suboptimal.R3.eth[2].mac txPausePkUnits:sum 0
scalar OSPF_Suboptimal.R3.eth[2].mac rxPkOk:count 201
scalar OSPF_Suboptimal.R3.eth[2].mac rxPkOk:sum(packetBytes) 19000
scalar OSPF_Suboptimal.R3.eth[2].mac txPk:count 1134
scalar OSPF_Suboptimal.R3.eth[2].mac txPk:sum(packetBytes) 114138
scalar OSPF_Suboptimal.R3.eth[2].mac packetReceivedFromUpper:count 1134
scalar OSPF_Suboptimal.R3.eth[2].mac packetReceivedFromUpper:sum(packetBytes) 113976
scalar OSPF_Suboptimal.R3.eth[2].mac passedUpPk:count 201
scalar OSPF_Suboptimal.R3.eth[2].mac passedUpPk:sum(packetBytes) 19000
scalar OSPF_Suboptimal.R3.eth[2].mac packetDropIncorrectlyReceived:count 0
scalar OSPF_Suboptimal.R3.eth[2].mac packetDropIncorrectlyReceived:sum(packetBytes) 0
scalar OSPF_Suboptimal.R3.eth[2].mac packetDropInterfaceDown:count 0
scalar OSPF_Suboptimal.R3.eth[2].mac packetDropInterfaceDown:sum(packetBytes) 0
scalar OSPF_Suboptimal.R3.eth[2].mac packetDropNotAddressedToUs:count 0
scalar OSPF_Suboptimal.R3.eth[2].mac packetDropNotAddressedToUs:sum(packetBytes) 0
scalar OSPF_Suboptimal.R3.eth[2] packetDropInterfaceDown:count 0
scalar OSPF_Suboptimal.R3.eth[2] packetDropInterfaceDown:sum(packetBytes) 0
scalar OSPF_Suboptimal.R3.eth[2] packetDropNoCarrier:count 0
scalar OSPF_Suboptimal.R3.eth[2] packetDropNoCarrier:sum(packetBytes) 0
scalar OSPF_Suboptimal.R3.eth[3].queue queueLength:last 0
scalar OSPF_Suboptimal.R3.eth[3].queue queueLength:max 0
scalar OSPF_Suboptimal.R3.eth[3].queue queueLength:timeavg 0
scalar OSPF_Suboptimal.R3.eth[3].queue queueBitLength:last 0
scalar OSPF_Suboptimal.R3.eth[3].queue queueBitLength:max 0
scalar OSPF_Suboptimal.R3.eth[3].queue queueBitLength:timeavg 0
scalar OSPF_Suboptimal.R3.eth[3].queue outgoingPackets:count 0
scalar OSPF_Suboptimal.R3.eth[3].queue outgoingPacketLengths:sum 0
scalar OSPF_Suboptimal.R3.eth[3].queue incomingPackets:count 0
scalar OSPF_Suboptimal.R3.eth[3].queue incomingPacketLengths:sum 0
scalar OSPF_Suboptimal.R3.eth[3].queue droppedPacketsQueueOverflow:count 0
scalar OSPF_Suboptimal.R3.eth[3].queue droppedPacketLengthsQueueOverflow:sum 0
scalar OSPF_Suboptimal.R3.eth[3].mac "simulated time" 1000
scalar OSPF_Suboptimal.R3.eth[3].mac full-duplex 1
scalar OSPF_Suboptimal.R3.eth[3].mac "frames/sec sent" 0
scalar OSPF_Suboptimal.R3.eth[3].mac "frames/sec rcvd" 0
scalar OSPF_Suboptimal.R3.eth[3].mac "bits/sec sent" 0
scalar OSPF_Suboptimal.R3.eth[3].mac "bits/sec rcvd" 0
scalar OSPF_Suboptimal.R3.eth[3].mac "rx channel idle (%)" 100
scalar OSPF_Suboptimal.R3.eth[3].mac "rx channel utilization (%)" 0
scalar OSPF_Suboptimal.R3.eth[3].mac rxPausePkUnits:count 0
scalar OSPF_Suboptimal.R3.eth[3].mac rxPausePkUnits:sum 0
scalar OSPF_Suboptimal.R3.eth[3].mac txPausePkUnits:count 0
scalar OSPF_Suboptimal.R3.eth[3].mac txPausePkUnits:sum 0
scalar OSPF_Suboptimal.R3.eth[3].mac rxPkOk:count 0
scalar OSPF_Suboptimal.R3.eth[3].mac rxPkOk:sum(packetBytes) 0
scalar OSPF_Suboptimal.R3.eth[3].mac txPk:count 0
scalar OSPF_Suboptimal.R3.eth[3].mac txPk:sum(packetBytes) 0
scalar OSPF_Suboptimal.R3.eth[3].mac packetReceivedFromUpper:count 0
scalar OSPF_Suboptimal.R3.eth[3].mac packetReceivedFromUpper:sum(packetBytes) 0
scalar OSPF_Suboptimal.R3.eth[3].mac passedUpPk:count 0
scalar OSPF_Suboptimal.R3.eth[3].mac passedUpPk:sum(packetBytes) 0
scalar OSPF_Suboptimal.R3.eth[3].mac packetDropIncorrectlyReceived:count 0
scalar OSPF_Suboptimal.R3.eth[3].mac packetDropIncorrectlyReceived:sum(packetBytes) 0
scalar OSPF_Suboptimal.R3.eth[3].mac packetDropInterfaceDown:count 0
scalar OSPF_Suboptimal.R3.eth[3].mac packetDropInterfaceDown:sum(packetBytes) 0
scalar OSPF_Suboptimal.R3.eth[3].mac packetDropNotAddressedToUs:count 0
scalar OSPF_Suboptimal.R3.eth[3].mac packetDropNotAddressedToUs:sum(packetBytes) 0
scalar OSPF_Suboptimal.R3.eth[3] packetDropInterfaceDown:count 0
scalar OSPF_Suboptimal.R3.eth[3] packetDropInterfaceDown:sum(packetBytes) 0
scalar OSPF_Suboptimal.R3.eth[3] packetDropNoCarrier:count 0
scalar OSPF_Suboptimal.R3.eth[3] packetDropNoCarrier:sum(packetBytes) 0
scalar OSPF_Suboptimal.R3.ipv4.ip packetDropAddressResolutionFailed:count 0
scalar OSPF_Suboptimal.R3.ipv4.ip packetDropAddressResolutionFailed:sum(packetBytes) 0
scalar OSPF_Suboptimal.R3.ipv4.ip packetDropHopLimitReached:count 0
scalar OSPF_Suboptimal.R3.ipv4.ip packetDropHopLimitReached:sum(packetBytes) 0
scalar OSPF_Suboptimal.R3.ipv4.ip packetDropForwardingDisabled:count 0
scalar OSPF_Suboptimal.R3.ipv4.ip packetDropForwardingDisabled:sum(packetBytes) 0
scalar OSPF_Suboptimal.R3.ipv4.ip packetDropLifetimeExpired:count 0
scalar OSPF_Suboptimal.R3.ipv4.ip packetDropLifetimeExpired:sum(packetBytes) 0
scalar OSPF_Suboptimal.R3.ipv4.ip packetDropNoInterfaceFound:count 0
scalar OSPF_Suboptimal.R3.ipv4.ip packetDropNoInterfaceFound:sum(packetBytes) 0
scalar OSPF_Suboptimal.R3.ipv4.ip packetDropNoRouteFound:count 0
scalar OSPF_Suboptimal.R3.ipv4.ip packetDropNoRouteFound:sum(packetBytes) 0
scalar OSPF_Suboptimal.R3.ipv4.ip packetDropUndefined:count 0
scalar OSPF_Suboptimal.R3.ipv4.ip packetDropUndefined:sum(packetBytes) 0
scalar OSPF_Suboptimal.R3.ipv4.arp arpResolutionFailed:count 0
scalar OSPF_Suboptimal.R3.ipv4.arp arpResolutionCompleted:count 19
scalar OSPF_Suboptimal.R3.ipv4.arp arpResolutionInitiated:count 10
scalar OSPF_Suboptimal.R3.ipv4.arp arpReplySent:count 9
scalar OSPF_Suboptimal.R3.ipv4.arp arpReplySent:sum(packetBytes) 252
scalar OSPF_Suboptimal.R3.ipv4.arp arpRequestSent:count 10
scalar OSPF_Suboptimal.R3.ipv4.arp arpRequestSent:sum(packetBytes) 280
scalar OSPF_Suboptimal.R4.ethernet pauseSent:count 0
scalar OSPF_Suboptimal.R4.ethernet pauseSent:sum 0
scalar OSPF_Suboptimal.R4.ethernet decapPk:count 1528
scalar OSPF_Suboptimal.R4.ethernet decapPk:sum(packetBytes) 118600
scalar OSPF_Suboptimal.R4.ethernet encapPk:count 1315
scalar OSPF_Suboptimal.R4.ethernet encapPk:sum(packetBytes) 107528
scalar OSPF_Suboptimal.R4.lo[0].lo rcvdPkFromHl:count 0
scalar OSPF_Suboptimal.R4.lo[0].lo rcvdPkFromHl:sum(packetBytes) 0
scalar OSPF_Suboptimal.R4.lo[0].lo passedUpPk:count 0
scalar OSPF_Suboptimal.R4.lo[0].lo passedUpPk:sum(packetBytes) 0
scalar OSPF_Suboptimal.R4.lo[0] packetDropInterfaceDown:count 0
scalar OSPF_Suboptimal.R4.lo[0] packetDropInterfaceDown:sum(packetBytes) 0
scalar OSPF_Suboptimal.R4.lo[0] packetDropNoCarrier:count 0
scalar OSPF_Suboptimal.R4.lo[0] packetDropNoCarrier:sum(packetBytes) 0
scalar OSPF_Suboptimal.R4.eth[0].queue queueLength:last 0
scalar OSPF_Suboptimal.R4.eth[0].queue queueLength:max 5
scalar OSPF_Suboptimal.R4.eth[0].queue queueLength:timeavg 4.6661999999999993e-07
scalar OSPF_Suboptimal.R4.eth[0].queue queueBitLength:last 0
scalar OSPF_Suboptimal.R4.eth[0].queue queueBitLength:max 4464
scalar OSPF_Suboptimal.R4.eth[0].queue queueBitLength:timeavg 0.00039685951999999999
scalar OSPF_Suboptimal.R4.eth[0].queue outgoingPackets:count 189
scalar OSPF_Suboptimal.R4.eth[0].queue outgoingPacketLengths:sum 141808
scalar OSPF_Suboptimal.R4.eth[0].queue incomingPackets:count 189
scalar OSPF_Suboptimal.R4.eth[0].queue incomingPacketLengths:sum 141808
scalar OSPF_Suboptimal.R4.eth[0].queue droppedPacketsQueueOverflow:count 0
scalar OSPF_Suboptimal.R4.eth[0].queue droppedPacketLengthsQueueOverflow:sum 0
scalar OSPF_Suboptimal.R4.eth[0].mac "simulated time" 1000
scalar OSPF_Suboptimal.R4.eth[0].mac full-duplex 1
scalar OSPF_Suboptimal.R4.eth[0].mac "frames/sec sent" 0.189
scalar OSPF_Suboptimal.R4.eth[0].mac "frames/sec rcvd" 1.335
scalar OSPF_Suboptimal.R4.eth[0].mac "bits/sec sent" 143.10400000000001
scalar OSPF_Suboptimal.R4.eth[0].mac "bits/sec rcvd" 1024
scalar OSPF_Suboptimal.R4.eth[0].mac "rx channel idle (%)" 99.998890559999992
scalar OSPF_Suboptimal.R4.eth[0].mac "rx channel utilization (%)" 0.0011094399999999999
scalar OSPF_Suboptimal.R4.eth[0].mac rxPausePkUnits:count 0
scalar OSPF_Suboptimal.R4.eth[0].mac rxPausePkUnits:sum 0
scalar OSPF_Suboptimal.R4.eth[0].mac txPausePkUnits:count 0
scalar OSPF_Suboptimal.R4.eth[0].mac txPausePkUnits:sum 0
scalar OSPF_Suboptimal.R4.eth[0].mac rxPkOk:count 1335
scalar OSPF_Suboptimal.R4.eth[0].mac rxPkOk:sum(packetBytes) 128000
scalar OSPF_Suboptimal.R4.eth[0].mac txPk:count 189
scalar OSPF_Suboptimal.R4.eth[0].mac txPk:sum(packetBytes) 17888
scalar OSPF_Suboptimal.R4.eth[0].mac packetReceivedFromUpper:count 189
scalar OSPF_Suboptimal.R4.eth[0].mac packetReceivedFromUpper:sum(packetBytes) 17726
scalar OSPF_Suboptimal.R4.eth[0].mac passedUpPk:count 1335
scalar OSPF_Suboptimal.R4.eth[0].mac passedUpPk:sum(packetBytes) 128000
scalar OSPF_Suboptimal.R4.eth[0].mac packetDropIncorrectlyReceived:count 0
scalar OSPF_Suboptimal.R4.eth[0].mac packetDropIncorrectlyReceived:sum(packetBytes) 0
scalar OSPF_Suboptimal.R4.eth[0].mac packetDropInterfaceDown:count 0
scalar OSPF_Suboptimal.R4.eth[0].mac packetDropInterfaceDown:sum(packetBytes) 0
scalar OSPF_Suboptimal.R4.eth[0].mac packetDropNotAddressedToUs:count 0
scalar OSPF_Suboptimal.R4.eth[0].mac packetDropNotAddressedToUs:sum(packetBytes) 0
scalar OSPF_Suboptimal.R4.eth[0] packetDropInterfaceDown:count 0
scalar OSPF_Suboptimal.R4.eth[0] packetDropInterfaceDown:sum(packetBytes) 0
scalar OSPF_Suboptimal.R4.eth[0] packetDropNoCarrier:count 0
scalar OSPF_Suboptimal.R4.eth[0] packetDropNoCarrier:sum(packetBytes) 0
scalar OSPF_Suboptimal.R4.eth[1].queue queueLength:last 0
scalar OSPF_Suboptimal.R4.eth[1].queue queueLength:max 7
scalar OSPF_Suboptimal.R4.eth[1].queue queueLength:timeavg 7.2092000000000008e-07
scalar OSPF_Suboptimal.R4.eth[1].queue queueBitLength:last 0
scalar OSPF_Suboptimal.R4.eth[1].queue queueBitLength:max 5472
scalar OSPF_Suboptimal.R4.eth[1].queue queueBitLength:timeavg 0.0005781868799999998
scalar OSPF_Suboptimal.R4.eth[1].queue outgoingPackets:count 1126
scalar OSPF_Suboptimal.R4.eth[1].queue outgoingPacketLengths:sum 907776
scalar OSPF_Suboptimal.R4.eth[1].queue incomingPackets:count 1126
scalar OSPF_Suboptimal.R4.eth[1].queue incomingPacketLengths:sum 907776
scalar OSPF_Suboptimal.R4.eth[1].queue droppedPacketsQueueOverflow:count 0
scalar OSPF_Suboptimal.R4.eth[1].queue droppedPacketLengthsQueueOverflow:sum 0
scalar OSPF_Suboptimal.R4.eth[1].mac "simulated time" 1000
scalar OSPF_Suboptimal.R4.eth[1].mac full-duplex 1
scalar OSPF_Suboptimal.R4.eth[1].mac "frames/sec sent" 1.1259999999999999
scalar OSPF_Suboptimal.R4.eth[1].mac "frames/sec rcvd" 0.193
scalar OSPF_Suboptimal.R4.eth[1].mac "bits/sec sent" 909.072
scalar OSPF_Suboptimal.R4.eth[1].mac "bits/sec rcvd" 144.83199999999999
scalar OSPF_Suboptimal.R4.eth[1].mac "rx channel idle (%)" 99.999842815999997
scalar OSPF_Suboptimal.R4.eth[1].mac "rx channel utilization (%)" 0.00015718399999999999
scalar OSPF_Suboptimal.R4.eth[1].mac rxPausePkUnits:count 0
scalar OSPF_Suboptimal.R4.eth[1].mac rxPausePkUnits:sum 0
scalar OSPF_Suboptimal.R4.eth[1].mac txPausePkUnits:count 0
scalar OSPF_Suboptimal.R4.eth[1].mac txPausePkUnits:sum 0
scalar OSPF_Suboptimal.R4.eth[1].mac rxPkOk:count 193
scalar OSPF_Suboptimal.R4.eth[1].mac rxPkOk:sum(packetBytes) 18104
scalar OSPF_Suboptimal.R4.eth[1].mac txPk:count 1126
scalar OSPF_Suboptimal.R4.eth[1].mac txPk:sum(packetBytes) 113634
scalar OSPF_Suboptimal.R4.eth[1].mac packetReceivedFromUpper:count 1126
scalar OSPF_Suboptimal.R4.eth[1].mac packetReceivedFromUpper:sum(packetBytes) 113472
scalar OSPF_Suboptimal.R4.eth[1].mac passedUpPk:count 193
scalar OSPF_Suboptimal.R4.eth[1].mac passedUpPk:sum(packetBytes) 18104
scalar OSPF_Suboptimal.R4.eth[1].mac packetDropIncorrectlyReceived:count 0
scalar OSPF_Suboptimal.R4.eth[1].mac packetDropIncorrectlyReceived:sum(packetBytes) 0
scalar OSPF_Suboptimal.R4.eth[1].mac packetDropInterfaceDown:count 0
scalar OSPF_Suboptimal.R4.eth[1].mac packetDropInterfaceDown:sum(packetBytes) 0
scalar OSPF_Suboptimal.R4.eth[1].mac packetDropNotAddressedToUs:count 0
scalar OSPF_Suboptimal.R4.eth[1].mac packetDropNotAddressedToUs:sum(packetBytes) 0
scalar OSPF_Suboptimal.R4.eth[1] packetDropInterfaceDown:count 0
scalar OSPF_Suboptimal.R4.eth[1] packetDropInterfaceDown:sum(packetBytes) 0
scalar OSPF_Suboptimal.R4.eth[1] packetDropNoCarrier:count 0
scalar OSPF_Suboptimal.R4.eth[1] packetDropNoCarrier:sum(packetBytes) 0
scalar OSPF_Suboptimal.R4.eth[2].queue queueLength:last 0
scalar OSPF_Suboptimal.R4.eth[2].queue queueLength:max 0
scalar OSPF_Suboptimal.R4.eth[2].queue queueLength:timeavg 0
scalar OSPF_Suboptimal.R4.eth[2].queue queueBitLength:last 0
scalar OSPF_Suboptimal.R4.eth[2].queue queueBitLength:max 0
scalar OSPF_Suboptimal.R4.eth[2].queue queueBitLength:timeavg 0
scalar OSPF_Suboptimal.R4.eth[2].queue outgoingPackets:count 0
scalar OSPF_Suboptimal.R4.eth[2].queue outgoingPacketLengths:sum 0
scalar OSPF_Suboptimal.R4.eth[2].queue incomingPackets:count 0
scalar OSPF_Suboptimal.R4.eth[2].queue incomingPacketLengths:sum 0
scalar OSPF_Suboptimal.R4.eth[2].queue droppedPacketsQueueOverflow:count 0
scalar OSPF_Suboptimal.R4.eth[2].queue droppedPacketLengthsQueueOverflow:sum 0
scalar OSPF_Suboptimal.R4.eth[2].mac "simulated time" 1000
scalar OSPF_Suboptimal.R4.eth[2].mac full-duplex 1
scalar OSPF_Suboptimal.R4.eth[2].mac "frames/sec sent" 0
scalar OSPF_Suboptimal.R4.eth[2].mac "frames/sec rcvd" 0
scalar OSPF_Suboptimal.R4.eth[2].mac "bits/sec sent" 0
scalar OSPF_Suboptimal.R4.eth[2].mac "bits/sec rcvd" 0
scalar OSPF_Suboptimal.R4.eth[2].mac "rx channel idle (%)" 100
scalar OSPF_Suboptimal.R4.eth[2].mac "rx channel utilization (%)" 0
scalar OSPF_Suboptimal.R4.eth[2].mac rxPausePkUnits:count 0
scalar OSPF_Suboptimal.R4.eth[2].mac rxPausePkUnits:sum 0
scalar OSPF_Suboptimal.R4.eth[2].mac txPausePkUnits:count 0
scalar OSPF_Suboptimal.R4.eth[2].mac txPausePkUnits:sum 0
scalar OSPF_Suboptimal.R4.eth[2].mac rxPkOk:count 0
scalar OSPF_Suboptimal.R4.eth[2].mac rxPkOk:sum(packetBytes) 0
scalar OSPF_Suboptimal.R4.eth[2].mac txPk:count 0
scalar OSPF_Suboptimal.R4.eth[2].mac txPk:sum(packetBytes) 0
scalar OSPF_Suboptimal.R4.eth[2].mac packetReceivedFromUpper:count 0
scalar OSPF_Suboptimal.R4.eth[2].mac packetReceivedFromUpper:sum(packetBytes) 0
scalar OSPF_Suboptimal.R4.eth[2].mac passedUpPk:count 0
scalar OSPF_Suboptimal.R4.eth[2].mac passedUpPk:sum(packetBytes) 0
scalar OSPF_Suboptimal.R4.eth[2].mac packetDropIncorrectlyReceived:count 0
scalar OSPF_Suboptimal.R4.eth[2].mac packetDropIncorrectlyReceived:sum(packetBytes) 0
scalar OSPF_Suboptimal.R4.eth[2].mac packetDropInterfaceDown:count 0
scalar OSPF_Suboptimal.R4.eth[2].mac packetDropInterfaceDown:sum(packetBytes) 0
scalar OSPF_Suboptimal.R4.eth[2].mac packetDropNotAddressedToUs:count 0
scalar OSPF_Suboptimal.R4.eth[2].mac packetDropNotAddressedToUs:sum(packetBytes) 0
scalar OSPF_Suboptimal.R4.eth[2] packetDropInterfaceDown:count 0
scalar OSPF_Suboptimal.R4.eth[2] packetDropInterfaceDown:sum(packetBytes) 0
scalar OSPF_Suboptimal.R4.eth[2] packetDropNoCarrier:count 0
scalar OSPF_Suboptimal.R4.eth[2] packetDropNoCarrier:sum(packetBytes) 0
scalar OSPF_Suboptimal.R4.ipv4.ip packetDropAddressResolutionFailed:count 0
scalar OSPF_Suboptimal.R4.ipv4.ip packetDropAddressResolutionFailed:sum(packetBytes) 0
scalar OSPF_Suboptimal.R4.ipv4.ip packetDropHopLimitReached:count 0
scalar OSPF_Suboptimal.R4.ipv4.ip packetDropHopLimitReached:sum(packetBytes) 0
scalar OSPF_Suboptimal.R4.ipv4.ip packetDropForwardingDisabled:count 0
scalar OSPF_Suboptimal.R4.ipv4.ip packetDropForwardingDisabled:sum(packetBytes) 0
scalar OSPF_Suboptimal.R4.ipv4.ip packetDropLifetimeExpired:count 0
scalar OSPF_Suboptimal.R4.ipv4.ip packetDropLifetimeExpired:sum(packetBytes) 0
scalar OSPF_Suboptimal.R4.ipv4.ip packetDropNoInterfaceFound:count 0
scalar OSPF_Suboptimal.R4.ipv4.ip packetDropNoInterfaceFound:sum(packetBytes) 0
scalar OSPF_Suboptimal.R4.ipv4.ip packetDropNoRouteFound:count 0
scalar OSPF_Suboptimal.R4.ipv4.ip packetDropNoRouteFound:sum(packetBytes) 0
scalar OSPF_Suboptimal.R4.ipv4.ip packetDropUndefined:count 0
scalar OSPF_Suboptimal.R4.ipv4.ip packetDropUndefined:sum(packetBytes) 0
scalar OSPF_Suboptimal.R4.ipv4.arp arpResolutionFailed:count 0
scalar OSPF_Suboptimal.R4.ipv4.arp arpResolutionCompleted:count 18
scalar OSPF_Suboptimal.R4.ipv4.arp arpResolutionInitiated:count 9
scalar OSPF_Suboptimal.R4.ipv4.arp arpReplySent:count 9
scalar OSPF_Suboptimal.R4.ipv4.arp arpReplySent:sum(packetBytes) 252
scalar OSPF_Suboptimal.R4.ipv4.arp arpRequestSent:count 9
scalar OSPF_Suboptimal.R4.ipv4.arp arpRequestSent:sum(packetBytes) 252
scalar OSPF_Suboptimal.R5.ethernet pauseSent:count 0
scalar OSPF_Suboptimal.R5.ethernet pauseSent:sum 0
scalar OSPF_Suboptimal.R5.ethernet decapPk:count 1315
scalar OSPF_Suboptimal.R5.ethernet decapPk:sum(packetBytes) 107816
scalar OSPF_Suboptimal.R5.ethernet encapPk:count 1330
scalar OSPF_Suboptimal.R5.ethernet encapPk:sum(packetBytes) 108496
scalar OSPF_Suboptimal.R5.lo[0].lo rcvdPkFromHl:count 0
scalar OSPF_Suboptimal.R5.lo[0].lo rcvdPkFromHl:sum(packetBytes) 0
scalar OSPF_Suboptimal.R5.lo[0].lo passedUpPk:count 0
scalar OSPF_Suboptimal.R5.lo[0].lo passedUpPk:sum(packetBytes) 0
scalar OSPF_Suboptimal.R5.lo[0] packetDropInterfaceDown:count 0
scalar OSPF_Suboptimal.R5.lo[0] packetDropInterfaceDown:sum(packetBytes) 0
scalar OSPF_Suboptimal.R5.lo[0] packetDropNoCarrier:count 0
scalar OSPF_Suboptimal.R5.lo[0] packetDropNoCarrier:sum(packetBytes) 0
scalar OSPF_Suboptimal.R5.eth[0].queue queueLength:last 0
scalar OSPF_Suboptimal.R5.eth[0].queue queueLength:max 8
scalar OSPF_Suboptimal.R5.eth[0].queue queueLength:timeavg 7.4134000000000026e-07
scalar OSPF_Suboptimal.R5.eth[0].queue queueBitLength:last 0
scalar OSPF_Suboptimal.R5.eth[0].queue queueBitLength:max 5248
scalar OSPF_Suboptimal.R5.eth[0].queue queueBitLength:timeavg 0.00057086335999999998
scalar OSPF_Suboptimal.R5.eth[0].queue outgoingPackets:count 193
scalar OSPF_Suboptimal.R5.eth[0].queue outgoingPacketLengths:sum 143536
scalar OSPF_Suboptimal.R5.eth[0].queue incomingPackets:count 193
scalar OSPF_Suboptimal.R5.eth[0].queue incomingPacketLengths:sum 143536
scalar OSPF_Suboptimal.R5.eth[0].queue droppedPacketsQueueOverflow:count 0
scalar OSPF_Suboptimal.R5.eth[0].queue droppedPacketLengthsQueueOverflow:sum 0
scalar OSPF_Suboptimal.R5.eth[0].mac "simulated time" 1000
scalar OSPF_Suboptimal.R5.eth[0].mac full-duplex 1
scalar OSPF_Suboptimal.R5.eth[0].mac "frames/sec sent" 0.193
scalar OSPF_Suboptimal.R5.eth[0].mac "frames/sec rcvd" 1.1259999999999999
scalar OSPF_Suboptimal.R5.eth[0].mac "bits/sec sent" 144.83199999999999
scalar OSPF_Suboptimal.R5.eth[0].mac "bits/sec rcvd" 909.072
scalar OSPF_Suboptimal.R5.eth[0].mac "rx channel idle (%)" 99.999018863999993
scalar OSPF_Suboptimal.R5.eth[0].mac "rx channel utilization (%)" 0.00098113599999999986
scalar OSPF_Suboptimal.R5.eth[0].mac rxPausePkUnits:count 0
scalar OSPF_Suboptimal.R5.eth[0].mac rxPausePkUnits:sum 0
scalar OSPF_Suboptimal.R5.eth[0].mac txPausePkUnits:count 0
scalar OSPF_Suboptimal.R5.eth[0].mac txPausePkUnits:sum 0
scalar OSPF_Suboptimal.R5.eth[0].mac rxPkOk:count 1126
scalar OSPF_Suboptimal.R5.eth[0].mac rxPkOk:sum(packetBytes) 113634
scalar OSPF_Suboptimal.R5.eth[0].mac txPk:count 193
scalar OSPF_Suboptimal.R5.eth[0].mac txPk:sum(packetBytes) 18104
scalar OSPF_Suboptimal.R5.eth[0].mac packetReceivedFromUpper:count 193
scalar OSPF_Suboptimal.R5.eth[0].mac packetReceivedFromUpper:sum(packetBytes) 17942
scalar OSPF_Suboptimal.R5.eth[0].mac passedUpPk:count 1126
scalar OSPF_Suboptimal.R5.eth[0].mac passedUpPk:sum(packetBytes) 113634
scalar OSPF_Suboptimal.R5.eth[0].mac packetDropIncorrectlyReceived:count 0
scalar OSPF_Suboptimal.R5.eth[0].mac packetDropIncorrectlyReceived:sum(packetBytes) 0
scalar OSPF_Suboptimal.R5.eth[0].mac packetDropInterfaceDown:count 0
scalar OSPF_Suboptimal.R5.eth[0].mac packetDropInterfaceDown:sum(packetBytes) 0
scalar OSPF_Suboptimal.R5.eth[0].mac packetDropNotAddressedToUs:count 0
scalar OSPF_Suboptimal.R5.eth[0].mac packetDropNotAddressedToUs:sum(packetBytes) 0
scalar OSPF_Suboptimal.R5.eth[0] packetDropInterfaceDown:count 0
scalar OSPF_Suboptimal.R5.eth[0] packetDropInterfaceDown:sum(packetBytes) 0
scalar OSPF_Suboptimal.R5.eth[0] packetDropNoCarrier:count 0
scalar OSPF_Suboptimal.R5.eth[0] packetDropNoCarrier:sum(packetBytes) 0
scalar OSPF_Suboptimal.R5.eth[1].queue queueLength:last 0
scalar OSPF_Suboptimal.R5.eth[1].queue queueLength:max 6
scalar OSPF_Suboptimal.R5.eth[1].queue queueLength:timeavg 8.6562999999999979e-07
scalar OSPF_Suboptimal.R5.eth[1].queue queueBitLength:last 0
scalar OSPF_Suboptimal.R5.eth[1].queue queueBitLength:max 5248
scalar OSPF_Suboptimal.R5.eth[1].queue queueBitLength:timeavg 0.00068266255999999993
scalar OSPF_Suboptimal.R5.eth[1].queue outgoingPackets:count 1137
scalar OSPF_Suboptimal.R5.eth[1].queue outgoingPacketLengths:sum 915952
scalar OSPF_Suboptimal.R5.eth[1].queue incomingPackets:count 1137
scalar OSPF_Suboptimal.R5.eth[1].queue incomingPacketLengths:sum 915952
scalar OSPF_Suboptimal.R5.eth[1].queue droppedPacketsQueueOverflow:count 0
scalar OSPF_Suboptimal.R5.eth[1].queue droppedPacketLengthsQueueOverflow:sum 0
scalar OSPF_Suboptimal.R5.eth[1].mac "simulated time" 1000
scalar OSPF_Suboptimal.R5.eth[1].mac full-duplex 1
scalar OSPF_Suboptimal.R5.eth[1].mac "frames/sec sent" 1.137
scalar OSPF_Suboptimal.R5.eth[1].mac "frames/sec rcvd" 0.189
scalar OSPF_Suboptimal.R5.eth[1].mac "bits/sec sent" 917.24800000000005
scalar OSPF_Suboptimal.R5.eth[1].mac "bits/sec rcvd" 142.816
scalar OSPF_Suboptimal.R5.eth[1].mac "rx channel idle (%)" 99.999845088000001
scalar OSPF_Suboptimal.R5.eth[1].mac "rx channel utilization (%)" 0.000154912
scalar OSPF_Suboptimal.R5.eth[1].mac rxPausePkUnits:count 0
scalar OSPF_Suboptimal.R5.eth[1].mac rxPausePkUnits:sum 0
scalar OSPF_Suboptimal.R5.eth[1].mac txPausePkUnits:count 0
scalar OSPF_Suboptimal.R5.eth[1].mac txPausePkUnits:sum 0
scalar OSPF_Suboptimal.R5.eth[1].mac rxPkOk:count 189
scalar OSPF_Suboptimal.R5.eth[1].mac rxPkOk:sum(packetBytes) 17852
scalar OSPF_Suboptimal.R5.eth[1].mac txPk:count 1137
scalar OSPF_Suboptimal.R5.eth[1].mac txPk:sum(packetBytes) 114656
scalar OSPF_Suboptimal.R5.eth[1].mac packetReceivedFromUpper:count 1137
scalar OSPF_Suboptimal.R5.eth[1].mac packetReceivedFromUpper:sum(packetBytes) 114494
scalar OSPF_Suboptimal.R5.eth[1].mac passedUpPk:count 189
scalar OSPF_Suboptimal.R5.eth[1].mac passedUpPk:sum(packetBytes) 17852
scalar OSPF_Suboptimal.R5.eth[1].mac packetDropIncorrectlyReceived:count 0
scalar OSPF_Suboptimal.R5.eth[1].mac packetDropIncorrectlyReceived:sum(packetBytes) 0
scalar OSPF_Suboptimal.R5.eth[1].mac packetDropInterfaceDown:count 0
scalar OSPF_Suboptimal.R5.eth[1].mac packetDropInterfaceDown:sum(packetBytes) 0
scalar OSPF_Suboptimal.R5.eth[1].mac packetDropNotAddressedToUs:count 0
scalar OSPF_Suboptimal.R5.eth[1].mac packetDropNotAddressedToUs:sum(packetBytes) 0
scalar OSPF_Suboptimal.R5.eth[1] packetDropInterfaceDown:count 0
scalar OSPF_Suboptimal.R5.eth[1] packetDropInterfaceDown:sum(packetBytes) 0
scalar OSPF_Suboptimal.R5.eth[1] packetDropNoCarrier:count 0
scalar OSPF_Suboptimal.R5.eth[1] packetDropNoCarrier:sum(packetBytes) 0
scalar OSPF_Suboptimal.R5.eth[2].queue queueLength:last 0
scalar OSPF_Suboptimal.R5.eth[2].queue queueLength:max 0
scalar OSPF_Suboptimal.R5.eth[2].queue queueLength:timeavg 0
scalar OSPF_Suboptimal.R5.eth[2].queue queueBitLength:last 0
scalar OSPF_Suboptimal.R5.eth[2].queue queueBitLength:max 0
scalar OSPF_Suboptimal.R5.eth[2].queue queueBitLength:timeavg 0
scalar OSPF_Suboptimal.R5.eth[2].queue outgoingPackets:count 0
scalar OSPF_Suboptimal.R5.eth[2].queue outgoingPacketLengths:sum 0
scalar OSPF_Suboptimal.R5.eth[2].queue incomingPackets:count 0
scalar OSPF_Suboptimal.R5.eth[2].queue incomingPacketLengths:sum 0
scalar OSPF_Suboptimal.R5.eth[2].queue droppedPacketsQueueOverflow:count 0
scalar OSPF_Suboptimal.R5.eth[2].queue droppedPacketLengthsQueueOverflow:sum 0
scalar OSPF_Suboptimal.R5.eth[2].mac "simulated time" 1000
scalar OSPF_Suboptimal.R5.eth[2].mac full-duplex 1
scalar OSPF_Suboptimal.R5.eth[2].mac "frames/sec sent" 0
scalar OSPF_Suboptimal.R5.eth[2].mac "frames/sec rcvd" 0
scalar OSPF_Suboptimal.R5.eth[2].mac "bits/sec sent" 0
scalar OSPF_Suboptimal.R5.eth[2].mac "bits/sec rcvd" 0
scalar OSPF_Suboptimal.R5.eth[2].mac "rx channel idle (%)" 100
scalar OSPF_Suboptimal.R5.eth[2].mac "rx channel utilization (%)" 0
scalar OSPF_Suboptimal.R5.eth[2].mac rxPausePkUnits:count 0
scalar OSPF_Suboptimal.R5.eth[2].mac rxPausePkUnits:sum 0
scalar OSPF_Suboptimal.R5.eth[2].mac txPausePkUnits:count 0
scalar OSPF_Suboptimal.R5.eth[2].mac txPausePkUnits:sum 0
scalar OSPF_Suboptimal.R5.eth[2].mac rxPkOk:count 0
scalar OSPF_Suboptimal.R5.eth[2].mac rxPkOk:sum(packetBytes) 0
scalar OSPF_Suboptimal.R5.eth[2].mac txPk:count 0
scalar OSPF_Suboptimal.R5.eth[2].mac txPk:sum(packetBytes) 0
scalar OSPF_Suboptimal.R5.eth[2].mac packetReceivedFromUpper:count 0
scalar OSPF_Suboptimal.R5.eth[2].mac packetReceivedFromUpper:sum(packetBytes) 0
scalar OSPF_Suboptimal.R5.eth[2].mac passedUpPk:count 0
scalar OSPF_Suboptimal.R5.eth[2].mac passedUpPk:sum(packetBytes) 0
scalar OSPF_Suboptimal.R5.eth[2].mac packetDropIncorrectlyReceived:count 0
scalar OSPF_Suboptimal.R5.eth[2].mac packetDropIncorrectlyReceived:sum(packetBytes) 0
scalar OSPF_Suboptimal.R5.eth[2].mac packetDropInterfaceDown:count 0
scalar OSPF_Suboptimal.R5.eth[2].mac packetDropInterfaceDown:sum(packetBytes) 0
scalar OSPF_Suboptimal.R5.eth[2].mac packetDropNotAddressedToUs:count 0
scalar OSPF_Suboptimal.R5.eth[2].mac packetDropNotAddressedToUs:sum(packetBytes) 0
scalar OSPF_Suboptimal.R5.eth[2] packetDropInterfaceDown:count 0
scalar OSPF_Suboptimal.R5.eth[2] packetDropInterfaceDown:sum(packetBytes) 0
scalar OSPF_Suboptimal.R5.eth[2] packetDropNoCarrier:count 0
scalar OSPF_Suboptimal.R5.eth[2] packetDropNoCarrier:sum(packetBytes) 0
scalar OSPF_Suboptimal.R5.ipv4.ip packetDropAddressResolutionFailed:count 0
scalar OSPF_Suboptimal.R5.ipv4.ip packetDropAddressResolutionFailed:sum(packetBytes) 0
scalar OSPF_Suboptimal.R5.ipv4.ip packetDropHopLimitReached:count 0
scalar OSPF_Suboptimal.R5.ipv4.ip packetDropHopLimitReached:sum(packetBytes) 0
scalar OSPF_Suboptimal.R5.ipv4.ip packetDropForwardingDisabled:count 0
scalar OSPF_Suboptimal.R5.ipv4.ip packetDropForwardingDisabled:sum(packetBytes) 0
scalar OSPF_Suboptimal.R5.ipv4.ip packetDropLifetimeExpired:count 0
scalar OSPF_Suboptimal.R5.ipv4.ip packetDropLifetimeExpired:sum(packetBytes) 0
scalar OSPF_Suboptimal.R5.ipv4.ip packetDropNoInterfaceFound:count 0
scalar OSPF_Suboptimal.R5.ipv4.ip packetDropNoInterfaceFound:sum(packetBytes) 0
scalar OSPF_Suboptimal.R5.ipv4.ip packetDropNoRouteFound:count 0
scalar OSPF_Suboptimal.R5.ipv4.ip packetDropNoRouteFound:sum(packetBytes) 0
scalar OSPF_Suboptimal.R5.ipv4.ip packetDropUndefined:count 0
scalar OSPF_Suboptimal.R5.ipv4.ip packetDropUndefined:sum(packetBytes) 0
scalar OSPF_Suboptimal.R5.ipv4.arp arpResolutionFailed:count 0
scalar OSPF_Suboptimal.R5.ipv4.arp arpResolutionCompleted:count 18
scalar OSPF_Suboptimal.R5.ipv4.arp arpResolutionInitiated:count 9
scalar OSPF_Suboptimal.R5.ipv4.arp arpReplySent:count 9
scalar OSPF_Suboptimal.R5.ipv4.arp arpReplySent:sum(packetBytes) 252
scalar OSPF_Suboptimal.R5.ipv4.arp arpRequestSent:count 9
scalar OSPF_Suboptimal.R5.ipv4.arp arpRequestSent:sum(packetBytes) 252
scalar OSPF_Suboptimal.switch4.bridging "processed frames" 0
scalar OSPF_Suboptimal.switch4.bridging "discarded frames" 0
scalar OSPF_Suboptimal.switch4.bridging "number of received BPDUs from STP module" 0
scalar OSPF_Suboptimal.switch4.bridging "number of received frames from network (including BPDUs)" 0
scalar OSPF_Suboptimal.switch4.bridging "number of dropped frames (including BPDUs)" 0
scalar OSPF_Suboptimal.switch4.bridging "number of delivered BPDUs to the STP module" 0
scalar OSPF_Suboptimal.switch4.bridging "number of dispatched BPDU frames to the network" 0
scalar OSPF_Suboptimal.switch4.bridging "number of dispatched non-BDPU frames to the network" 0
scalar OSPF_Suboptimal.switch4.bridging packetDropped:count 0
scalar OSPF_Suboptimal.switch4.bridging packetDropped:sum(packetBytes) 0
scalar OSPF_Suboptimal.switch4.ethernet pauseSent:count 0
scalar OSPF_Suboptimal.switch4.ethernet pauseSent:sum 0
scalar OSPF_Suboptimal.switch4.ethernet decapPk:count 0
scalar OSPF_Suboptimal.switch4.ethernet decapPk:sum(packetBytes) 0
scalar OSPF_Suboptimal.switch4.ethernet encapPk:count 0
scalar OSPF_Suboptimal.switch4.ethernet encapPk:sum(packetBytes) 0
scalar OSPF_Suboptimal.switch4.eth[0].queue queueLength:last 0
scalar OSPF_Suboptimal.switch4.eth[0].queue queueLength:max 0
scalar OSPF_Suboptimal.switch4.eth[0].queue queueLength:timeavg 0
scalar OSPF_Suboptimal.switch4.eth[0].queue queueBitLength:last 0
scalar OSPF_Suboptimal.switch4.eth[0].queue queueBitLength:max 0
scalar OSPF_Suboptimal.switch4.eth[0].queue queueBitLength:timeavg 0
scalar OSPF_Suboptimal.switch4.eth[0].queue outgoingPackets:count 0
scalar OSPF_Suboptimal.switch4.eth[0].queue outgoingPacketLengths:sum 0
scalar OSPF_Suboptimal.switch4.eth[0].queue incomingPackets:count 0
scalar OSPF_Suboptimal.switch4.eth[0].queue incomingPacketLengths:sum 0
scalar OSPF_Suboptimal.switch4.eth[0].queue droppedPacketsQueueOverflow:count 0
scalar OSPF_Suboptimal.switch4.eth[0].queue droppedPacketLengthsQueueOverflow:sum 0
scalar OSPF_Suboptimal.switch4.eth[0].mac "simulated time" 1000
scalar OSPF_Suboptimal.switch4.eth[0].mac full-duplex 1
scalar OSPF_Suboptimal.switch4.eth[0].mac "frames/sec sent" 0
scalar OSPF_Suboptimal.switch4.eth[0].mac "frames/sec rcvd" 0
scalar OSPF_Suboptimal.switch4.eth[0].mac "bits/sec sent" 0
scalar OSPF_Suboptimal.switch4.eth[0].mac "bits/sec rcvd" 0
scalar OSPF_Suboptimal.switch4.eth[0].mac "rx channel idle (%)" 100
scalar OSPF_Suboptimal.switch4.eth[0].mac "rx channel utilization (%)" 0
scalar OSPF_Suboptimal.switch4.eth[0].mac rxPausePkUnits:count 0
scalar OSPF_Suboptimal.switch4.eth[0].mac rxPausePkUnits:sum 0
scalar OSPF_Suboptimal.switch4.eth[0].mac txPausePkUnits:count 0
scalar OSPF_Suboptimal.switch4.eth[0].mac txPausePkUnits:sum 0
scalar OSPF_Suboptimal.switch4.eth[0].mac rxPkOk:count 0
scalar OSPF_Suboptimal.switch4.eth[0].mac rxPkOk:sum(packetBytes) 0
scalar OSPF_Suboptimal.switch4.eth[0].mac txPk:count 0
scalar OSPF_Suboptimal.switch4.eth[0].mac txPk:sum(packetBytes) 0
scalar OSPF_Suboptimal.switch4.eth[0].mac packetReceivedFromUpper:count 0
scalar OSPF_Suboptimal.switch4.eth[0].mac packetReceivedFromUpper:sum(packetBytes) 0
scalar OSPF_Suboptimal.switch4.eth[0].mac passedUpPk:count 0
scalar OSPF_Suboptimal.switch4.eth[0].mac passedUpPk:sum(packetBytes) 0
scalar OSPF_Suboptimal.switch4.eth[0].mac packetDropIncorrectlyReceived:count 0
scalar OSPF_Suboptimal.switch4.eth[0].mac packetDropIncorrectlyReceived:sum(packetBytes) 0
scalar OSPF_Suboptimal.switch4.eth[0].mac packetDropInterfaceDown:count 0
scalar OSPF_Suboptimal.switch4.eth[0].mac packetDropInterfaceDown:sum(packetBytes) 0
scalar OSPF_Suboptimal.switch4.eth[0].mac packetDropNotAddressedToUs:count 0
scalar OSPF_Suboptimal.switch4.eth[0].mac packetDropNotAddressedToUs:sum(packetBytes) 0
scalar OSPF_Suboptimal.switch4.eth[0] packetDropInterfaceDown:count 0
scalar OSPF_Suboptimal.switch4.eth[0] packetDropInterfaceDown:sum(packetBytes) 0
scalar OSPF_Suboptimal.switch4.eth[0] packetDropNoCarrier:count 0
scalar OSPF_Suboptimal.switch4.eth[0] packetDropNoCarrier:sum(packetBytes) 0
scalar OSPF_Suboptimal.switch3.bridging "processed frames" 0
scalar OSPF_Suboptimal.switch3.bridging "discarded frames" 0
scalar OSPF_Suboptimal.switch3.bridging "number of received BPDUs from STP module" 0
scalar OSPF_Suboptimal.switch3.bridging "number of received frames from network (including BPDUs)" 0
scalar OSPF_Suboptimal.switch3.bridging "number of dropped frames (including BPDUs)" 0
scalar OSPF_Suboptimal.switch3.bridging "number of delivered BPDUs to the STP module" 0
scalar OSPF_Suboptimal.switch3.bridging "number of dispatched BPDU frames to the network" 0
scalar OSPF_Suboptimal.switch3.bridging "number of dispatched non-BDPU frames to the network" 0
scalar OSPF_Suboptimal.switch3.bridging packetDropped:count 0
scalar OSPF_Suboptimal.switch3.bridging packetDropped:sum(packetBytes) 0
scalar OSPF_Suboptimal.switch3.ethernet pauseSent:count 0
scalar OSPF_Suboptimal.switch3.ethernet pauseSent:sum 0
scalar OSPF_Suboptimal.switch3.ethernet decapPk:count 0
scalar OSPF_Suboptimal.switch3.ethernet decapPk:sum(packetBytes) 0
scalar OSPF_Suboptimal.switch3.ethernet encapPk:count 0
scalar OSPF_Suboptimal.switch3.ethernet encapPk:sum(packetBytes) 0
scalar OSPF_Suboptimal.switch3.eth[0].queue queueLength:last 0
scalar OSPF_Suboptimal.switch3.eth[0].queue queueLength:max 0
scalar OSPF_Suboptimal.switch3.eth[0].queue queueLength:timeavg 0
scalar OSPF_Suboptimal.switch3.eth[0].queue queueBitLength:last 0
scalar OSPF_Suboptimal.switch3.eth[0].queue queueBitLength:max 0
scalar OSPF_Suboptimal.switch3.eth[0].queue queueBitLength:timeavg 0
scalar OSPF_Suboptimal.switch3.eth[0].queue outgoingPackets:count 0
scalar OSPF_Suboptimal.switch3.eth[0].queue outgoingPacketLengths:sum 0
scalar OSPF_Suboptimal.switch3.eth[0].queue incomingPackets:count 0
scalar OSPF_Suboptimal.switch3.eth[0].queue incomingPacketLengths:sum 0
scalar OSPF_Suboptimal.switch3.eth[0].queue droppedPacketsQueueOverflow:count 0
scalar OSPF_Suboptimal.switch3.eth[0].queue droppedPacketLengthsQueueOverflow:sum 0
scalar OSPF_Suboptimal.switch3.eth[0].mac "simulated time" 1000
scalar OSPF_Suboptimal.switch3.eth[0].mac full-duplex 1
scalar OSPF_Suboptimal.switch3.eth[0].mac "frames/sec sent" 0
scalar OSPF_Suboptimal.switch3.eth[0].mac "frames/sec rcvd" 0
scalar OSPF_Suboptimal.switch3.eth[0].mac "bits/sec sent" 0
scalar OSPF_Suboptimal.switch3.eth[0].mac "bits/sec rcvd" 0
scalar OSPF_Suboptimal.switch3.eth[0].mac "rx channel idle (%)" 100
scalar OSPF_Suboptimal.switch3.eth[0].mac "rx channel utilization (%)" 0
scalar OSPF_Suboptimal.switch3.eth[0].mac rxPausePkUnits:count 0
scalar OSPF_Suboptimal.switch3.eth[0].mac rxPausePkUnits:sum 0
scalar OSPF_Suboptimal.switch3.eth[0].mac txPausePkUnits:count 0
scalar OSPF_Suboptimal.switch3.eth[0].mac txPausePkUnits:sum 0
scalar OSPF_Suboptimal.switch3.eth[0].mac rxPkOk:count 0
scalar OSPF_Suboptimal.switch3.eth[0].mac rxPkOk:sum(packetBytes) 0
scalar OSPF_Suboptimal.switch3.eth[0].mac txPk:count 0
scalar OSPF_Suboptimal.switch3.eth[0].mac txPk:sum(packetBytes) 0
scalar OSPF_Suboptimal.switch3.eth[0].mac packetReceivedFromUpper:count 0
scalar OSPF_Suboptimal.switch3.eth[0].mac packetReceivedFromUpper:sum(packetBytes) 0
scalar OSPF_Suboptimal.switch3.eth[0].mac passedUpPk:count 0
scalar OSPF_Suboptimal.switch3.eth[0].mac passedUpPk:sum(packetBytes) 0
scalar OSPF_Suboptimal.switch3.eth[0].mac packetDropIncorrectlyReceived:count 0
scalar OSPF_Suboptimal.switch3.eth[0].mac packetDropIncorrectlyReceived:sum(packetBytes) 0
scalar OSPF_Suboptimal.switch3.eth[0].mac packetDropInterfaceDown:count 0
scalar OSPF_Suboptimal.switch3.eth[0].mac packetDropInterfaceDown:sum(packetBytes) 0
scalar OSPF_Suboptimal.switch3.eth[0].mac packetDropNotAddressedToUs:count 0
scalar OSPF_Suboptimal.switch3.eth[0].mac packetDropNotAddressedToUs:sum(packetBytes) 0
scalar OSPF_Suboptimal.switch3.eth[0] packetDropInterfaceDown:count 0
scalar OSPF_Suboptimal.switch3.eth[0] packetDropInterfaceDown:sum(packetBytes) 0
scalar OSPF_Suboptimal.switch3.eth[0] packetDropNoCarrier:count 0
scalar OSPF_Suboptimal.switch3.eth[0] packetDropNoCarrier:sum(packetBytes) 0
scalar OSPF_Suboptimal.R6.ethernet pauseSent:count 0
scalar OSPF_Suboptimal.R6.ethernet pauseSent:sum 0
scalar OSPF_Suboptimal.R6.ethernet decapPk:count 1340
scalar OSPF_Suboptimal.R6.ethernet decapPk:sum(packetBytes) 109828
scalar OSPF_Suboptimal.R6.ethernet encapPk:count 1331
scalar OSPF_Suboptimal.R6.ethernet encapPk:sum(packetBytes) 108924
scalar OSPF_Suboptimal.R6.lo[0].lo rcvdPkFromHl:count 0
scalar OSPF_Suboptimal.R6.lo[0].lo rcvdPkFromHl:sum(packetBytes) 0
scalar OSPF_Suboptimal.R6.lo[0].lo passedUpPk:count 0
scalar OSPF_Suboptimal.R6.lo[0].lo passedUpPk:sum(packetBytes) 0
scalar OSPF_Suboptimal.R6.lo[0] packetDropInterfaceDown:count 0
scalar OSPF_Suboptimal.R6.lo[0] packetDropInterfaceDown:sum(packetBytes) 0
scalar OSPF_Suboptimal.R6.lo[0] packetDropNoCarrier:count 0
scalar OSPF_Suboptimal.R6.lo[0] packetDropNoCarrier:sum(packetBytes) 0
scalar OSPF_Suboptimal.R6.eth[0].queue queueLength:last 0
scalar OSPF_Suboptimal.R6.eth[0].queue queueLength:max 6
scalar OSPF_Suboptimal.R6.eth[0].queue queueLength:timeavg 6.1142e-07
scalar OSPF_Suboptimal.R6.eth[0].queue queueBitLength:last 0
scalar OSPF_Suboptimal.R6.eth[0].queue queueBitLength:max 4960
scalar OSPF_Suboptimal.R6.eth[0].queue queueBitLength:timeavg 0.0004820953599999999
scalar OSPF_Suboptimal.R6.eth[0].queue outgoingPackets:count 1145
scalar OSPF_Suboptimal.R6.eth[0].queue outgoingPacketLengths:sum 921616
scalar OSPF_Suboptimal.R6.eth[0].queue incomingPackets:count 1145
scalar OSPF_Suboptimal.R6.eth[0].queue incomingPacketLengths:sum 921616
scalar OSPF_Suboptimal.R6.eth[0].queue droppedPacketsQueueOverflow:count 0
scalar OSPF_Suboptimal.R6.eth[0].queue droppedPacketLengthsQueueOverflow:sum 0
scalar OSPF_Suboptimal.R6.eth[0].mac "simulated time" 1000
scalar OSPF_Suboptimal.R6.eth[0].mac full-duplex 1
scalar OSPF_Suboptimal.R6.eth[0].mac "frames/sec sent" 1.145
scalar OSPF_Suboptimal.R6.eth[0].mac "frames/sec rcvd" 0.20999999999999999
scalar OSPF_Suboptimal.R6.eth[0].mac "bits/sec sent" 922.91200000000003
scalar OSPF_Suboptimal.R6.eth[0].mac "bits/sec rcvd" 160.17599999999999
scalar OSPF_Suboptimal.R6.eth[0].mac "rx channel idle (%)" 99.999826384000002
scalar OSPF_Suboptimal.R6.eth[0].mac "rx channel utilization (%)" 0.000173616
scalar OSPF_Suboptimal.R6.eth[0].mac rxPausePkUnits:count 0
scalar OSPF_Suboptimal.R6.eth[0].mac rxPausePkUnits:sum 0
scalar OSPF_Suboptimal.R6.eth[0].mac txPausePkUnits:count 0
scalar OSPF_Suboptimal.R6.eth[0].mac txPausePkUnits:sum 0
scalar OSPF_Suboptimal.R6.eth[0].mac rxPkOk:count 210
scalar OSPF_Suboptimal.R6.eth[0].mac rxPkOk:sum(packetBytes) 20022
scalar OSPF_Suboptimal.R6.eth[0].mac txPk:count 1145
scalar OSPF_Suboptimal.R6.eth[0].mac txPk:sum(packetBytes) 115364
scalar OSPF_Suboptimal.R6.eth[0].mac packetReceivedFromUpper:count 1145
scalar OSPF_Suboptimal.R6.eth[0].mac packetReceivedFromUpper:sum(packetBytes) 115202
scalar OSPF_Suboptimal.R6.eth[0].mac passedUpPk:count 210
scalar OSPF_Suboptimal.R6.eth[0].mac passedUpPk:sum(packetBytes) 20022
scalar OSPF_Suboptimal.R6.eth[0].mac packetDropIncorrectlyReceived:count 0
scalar OSPF_Suboptimal.R6.eth[0].mac packetDropIncorrectlyReceived:sum(packetBytes) 0
scalar OSPF_Suboptimal.R6.eth[0].mac packetDropInterfaceDown:count 0
scalar OSPF_Suboptimal.R6.eth[0].mac packetDropInterfaceDown:sum(packetBytes) 0
scalar OSPF_Suboptimal.R6.eth[0].mac packetDropNotAddressedToUs:count 0
scalar OSPF_Suboptimal.R6.eth[0].mac packetDropNotAddressedToUs:sum(packetBytes) 0
scalar OSPF_Suboptimal.R6.eth[0] packetDropInterfaceDown:count 0
scalar OSPF_Suboptimal.R6.eth[0] packetDropInterfaceDown:sum(packetBytes) 0
scalar OSPF_Suboptimal.R6.eth[0] packetDropNoCarrier:count 0
scalar OSPF_Suboptimal.R6.eth[0] packetDropNoCarrier:sum(packetBytes) 0
scalar OSPF_Suboptimal.R6.eth[1].queue queueLength:last 0
scalar OSPF_Suboptimal.R6.eth[1].queue queueLength:max 7
scalar OSPF_Suboptimal.R6.eth[1].queue queueLength:timeavg 6.9542000000000007e-07
scalar OSPF_Suboptimal.R6.eth[1].queue queueBitLength:last 0
scalar OSPF_Suboptimal.R6.eth[1].queue queueBitLength:max 5440
scalar OSPF_Suboptimal.R6.eth[1].queue queueBitLength:timeavg 0.00054789024000000011
scalar OSPF_Suboptimal.R6.eth[1].queue outgoingPackets:count 186
scalar OSPF_Suboptimal.R6.eth[1].queue outgoingPacketLengths:sum 141440
scalar OSPF_Suboptimal.R6.eth[1].queue incomingPackets:count 186
scalar OSPF_Suboptimal.R6.eth[1].queue incomingPacketLengths:sum 141440
scalar OSPF_Suboptimal.R6.eth[1].queue droppedPacketsQueueOverflow:count 0
scalar OSPF_Suboptimal.R6.eth[1].queue droppedPacketLengthsQueueOverflow:sum 0
scalar OSPF_Suboptimal.R6.eth[1].mac "simulated time" 1000
scalar OSPF_Suboptimal.R6.eth[1].mac full-duplex 1
scalar OSPF_Suboptimal.R6.eth[1].mac "frames/sec sent" 0.186
scalar OSPF_Suboptimal.R6.eth[1].mac "frames/sec rcvd" 1.1299999999999999
scalar OSPF_Suboptimal.R6.eth[1].mac "bits/sec sent" 142.73599999999999
scalar OSPF_Suboptimal.R6.eth[1].mac "bits/sec rcvd" 911.40800000000002
scalar OSPF_Suboptimal.R6.eth[1].mac "rx channel idle (%)" 99.999016271999992
scalar OSPF_Suboptimal.R6.eth[1].mac "rx channel utilization (%)" 0.00098372800000000012
scalar OSPF_Suboptimal.R6.eth[1].mac rxPausePkUnits:count 0
scalar OSPF_Suboptimal.R6.eth[1].mac rxPausePkUnits:sum 0
scalar OSPF_Suboptimal.R6.eth[1].mac txPausePkUnits:count 0
scalar OSPF_Suboptimal.R6.eth[1].mac txPausePkUnits:sum 0
scalar OSPF_Suboptimal.R6.eth[1].mac rxPkOk:count 1130
scalar OSPF_Suboptimal.R6.eth[1].mac rxPkOk:sum(packetBytes) 113926
scalar OSPF_Suboptimal.R6.eth[1].mac txPk:count 186
scalar OSPF_Suboptimal.R6.eth[1].mac txPk:sum(packetBytes) 17842
scalar OSPF_Suboptimal.R6.eth[1].mac packetReceivedFromUpper:count 186
scalar OSPF_Suboptimal.R6.eth[1].mac packetReceivedFromUpper:sum(packetBytes) 17680
scalar OSPF_Suboptimal.R6.eth[1].mac passedUpPk:count 1130
scalar OSPF_Suboptimal.R6.eth[1].mac passedUpPk:sum(packetBytes) 113926
scalar OSPF_Suboptimal.R6.eth[1].mac packetDropIncorrectlyReceived:count 0
scalar OSPF_Suboptimal.R6.eth[1].mac packetDropIncorrectlyReceived:sum(packetBytes) 0
scalar OSPF_Suboptimal.R6.eth[1].mac packetDropInterfaceDown:count 0
scalar OSPF_Suboptimal.R6.eth[1].mac packetDropInterfaceDown:sum(packetBytes) 0
scalar OSPF_Suboptimal.R6.eth[1].mac packetDropNotAddressedToUs:count 0
scalar OSPF_Suboptimal.R6.eth[1].mac packetDropNotAddressedToUs:sum(packetBytes) 0
scalar OSPF_Suboptimal.R6.eth[1] packetDropInterfaceDown:count 0
scalar OSPF_Suboptimal.R6.eth[1] packetDropInterfaceDown:sum(packetBytes) 0
scalar OSPF_Suboptimal.R6.eth[1] packetDropNoCarrier:count 0
scalar OSPF_Suboptimal.R6.eth[1] packetDropNoCarrier:sum(packetBytes) 0
scalar OSPF_Suboptimal.R6.eth[2].queue queueLength:last 0
scalar OSPF_Suboptimal.R6.eth[2].queue queueLength:max 0
scalar OSPF_Suboptimal.R6.eth[2].queue queueLength:timeavg 0
scalar OSPF_Suboptimal.R6.eth[2].queue queueBitLength:last 0
scalar OSPF_Suboptimal.R6.eth[2].queue queueBitLength:max 0
scalar OSPF_Suboptimal.R6.eth[2].queue queueBitLength:timeavg 0
scalar OSPF_Suboptimal.R6.eth[2].queue outgoingPackets:count 0
scalar OSPF_Suboptimal.R6.eth[2].queue outgoingPacketLengths:sum 0
scalar OSPF_Suboptimal.R6.eth[2].queue incomingPackets:count 0
scalar OSPF_Suboptimal.R6.eth[2].queue incomingPacketLengths:sum 0
scalar OSPF_Suboptimal.R6.eth[2].queue droppedPacketsQueueOverflow:count 0
scalar OSPF_Suboptimal.R6.eth[2].queue droppedPacketLengthsQueueOverflow:sum 0
scalar OSPF_Suboptimal.R6.eth[2].mac "simulated time" 1000
scalar OSPF_Suboptimal.R6.eth[2].mac full-duplex 1
scalar OSPF_Suboptimal.R6.eth[2].mac "frames/sec sent" 0
scalar OSPF_Suboptimal.R6.eth[2].mac "frames/sec rcvd" 0
scalar OSPF_Suboptimal.R6.eth[2].mac "bits/sec sent" 0
scalar OSPF_Suboptimal.R6.eth[2].mac "bits/sec rcvd" 0
scalar OSPF_Suboptimal.R6.eth[2].mac "rx channel idle (%)" 100
scalar OSPF_Suboptimal.R6.eth[2].mac "rx channel utilization (%)" 0
scalar OSPF_Suboptimal.R6.eth[2].mac rxPausePkUnits:count 0
scalar OSPF_Suboptimal.R6.eth[2].mac rxPausePkUnits:sum 0
scalar OSPF_Suboptimal.R6.eth[2].mac txPausePkUnits:count 0
scalar OSPF_Suboptimal.R6.eth[2].mac txPausePkUnits:sum 0
scalar OSPF_Suboptimal.R6.eth[2].mac rxPkOk:count 0
scalar OSPF_Suboptimal.R6.eth[2].mac rxPkOk:sum(packetBytes) 0
scalar OSPF_Suboptimal.R6.eth[2].mac txPk:count 0
scalar OSPF_Suboptimal.R6.eth[2].mac txPk:sum(packetBytes) 0
scalar OSPF_Suboptimal.R6.eth[2].mac packetReceivedFromUpper:count 0
scalar OSPF_Suboptimal.R6.eth[2].mac packetReceivedFromUpper:sum(packetBytes) 0
scalar OSPF_Suboptimal.R6.eth[2].mac passedUpPk:count 0
scalar OSPF_Suboptimal.R6.eth[2].mac passedUpPk:sum(packetBytes) 0
scalar OSPF_Suboptimal.R6.eth[2].mac packetDropIncorrectlyReceived:count 0
scalar OSPF_Suboptimal.R6.eth[2].mac packetDropIncorrectlyReceived:sum(packetBytes) 0
scalar OSPF_Suboptimal.R6.eth[2].mac packetDropInterfaceDown:count 0
scalar OSPF_Suboptimal.R6.eth[2].mac packetDropInterfaceDown:sum(packetBytes) 0
scalar OSPF_Suboptimal.R6.eth[2].mac packetDropNotAddressedToUs:count 0
scalar OSPF_Suboptimal.R6.eth[2].mac packetDropNotAddressedToUs:sum(packetBytes) 0
scalar OSPF_Suboptimal.R6.eth[2] packetDropInterfaceDown:count 0
scalar OSPF_Suboptimal.R6.eth[2] packetDropInterfaceDown:sum(packetBytes) 0
scalar OSPF_Suboptimal.R6.eth[2] packetDropNoCarrier:count 0
scalar OSPF_Suboptimal.R6.eth[2] packetDropNoCarrier:sum(packetBytes) 0
scalar OSPF_Suboptimal.R6.ipv4.ip packetDropAddressResolutionFailed:count 0
scalar OSPF_Suboptimal.R6.ipv4.ip packetDropAddressResolutionFailed:sum(packetBytes) 0
scalar OSPF_Suboptimal.R6.ipv4.ip packetDropHopLimitReached:count 0
scalar OSPF_Suboptimal.R6.ipv4.ip packetDropHopLimitReached:sum(packetBytes) 0
scalar OSPF_Suboptimal.R6.ipv4.ip packetDropForwardingDisabled:count 0
scalar OSPF_Suboptimal.R6.ipv4.ip packetDropForwardingDisabled:sum(packetBytes) 0
scalar OSPF_Suboptimal.R6.ipv4.ip packetDropLifetimeExpired:count 0
scalar OSPF_Suboptimal.R6.ipv4.ip packetDropLifetimeExpired:sum(packetBytes) 0
scalar OSPF_Suboptimal.R6.ipv4.ip packetDropNoInterfaceFound:count 0
scalar OSPF_Suboptimal.R6.ipv4.ip packetDropNoInterfaceFound:sum(packetBytes) 0
scalar OSPF_Suboptimal.R6.ipv4.ip packetDropNoRouteFound:count 0
scalar OSPF_Suboptimal.R6.ipv4.ip packetDropNoRouteFound:sum(packetBytes) 0
scalar OSPF_Suboptimal.R6.ipv4.ip packetDropUndefined:count 0
scalar OSPF_Suboptimal.R6.ipv4.ip packetDropUndefined:sum(packetBytes) 0
scalar OSPF_Suboptimal.R6.ipv4.arp arpResolutionFailed:count 0
scalar OSPF_Suboptimal.R6.ipv4.arp arpResolutionCompleted:count 18
scalar OSPF_Suboptimal.R6.ipv4.arp arpResolutionInitiated:count 8
scalar OSPF_Suboptimal.R6.ipv4.arp arpReplySent:count 10
scalar OSPF_Suboptimal.R6.ipv4.arp arpReplySent:sum(packetBytes) 280
scalar OSPF_Suboptimal.R6.ipv4.arp arpRequestSent:count 8
scalar OSPF_Suboptimal.R6.ipv4.arp arpRequestSent:sum(packetBytes) 224
scalar OSPF_Suboptimal.R7.ethernet pauseSent:count 0
scalar OSPF_Suboptimal.R7.ethernet pauseSent:sum 0
scalar OSPF_Suboptimal.R7.ethernet decapPk:count 2276
scalar OSPF_Suboptimal.R7.ethernet decapPk:sum(packetBytes) 187916
scalar OSPF_Suboptimal.R7.ethernet encapPk:count 2287
scalar OSPF_Suboptimal.R7.ethernet encapPk:sum(packetBytes) 188052
scalar OSPF_Suboptimal.R7.lo[0].lo rcvdPkFromHl:count 0
scalar OSPF_Suboptimal.R7.lo[0].lo rcvdPkFromHl:sum(packetBytes) 0
scalar OSPF_Suboptimal.R7.lo[0].lo passedUpPk:count 0
scalar OSPF_Suboptimal.R7.lo[0].lo passedUpPk:sum(packetBytes) 0
scalar OSPF_Suboptimal.R7.lo[0] packetDropInterfaceDown:count 0
[...]
scalar OSPF_Suboptimal.host6.eth[0].mac utilization:vector:mean 0.00083641599999999445
scalar OSPF_Suboptimal.host6.eth[0].mac utilization:vector:stddev 0.0026170256164683896
scalar OSPF_Suboptimal.host6.eth[0].mac utilization:vector:min 0
scalar OSPF_Suboptimal.host6.eth[0].mac utilization:vector:max 0.020320000000000005
scalar OSPF_Suboptimal.host6.eth[0].mac utilization:vector:starttime 0.10000000000000001
scalar OSPF_Suboptimal.host6.eth[0].mac utilization:vector:endtime 1000
scalar OSPF_Suboptimal.host6.eth[0].mac txPk:vector(packetBytes):count 956
scalar OSPF_Suboptimal.host6.eth[0].mac txPk:vector(packetBytes):sum 96904
scalar OSPF_Suboptimal.host6.eth[0].mac txPk:vector(packetBytes):sumweights 956
scalar OSPF_Suboptimal.host6.eth[0].mac txPk:vector(packetBytes):mean 101.36401673640168
scalar OSPF_Suboptimal.host6.eth[0].mac txPk:vector(packetBytes):stddev 4.8772709491847115
scalar OSPF_Suboptimal.host6.eth[0].mac txPk:vector(packetBytes):min 64
scalar OSPF_Suboptimal.host6.eth[0].mac txPk:vector(packetBytes):max 102
scalar OSPF_Suboptimal.host6.eth[0].mac txPk:vector(packetBytes):starttime 60.00007629000001
scalar OSPF_Suboptimal.host6.eth[0].mac txPk:vector(packetBytes):endtime 999.00007075000019
scalar OSPF_Suboptimal.host6.eth[0].mac rxPkOk:vector(packetBytes):count 956
scalar OSPF_Suboptimal.host6.eth[0].mac rxPkOk:vector(packetBytes):sum 96904
scalar OSPF_Suboptimal.host6.eth[0].mac rxPkOk:vector(packetBytes):sumweights 956
scalar OSPF_Suboptimal.host6.eth[0].mac rxPkOk:vector(packetBytes):mean 101.36401673640168
scalar OSPF_Suboptimal.host6.eth[0].mac rxPkOk:vector(packetBytes):stddev 4.8772709491847115
scalar OSPF_Suboptimal.host6.eth[0].mac rxPkOk:vector(packetBytes):min 64
scalar OSPF_Suboptimal.host6.eth[0].mac rxPkOk:vector(packetBytes):max 102
scalar OSPF_Suboptimal.host6.eth[0].mac rxPkOk:vector(packetBytes):starttime 60.000070530000009
scalar OSPF_Suboptimal.host6.eth[0].mac rxPkOk:vector(packetBytes):endtime 999.00006195000014
scalar OSPF_Suboptimal.host6.eth[0].mac passedUpPk:vector(packetBytes):count 956
scalar OSPF_Suboptimal.host6.eth[0].mac passedUpPk:vector(packetBytes):sum 96904
scalar OSPF_Suboptimal.host6.eth[0].mac passedUpPk:vector(packetBytes):sumweights 956
scalar OSPF_Suboptimal.host6.eth[0].mac passedUpPk:vector(packetBytes):mean 101.36401673640168
scalar OSPF_Suboptimal.host6.eth[0].mac passedUpPk:vector(packetBytes):stddev 4.8772709491847115
scalar OSPF_Suboptimal.host6.eth[0].mac passedUpPk:vector(packetBytes):min 64
scalar OSPF_Suboptimal.host6.eth[0].mac passedUpPk:vector(packetBytes):max 102
scalar OSPF_Suboptimal.host6.eth[0].mac passedUpPk:vector(packetBytes):starttime 60.000070530000009
scalar OSPF_Suboptimal.host6.eth[0].mac passedUpPk:vector(packetBytes):endtime 999.00006195000014
scalar OSPF_Suboptimal.host6.eth[0].mac txPausePkUnits:vector:count 0
scalar OSPF_Suboptimal.host6.eth[0].mac txPausePkUnits:vector:sum 0
scalar OSPF_Suboptimal.host6.eth[0].mac txPausePkUnits:vector:sumweights 0
scalar OSPF_Suboptimal.host6.eth[0].mac txPausePkUnits:vector:mean -nan
scalar OSPF_Suboptimal.host6.eth[0].mac txPausePkUnits:vector:stddev nan
scalar OSPF_Suboptimal.host6.eth[0].mac txPausePkUnits:vector:min inf
scalar OSPF_Suboptimal.host6.eth[0].mac txPausePkUnits:vector:max -inf
scalar OSPF_Suboptimal.host6.eth[0].mac txPausePkUnits:vector:starttime nan
scalar OSPF_Suboptimal.host6.eth[0].mac txPausePkUnits:vector:endtime nan
scalar OSPF_Suboptimal.host6.eth[0].mac rxPausePkUnits:vector:count 0
scalar OSPF_Suboptimal.host6.eth[0].mac rxPausePkUnits:vector:sum 0
scalar OSPF_Suboptimal.host6.eth[0].mac rxPausePkUnits:vector:sumweights 0
scalar OSPF_Suboptimal.host6.eth[0].mac rxPausePkUnits:vector:mean -nan
scalar OSPF_Suboptimal.host6.eth[0].mac rxPausePkUnits:vector:stddev nan
scalar OSPF_Suboptimal.host6.eth[0].mac rxPausePkUnits:vector:min inf
scalar OSPF_Suboptimal.host6.eth[0].mac rxPausePkUnits:vector:max -inf
scalar OSPF_Suboptimal.host6.eth[0].mac rxPausePkUnits:vector:starttime nan
scalar OSPF_Suboptimal.host6.eth[0].mac rxPausePkUnits:vector:endtime nan
scalar OSPF_Suboptimal.host6.eth[0].mac packetReceivedFromUpper:vector(packetBytes):count 956
scalar OSPF_Suboptimal.host6.eth[0].mac packetReceivedFromUpper:vector(packetBytes):sum 96616
scalar OSPF_Suboptimal.host6.eth[0].mac packetReceivedFromUpper:vector(packetBytes):sumweights 956
scalar OSPF_Suboptimal.host6.eth[0].mac packetReceivedFromUpper:vector(packetBytes):mean 101.06276150627615
scalar OSPF_Suboptimal.host6.eth[0].mac packetReceivedFromUpper:vector(packetBytes):stddev 7.1875571882722289
scalar OSPF_Suboptimal.host6.eth[0].mac packetReceivedFromUpper:vector(packetBytes):min 46
scalar OSPF_Suboptimal.host6.eth[0].mac packetReceivedFromUpper:vector(packetBytes):max 102
scalar OSPF_Suboptimal.host6.eth[0].mac packetReceivedFromUpper:vector(packetBytes):starttime 60.000070530000009
scalar OSPF_Suboptimal.host6.eth[0].mac packetReceivedFromUpper:vector(packetBytes):endtime 999.00006195000014
scalar OSPF_Suboptimal.host6.eth[0].mac packetDropIncorrectlyReceived:vector(packetBytes):count 0
scalar OSPF_Suboptimal.host6.eth[0].mac packetDropIncorrectlyReceived:vector(packetBytes):sum 0
scalar OSPF_Suboptimal.host6.eth[0].mac packetDropIncorrectlyReceived:vector(packetBytes):sumweights 0
scalar OSPF_Suboptimal.host6.eth[0].mac packetDropIncorrectlyReceived:vector(packetBytes):mean -nan
scalar OSPF_Suboptimal.host6.eth[0].mac packetDropIncorrectlyReceived:vector(packetBytes):stddev nan
scalar OSPF_Suboptimal.host6.eth[0].mac packetDropIncorrectlyReceived:vector(packetBytes):min inf
scalar OSPF_Suboptimal.host6.eth[0].mac packetDropIncorrectlyReceived:vector(packetBytes):max -inf
scalar OSPF_Suboptimal.host6.eth[0].mac packetDropIncorrectlyReceived:vector(packetBytes):starttime nan
scalar OSPF_Suboptimal.host6.eth[0].mac packetDropIncorrectlyReceived:vector(packetBytes):endtime nan
scalar OSPF_Suboptimal.host6.eth[0].mac packetDropInterfaceDown:vector(packetBytes):count 0
scalar OSPF_Suboptimal.host6.eth[0].mac packetDropInterfaceDown:vector(packetBytes):sum 0
scalar OSPF_Suboptimal.host6.eth[0].mac packetDropInterfaceDown:vector(packetBytes):sumweights 0
scalar OSPF_Suboptimal.host6.eth[0].mac packetDropInterfaceDown:vector(packetBytes):mean -nan
scalar OSPF_Suboptimal.host6.eth[0].mac packetDropInterfaceDown:vector(packetBytes):stddev nan
scalar OSPF_Suboptimal.host6.eth[0].mac packetDropInterfaceDown:vector(packetBytes):min inf
scalar OSPF_Suboptimal.host6.eth[0].mac packetDropInterfaceDown:vector(packetBytes):max -inf
scalar OSPF_Suboptimal.host6.eth[0].mac packetDropInterfaceDown:vector(packetBytes):starttime nan
scalar OSPF_Suboptimal.host6.eth[0].mac packetDropInterfaceDown:vector(packetBytes):endtime nan
scalar OSPF_Suboptimal.host6.eth[0].mac packetDropNotAddressedToUs:vector(packetBytes):count 0
scalar OSPF_Suboptimal.host6.eth[0].mac packetDropNotAddressedToUs:vector(packetBytes):sum 0
scalar OSPF_Suboptimal.host6.eth[0].mac packetDropNotAddressedToUs:vector(packetBytes):sumweights 0
scalar OSPF_Suboptimal.host6.eth[0].mac packetDropNotAddressedToUs:vector(packetBytes):mean -nan
scalar OSPF_Suboptimal.host6.eth[0].mac packetDropNotAddressedToUs:vector(packetBytes):stddev nan
scalar OSPF_Suboptimal.host6.eth[0].mac packetDropNotAddressedToUs:vector(packetBytes):min inf
scalar OSPF_Suboptimal.host6.eth[0].mac packetDropNotAddressedToUs:vector(packetBytes):max -inf
scalar OSPF_Suboptimal.host6.eth[0].mac packetDropNotAddressedToUs:vector(packetBytes):starttime nan
scalar OSPF_Suboptimal.host6.eth[0].mac packetDropNotAddressedToUs:vector(packetBytes):endtime nan
scalar OSPF_Suboptimal.host6.eth[0] packetDropInterfaceDown:vector(packetBytes):count 0
scalar OSPF_Suboptimal.host6.eth[0] packetDropInterfaceDown:vector(packetBytes):sum 0
scalar OSPF_Suboptimal.host6.eth[0] packetDropInterfaceDown:vector(packetBytes):sumweights 0
scalar OSPF_Suboptimal.host6.eth[0] packetDropInterfaceDown:vector(packetBytes):mean -nan
scalar OSPF_Suboptimal.host6.eth[0] packetDropInterfaceDown:vector(packetBytes):stddev nan
scalar OSPF_Suboptimal.host6.eth[0] packetDropInterfaceDown:vector(packetBytes):min inf
scalar OSPF_Suboptimal.host6.eth[0] packetDropInterfaceDown:vector(packetBytes):max -inf
scalar OSPF_Suboptimal.host6.eth[0] packetDropInterfaceDown:vector(packetBytes):starttime nan
scalar OSPF_Suboptimal.host6.eth[0] packetDropInterfaceDown:vector(packetBytes):endtime nan
scalar OSPF_Suboptimal.host6.eth[0] packetDropNoCarrier:vector(packetBytes):count 0
scalar OSPF_Suboptimal.host6.eth[0] packetDropNoCarrier:vector(packetBytes):sum 0
scalar OSPF_Suboptimal.host6.eth[0] packetDropNoCarrier:vector(packetBytes):sumweights 0
scalar OSPF_Suboptimal.host6.eth[0] packetDropNoCarrier:vector(packetBytes):mean -nan
scalar OSPF_Suboptimal.host6.eth[0] packetDropNoCarrier:vector(packetBytes):stddev nan
scalar OSPF_Suboptimal.host6.eth[0] packetDropNoCarrier:vector(packetBytes):min inf
scalar OSPF_Suboptimal.host6.eth[0] packetDropNoCarrier:vector(packetBytes):max -inf
scalar OSPF_Suboptimal.host6.eth[0] packetDropNoCarrier:vector(packetBytes):starttime nan
scalar OSPF_Suboptimal.host6.eth[0] packetDropNoCarrier:vector(packetBytes):endtime nan
scalar OSPF_Suboptimal.host6.ipv4.ip packetDropAddressResolutionFailed:vector(packetBytes):count 0
scalar OSPF_Suboptimal.host6.ipv4.ip packetDropAddressResolutionFailed:vector(packetBytes):sum 0
scalar OSPF_Suboptimal.host6.ipv4.ip packetDropAddressResolutionFailed:vector(packetBytes):sumweights 0
scalar OSPF_Suboptimal.host6.ipv4.ip packetDropAddressResolutionFailed:vector(packetBytes):mean -nan
scalar OSPF_Suboptimal.host6.ipv4.ip packetDropAddressResolutionFailed:vector(packetBytes):stddev nan
scalar OSPF_Suboptimal.host6.ipv4.ip packetDropAddressResolutionFailed:vector(packetBytes):min inf
scalar OSPF_Suboptimal.host6.ipv4.ip packetDropAddressResolutionFailed:vector(packetBytes):max -inf
scalar OSPF_Suboptimal.host6.ipv4.ip packetDropAddressResolutionFailed:vector(packetBytes):starttime nan
scalar OSPF_Suboptimal.host6.ipv4.ip packetDropAddressResolutionFailed:vector(packetBytes):endtime nan
scalar OSPF_Suboptimal.host6.ipv4.ip packetDropHopLimitReached:vector(packetBytes):count 0
scalar OSPF_Suboptimal.host6.ipv4.ip packetDropHopLimitReached:vector(packetBytes):sum 0
scalar OSPF_Suboptimal.host6.ipv4.ip packetDropHopLimitReached:vector(packetBytes):sumweights 0
scalar OSPF_Suboptimal.host6.ipv4.ip packetDropHopLimitReached:vector(packetBytes):mean -nan
scalar OSPF_Suboptimal.host6.ipv4.ip packetDropHopLimitReached:vector(packetBytes):stddev nan
scalar OSPF_Suboptimal.host6.ipv4.ip packetDropHopLimitReached:vector(packetBytes):min inf
scalar OSPF_Suboptimal.host6.ipv4.ip packetDropHopLimitReached:vector(packetBytes):max -inf
scalar OSPF_Suboptimal.host6.ipv4.ip packetDropHopLimitReached:vector(packetBytes):starttime nan
scalar OSPF_Suboptimal.host6.ipv4.ip packetDropHopLimitReached:vector(packetBytes):endtime nan
scalar OSPF_Suboptimal.host6.ipv4.ip packetDropForwardingDisabled:vector(packetBytes):count 0
scalar OSPF_Suboptimal.host6.ipv4.ip packetDropForwardingDisabled:vector(packetBytes):sum 0
scalar OSPF_Suboptimal.host6.ipv4.ip packetDropForwardingDisabled:vector(packetBytes):sumweights 0
scalar OSPF_Suboptimal.host6.ipv4.ip packetDropForwardingDisabled:vector(packetBytes):mean -nan
scalar OSPF_Suboptimal.host6.ipv4.ip packetDropForwardingDisabled:vector(packetBytes):stddev nan
scalar OSPF_Suboptimal.host6.ipv4.ip packetDropForwardingDisabled:vector(packetBytes):min inf
scalar OSPF_Suboptimal.host6.ipv4.ip packetDropForwardingDisabled:vector(packetBytes):max -inf
scalar OSPF_Suboptimal.host6.ipv4.ip packetDropForwardingDisabled:vector(packetBytes):starttime nan
scalar OSPF_Suboptimal.host6.ipv4.ip packetDropForwardingDisabled:vector(packetBytes):endtime nan
scalar OSPF_Suboptimal.host6.ipv4.ip packetDropLifetimeExpired:vector(packetBytes):count 0
scalar OSPF_Suboptimal.host6.ipv4.ip packetDropLifetimeExpired:vector(packetBytes):sum 0
scalar OSPF_Suboptimal.host6.ipv4.ip packetDropLifetimeExpired:vector(packetBytes):sumweights 0
scalar OSPF_Suboptimal.host6.ipv4.ip packetDropLifetimeExpired:vector(packetBytes):mean -nan
scalar OSPF_Suboptimal.host6.ipv4.ip packetDropLifetimeExpired:vector(packetBytes):stddev nan
scalar OSPF_Suboptimal.host6.ipv4.ip packetDropLifetimeExpired:vector(packetBytes):min inf
scalar OSPF_Suboptimal.host6.ipv4.ip packetDropLifetimeExpired:vector(packetBytes):max -inf
scalar OSPF_Suboptimal.host6.ipv4.ip packetDropLifetimeExpired:vector(packetBytes):starttime nan
scalar OSPF_Suboptimal.host6.ipv4.ip packetDropLifetimeExpired:vector(packetBytes):endtime nan
scalar OSPF_Suboptimal.host6.ipv4.ip packetDropNoInterfaceFound:vector(packetBytes):count 0
scalar OSPF_Suboptimal.host6.ipv4.ip packetDropNoInterfaceFound:vector(packetBytes):sum 0
scalar OSPF_Suboptimal.host6.ipv4.ip packetDropNoInterfaceFound:vector(packetBytes):sumweights 0
scalar OSPF_Suboptimal.host6.ipv4.ip packetDropNoInterfaceFound:vector(packetBytes):mean -nan
scalar OSPF_Suboptimal.host6.ipv4.ip packetDropNoInterfaceFound:vector(packetBytes):stddev nan
scalar OSPF_Suboptimal.host6.ipv4.ip packetDropNoInterfaceFound:vector(packetBytes):min inf
scalar OSPF_Suboptimal.host6.ipv4.ip packetDropNoInterfaceFound:vector(packetBytes):max -inf
scalar OSPF_Suboptimal.host6.ipv4.ip packetDropNoInterfaceFound:vector(packetBytes):starttime nan
scalar OSPF_Suboptimal.host6.ipv4.ip packetDropNoInterfaceFound:vector(packetBytes):endtime nan
scalar OSPF_Suboptimal.host6.ipv4.ip packetDropNoRouteFound:vector(packetBytes):count 0
scalar OSPF_Suboptimal.host6.ipv4.ip packetDropNoRouteFound:vector(packetBytes):sum 0
scalar OSPF_Suboptimal.host6.ipv4.ip packetDropNoRouteFound:vector(packetBytes):sumweights 0
scalar OSPF_Suboptimal.host6.ipv4.ip packetDropNoRouteFound:vector(packetBytes):mean -nan
scalar OSPF_Suboptimal.host6.ipv4.ip packetDropNoRouteFound:vector(packetBytes):stddev nan
scalar OSPF_Suboptimal.host6.ipv4.ip packetDropNoRouteFound:vector(packetBytes):min inf
scalar OSPF_Suboptimal.host6.ipv4.ip packetDropNoRouteFound:vector(packetBytes):max -inf
scalar OSPF_Suboptimal.host6.ipv4.ip packetDropNoRouteFound:vector(packetBytes):starttime nan
scalar OSPF_Suboptimal.host6.ipv4.ip packetDropNoRouteFound:vector(packetBytes):endtime nan
scalar OSPF_Suboptimal.host6.ipv4.ip packetDropUndefined:vector(packetBytes):count 0
scalar OSPF_Suboptimal.host6.ipv4.ip packetDropUndefined:vector(packetBytes):sum 0
scalar OSPF_Suboptimal.host6.ipv4.ip packetDropUndefined:vector(packetBytes):sumweights 0
scalar OSPF_Suboptimal.host6.ipv4.ip packetDropUndefined:vector(packetBytes):mean -nan
scalar OSPF_Suboptimal.host6.ipv4.ip packetDropUndefined:vector(packetBytes):stddev nan
scalar OSPF_Suboptimal.host6.ipv4.ip packetDropUndefined:vector(packetBytes):min inf
scalar OSPF_Suboptimal.host6.ipv4.ip packetDropUndefined:vector(packetBytes):max -inf
scalar OSPF_Suboptimal.host6.ipv4.ip packetDropUndefined:vector(packetBytes):starttime nan
scalar OSPF_Suboptimal.host6.ipv4.ip packetDropUndefined:vector(packetBytes):endtime nan
scalar OSPF_Suboptimal.host6.ipv4.arp arpRequestSent:vector(packetBytes):count 8
scalar OSPF_Suboptimal.host6.ipv4.arp arpRequestSent:vector(packetBytes):sum 224
scalar OSPF_Suboptimal.host6.ipv4.arp arpRequestSent:vector(packetBytes):sumweights 8
scalar OSPF_Suboptimal.host6.ipv4.arp arpRequestSent:vector(packetBytes):mean 28
scalar OSPF_Suboptimal.host6.ipv4.arp arpRequestSent:vector(packetBytes):stddev 0
scalar OSPF_Suboptimal.host6.ipv4.arp arpRequestSent:vector(packetBytes):min 28
scalar OSPF_Suboptimal.host6.ipv4.arp arpRequestSent:vector(packetBytes):max 28
scalar OSPF_Suboptimal.host6.ipv4.arp arpRequestSent:vector(packetBytes):starttime 60.000085190000014
scalar OSPF_Suboptimal.host6.ipv4.arp arpRequestSent:vector(packetBytes):endtime 907.00008519000016
scalar OSPF_Suboptimal.host6.ipv4.arp arpReplySent:vector(packetBytes):count 8
scalar OSPF_Suboptimal.host6.ipv4.arp arpReplySent:vector(packetBytes):sum 224
scalar OSPF_Suboptimal.host6.ipv4.arp arpReplySent:vector(packetBytes):sumweights 8
scalar OSPF_Suboptimal.host6.ipv4.arp arpReplySent:vector(packetBytes):mean 28
scalar OSPF_Suboptimal.host6.ipv4.arp arpReplySent:vector(packetBytes):stddev 0
scalar OSPF_Suboptimal.host6.ipv4.arp arpReplySent:vector(packetBytes):min 28
scalar OSPF_Suboptimal.host6.ipv4.arp arpReplySent:vector(packetBytes):max 28
scalar OSPF_Suboptimal.host6.ipv4.arp arpReplySent:vector(packetBytes):starttime 60.000070530000009
scalar OSPF_Suboptimal.host6.ipv4.arp arpReplySent:vector(packetBytes):endtime 907.00007053000013
scalar OSPF_Suboptimal.host6.udp packetSent:vector(packetBytes):count 0
scalar OSPF_Suboptimal.host6.udp packetSent:vector(packetBytes):sum 0
scalar OSPF_Suboptimal.host6.udp packetSent:vector(packetBytes):sumweights 0
scalar OSPF_Suboptimal.host6.udp packetSent:vector(packetBytes):mean -nan
scalar OSPF_Suboptimal.host6.udp packetSent:vector(packetBytes):stddev nan
scalar OSPF_Suboptimal.host6.udp packetSent:vector(packetBytes):min inf
scalar OSPF_Suboptimal.host6.udp packetSent:vector(packetBytes):max -inf
scalar OSPF_Suboptimal.host6.udp packetSent:vector(packetBytes):starttime nan
scalar OSPF_Suboptimal.host6.udp packetSent:vector(packetBytes):endtime nan
scalar OSPF_Suboptimal.host6.udp packetReceived:vector(packetBytes):count 0
scalar OSPF_Suboptimal.host6.udp packetReceived:vector(packetBytes):sum 0
scalar OSPF_Suboptimal.host6.udp packetReceived:vector(packetBytes):sumweights 0
scalar OSPF_Suboptimal.host6.udp packetReceived:vector(packetBytes):mean -nan
scalar OSPF_Suboptimal.host6.udp packetReceived:vector(packetBytes):stddev nan
scalar OSPF_Suboptimal.host6.udp packetReceived:vector(packetBytes):min inf
scalar OSPF_Suboptimal.host6.udp packetReceived:vector(packetBytes):max -inf
scalar OSPF_Suboptimal.host6.udp packetReceived:vector(packetBytes):starttime nan
scalar OSPF_Suboptimal.host6.udp packetReceived:vector(packetBytes):endtime nan
scalar OSPF_Suboptimal.host6.udp passedUpPk:vector(count):count 1
scalar OSPF_Suboptimal.host6.udp passedUpPk:vector(count):sum 0
scalar OSPF_Suboptimal.host6.udp passedUpPk:vector(count):sumweights 1
scalar OSPF_Suboptimal.host6.udp passedUpPk:vector(count):mean 0
scalar OSPF_Suboptimal.host6.udp passedUpPk:vector(count):stddev nan
scalar OSPF_Suboptimal.host6.udp passedUpPk:vector(count):min 0
scalar OSPF_Suboptimal.host6.udp passedUpPk:vector(count):max 0
scalar OSPF_Suboptimal.host6.udp passedUpPk:vector(count):starttime 0
scalar OSPF_Suboptimal.host6.udp passedUpPk:vector(count):endtime 0
scalar OSPF_Suboptimal.host6.udp droppedPkWrongPort:vector(count):count 1
scalar OSPF_Suboptimal.host6.udp droppedPkWrongPort:vector(count):sum 0
scalar OSPF_Suboptimal.host6.udp droppedPkWrongPort:vector(count):sumweights 1
scalar OSPF_Suboptimal.host6.udp droppedPkWrongPort:vector(count):mean 0
scalar OSPF_Suboptimal.host6.udp droppedPkWrongPort:vector(count):stddev nan
scalar OSPF_Suboptimal.host6.udp droppedPkWrongPort:vector(count):min 0
scalar OSPF_Suboptimal.host6.udp droppedPkWrongPort:vector(count):max 0
scalar OSPF_Suboptimal.host6.udp droppedPkWrongPort:vector(count):starttime 0
scalar OSPF_Suboptimal.host6.udp droppedPkWrongPort:vector(count):endtime 0
scalar OSPF_Suboptimal.host6.udp droppedPkBadChecksum:vector(count):count 1
scalar OSPF_Suboptimal.host6.udp droppedPkBadChecksum:vector(count):sum 0
scalar OSPF_Suboptimal.host6.udp droppedPkBadChecksum:vector(count):sumweights 1
scalar OSPF_Suboptimal.host6.udp droppedPkBadChecksum:vector(count):mean 0
scalar OSPF_Suboptimal.host6.udp droppedPkBadChecksum:vector(count):stddev nan
scalar OSPF_Suboptimal.host6.udp droppedPkBadChecksum:vector(count):min 0
scalar OSPF_Suboptimal.host6.udp droppedPkBadChecksum:vector(count):max 0
scalar OSPF_Suboptimal.host6.udp droppedPkBadChecksum:vector(count):starttime 0
scalar OSPF_Suboptimal.host6.udp droppedPkBadChecksum:vector(count):endtime 0

