version 3
run Step7-0-20260206-18:07:24-122009
attr configname Step7
attr datetime 20260206-18:07:24
attr datetimef 20260206-180724
attr experiment Step7
attr inifile omnetpp.ini
attr iterationvars ""
attr iterationvarsd ""
attr iterationvarsf ""
attr measurement ""
attr network Network2
attr processid 122009
attr repetition 0
attr replication #0
attr resultdir results
attr runnumber 0
attr seedset 0
config **.param-recording false
config image-path /home/user/inet/images
config output-scalar-file results/omnetpp.ini-Step7-#0.sca
config output-scalar-precision 17
config output-vector-file results/omnetpp.ini-Step7-#0.vec
config output-vector-precision 17
config record-eventlog false
config sim-time-limit 1000s
config description "Influencing OSPF DR/BDR election"
config extends Step6
config *.R*.ospf.ospfConfig "xmldoc(\"ASConfig_priority.xml\")"
config description "OSPF DR/BDR election in a multi-access network (Ethernet)"
config network Network2
config *.configurator.config "xml(\"<config>                                 <interface hosts='**' address='10.x.x.x' netmask='255.255.255.x'/>                                 <route hosts='host*' destination='*' netmask='0.0.0.0' interface='eth0' />                              </config>\")"
config *.host0.numApps 1
config *.host0.app[0].typename PingApp
config *.host0.app[0].destAddr "\"host6\""
config *.host0.app[0].startTime 60s
config sim-time-limit 1000s
config **.ospf.cmdenv-log-level trace
config **.cmdenv-log-level off
config cmdenv-express-mode false
config *.pcapRecorder.moduleNamePatterns "\".^\""
config *.pcapRecorder.pcapFile "\"results/Step7-0.pcap\""
config **.checksumMode "\"computed\""
config **.fcsMode "\"computed\""
config *.*.ospf.displayStringTextFormat "\"routerID: {routerID}\\n{interfaces}\""
config *.R*.hasOspf true
config *.configurator.addStaticRoutes false
config *.visualizer.interfaceTableVisualizer[0].displayInterfaceTables true
config **.visualizer.interfaceTableVisualizer.nodeFilter "\"not fullPath =~ *.N**\""
config *.visualizer.interfaceTableVisualizer.displayInterfaceTables true
config *.visualizer.numRoutingTableVisualizers 2
config *.visualizer.routingTableVisualizer[*].displayRoutingTables true
config *.visualizer.routingTableVisualizer[0].destinationFilter "\"host6\""
config *.visualizer.routingTableVisualizer[1].destinationFilter "\"host0\""
config *.visualizer.routingTableVisualizer[*].nodeFilter "\"R* and not(N*)\""
config *.visualizer.routingTableVisualizer[0].lineColor "\"blue\""
config *.visualizer.routingTableVisualizer[1].lineColor "\"red\""
config *.visualizer.routingTableVisualizer[*].labelFormat "\"%d/%m (%e) -> %g (%n)\""
config *.visualizer.routingTableVisualizer[*].lineStyle "\"dashed\""
config *.visualizer**.infoVisualizer.displayInfos true
config *.visualizer**.infoVisualizer.modules "\"**ospf\""
config *.visualizer.networkRouteVisualizer[*].displayRoutes true
config *.visualizer.networkRouteVisualizer[*].packetFilter "\"ping* or Udp*\""
config *.visualizer.networkRouteVisualizer.displayRoutes true
config *.visualizer.networkRouteVisualizer.packetFilter "\"ping* or Udp*\""

scalar Network2.host0.ethernet pauseSent:count 0
scalar Network2.host0.ethernet pauseSent:sum 0
scalar Network2.host0.ethernet decapPk:count 1055
scalar Network2.host0.ethernet decapPk:sum(packetBytes) 86050
scalar Network2.host0.ethernet encapPk:count 956
scalar Network2.host0.ethernet encapPk:sum(packetBytes) 79464
scalar Network2.host0.lo[0].lo rcvdPkFromHl:count 0
scalar Network2.host0.lo[0].lo rcvdPkFromHl:sum(packetBytes) 0
scalar Network2.host0.lo[0].lo passedUpPk:count 0
scalar Network2.host0.lo[0].lo passedUpPk:sum(packetBytes) 0
scalar Network2.host0.lo[0] packetDropInterfaceDown:count 0
scalar Network2.host0.lo[0] packetDropInterfaceDown:sum(packetBytes) 0
scalar Network2.host0.lo[0] packetDropNoCarrier:count 0
scalar Network2.host0.lo[0] packetDropNoCarrier:sum(packetBytes) 0
scalar Network2.host0.eth[0].queue queueLength:last 0
scalar Network2.host0.eth[0].queue queueLength:max 0
scalar Network2.host0.eth[0].queue queueLength:timeavg 0
scalar Network2.host0.eth[0].queue queueBitLength:last 0
scalar Network2.host0.eth[0].queue queueBitLength:max 0
scalar Network2.host0.eth[0].queue queueBitLength:timeavg 0
scalar Network2.host0.eth[0].queue outgoingPackets:count 956
scalar Network2.host0.eth[0].queue outgoingPacketLengths:sum 773376
scalar Network2.host0.eth[0].queue incomingPackets:count 956
scalar Network2.host0.eth[0].queue incomingPacketLengths:sum 773376
scalar Network2.host0.eth[0].queue droppedPacketsQueueOverflow:count 0
scalar Network2.host0.eth[0].queue droppedPacketLengthsQueueOverflow:sum 0
scalar Network2.host0.eth[0].mac "simulated time" 1000
scalar Network2.host0.eth[0].mac full-duplex 1
scalar Network2.host0.eth[0].mac "frames/sec sent" 0.95499999999999996
scalar Network2.host0.eth[0].mac "frames/sec rcvd" 1.0549999999999999
scalar Network2.host0.eth[0].mac "bits/sec sent" 774.72000000000003
scalar Network2.host0.eth[0].mac "bits/sec rcvd" 840.32000000000005
scalar Network2.host0.eth[0].mac "rx channel idle (%)" 99.999092160000004
scalar Network2.host0.eth[0].mac "rx channel utilization (%)" 0.00090783999999999993
scalar Network2.host0.eth[0].mac rxPausePkUnits:count 0
scalar Network2.host0.eth[0].mac rxPausePkUnits:sum 0
scalar Network2.host0.eth[0].mac txPausePkUnits:count 0
scalar Network2.host0.eth[0].mac txPausePkUnits:sum 0
scalar Network2.host0.eth[0].mac rxPkOk:count 1055
scalar Network2.host0.eth[0].mac rxPkOk:sum(packetBytes) 105040
scalar Network2.host0.eth[0].mac txPk:count 955
scalar Network2.host0.eth[0].mac txPk:sum(packetBytes) 96840
scalar Network2.host0.eth[0].mac packetReceivedFromUpper:count 956
scalar Network2.host0.eth[0].mac packetReceivedFromUpper:sum(packetBytes) 96672
scalar Network2.host0.eth[0].mac passedUpPk:count 1055
scalar Network2.host0.eth[0].mac passedUpPk:sum(packetBytes) 105040
scalar Network2.host0.eth[0].mac packetDropIncorrectlyReceived:count 0
scalar Network2.host0.eth[0].mac packetDropIncorrectlyReceived:sum(packetBytes) 0
scalar Network2.host0.eth[0].mac packetDropInterfaceDown:count 0
scalar Network2.host0.eth[0].mac packetDropInterfaceDown:sum(packetBytes) 0
scalar Network2.host0.eth[0].mac packetDropNotAddressedToUs:count 0
scalar Network2.host0.eth[0].mac packetDropNotAddressedToUs:sum(packetBytes) 0
scalar Network2.host0.eth[0] packetDropInterfaceDown:count 0
scalar Network2.host0.eth[0] packetDropInterfaceDown:sum(packetBytes) 0
scalar Network2.host0.eth[0] packetDropNoCarrier:count 0
scalar Network2.host0.eth[0] packetDropNoCarrier:sum(packetBytes) 0
scalar Network2.host0.ipv4.ip packetDropAddressResolutionFailed:count 0
scalar Network2.host0.ipv4.ip packetDropAddressResolutionFailed:sum(packetBytes) 0
scalar Network2.host0.ipv4.ip packetDropHopLimitReached:count 0
scalar Network2.host0.ipv4.ip packetDropHopLimitReached:sum(packetBytes) 0
scalar Network2.host0.ipv4.ip packetDropForwardingDisabled:count 0
scalar Network2.host0.ipv4.ip packetDropForwardingDisabled:sum(packetBytes) 0
scalar Network2.host0.ipv4.ip packetDropLifetimeExpired:count 0
scalar Network2.host0.ipv4.ip packetDropLifetimeExpired:sum(packetBytes) 0
scalar Network2.host0.ipv4.ip packetDropNoInterfaceFound:count 0
scalar Network2.host0.ipv4.ip packetDropNoInterfaceFound:sum(packetBytes) 0
scalar Network2.host0.ipv4.ip packetDropNoRouteFound:count 0
scalar Network2.host0.ipv4.ip packetDropNoRouteFound:sum(packetBytes) 0
scalar Network2.host0.ipv4.ip packetDropUndefined:count 0
scalar Network2.host0.ipv4.ip packetDropUndefined:sum(packetBytes) 0
scalar Network2.host0.ipv4.arp arpResolutionFailed:count 0
scalar Network2.host0.ipv4.arp arpResolutionCompleted:count 15
scalar Network2.host0.ipv4.arp arpResolutionInitiated:count 8
scalar Network2.host0.ipv4.arp arpReplySent:count 7
scalar Network2.host0.ipv4.arp arpReplySent:sum(packetBytes) 196
scalar Network2.host0.ipv4.arp arpRequestSent:count 8
scalar Network2.host0.ipv4.arp arpRequestSent:sum(packetBytes) 224
scalar Network2.host0.udp packetReceived:count 0
scalar Network2.host0.udp packetReceived:sum(packetBytes) 0
scalar Network2.host0.udp packetSent:count 0
scalar Network2.host0.udp packetSent:sum(packetBytes) 0
scalar Network2.host0.udp passedUpPk:count 0
scalar Network2.host0.udp droppedPkWrongPort:count 0
scalar Network2.host0.udp droppedPkBadChecksum:count 0
scalar Network2.host0.app[0] "Pings sent" 941
scalar Network2.host0.app[0] "ping loss rate (%)" 0.10626992561105207
scalar Network2.host0.app[0] "ping out-of-order rate (%)" 0
scalar Network2.host0.app[0] pingRxSeq:count 940
scalar Network2.host0.app[0] pingTxSeq:count 941
scalar Network2.host0.app[0] numOutOfOrderArrivals:last nan
scalar Network2.host0.app[0] numLost:last nan
scalar Network2.host1.ethernet pauseSent:count 0
scalar Network2.host1.ethernet pauseSent:sum 0
scalar Network2.host1.ethernet decapPk:count 115
scalar Network2.host1.ethernet decapPk:sum(packetBytes) 7090
scalar Network2.host1.ethernet encapPk:count 0
scalar Network2.host1.ethernet encapPk:sum(packetBytes) 0
scalar Network2.host1.lo[0].lo rcvdPkFromHl:count 0
scalar Network2.host1.lo[0].lo rcvdPkFromHl:sum(packetBytes) 0
scalar Network2.host1.lo[0].lo passedUpPk:count 0
scalar Network2.host1.lo[0].lo passedUpPk:sum(packetBytes) 0
scalar Network2.host1.lo[0] packetDropInterfaceDown:count 0
scalar Network2.host1.lo[0] packetDropInterfaceDown:sum(packetBytes) 0
scalar Network2.host1.lo[0] packetDropNoCarrier:count 0
scalar Network2.host1.lo[0] packetDropNoCarrier:sum(packetBytes) 0
scalar Network2.host1.eth[0].queue queueLength:last 0
scalar Network2.host1.eth[0].queue queueLength:max 0
scalar Network2.host1.eth[0].queue queueLength:timeavg 0
scalar Network2.host1.eth[0].queue queueBitLength:last 0
scalar Network2.host1.eth[0].queue queueBitLength:max 0
scalar Network2.host1.eth[0].queue queueBitLength:timeavg 0
scalar Network2.host1.eth[0].queue outgoingPackets:count 0
scalar Network2.host1.eth[0].queue outgoingPacketLengths:sum 0
scalar Network2.host1.eth[0].queue incomingPackets:count 0
scalar Network2.host1.eth[0].queue incomingPacketLengths:sum 0
scalar Network2.host1.eth[0].queue droppedPacketsQueueOverflow:count 0
scalar Network2.host1.eth[0].queue droppedPacketLengthsQueueOverflow:sum 0
scalar Network2.host1.eth[0].mac "simulated time" 1000
scalar Network2.host1.eth[0].mac full-duplex 1
scalar Network2.host1.eth[0].mac "frames/sec sent" 0
scalar Network2.host1.eth[0].mac "frames/sec rcvd" 0.115
scalar Network2.host1.eth[0].mac "bits/sec sent" 0
scalar Network2.host1.eth[0].mac "bits/sec rcvd" 73.280000000000001
scalar Network2.host1.eth[0].mac "rx channel idle (%)" 99.999919360000007
scalar Network2.host1.eth[0].mac "rx channel utilization (%)" 8.064e-05
scalar Network2.host1.eth[0].mac rxPausePkUnits:count 0
scalar Network2.host1.eth[0].mac rxPausePkUnits:sum 0
scalar Network2.host1.eth[0].mac txPausePkUnits:count 0
scalar Network2.host1.eth[0].mac txPausePkUnits:sum 0
scalar Network2.host1.eth[0].mac rxPkOk:count 115
scalar Network2.host1.eth[0].mac rxPkOk:sum(packetBytes) 9160
scalar Network2.host1.eth[0].mac txPk:count 0
scalar Network2.host1.eth[0].mac txPk:sum(packetBytes) 0
scalar Network2.host1.eth[0].mac packetReceivedFromUpper:count 0
scalar Network2.host1.eth[0].mac packetReceivedFromUpper:sum(packetBytes) 0
scalar Network2.host1.eth[0].mac passedUpPk:count 115
scalar Network2.host1.eth[0].mac passedUpPk:sum(packetBytes) 9160
scalar Network2.host1.eth[0].mac packetDropIncorrectlyReceived:count 0
scalar Network2.host1.eth[0].mac packetDropIncorrectlyReceived:sum(packetBytes) 0
scalar Network2.host1.eth[0].mac packetDropInterfaceDown:count 0
scalar Network2.host1.eth[0].mac packetDropInterfaceDown:sum(packetBytes) 0
scalar Network2.host1.eth[0].mac packetDropNotAddressedToUs:count 0
scalar Network2.host1.eth[0].mac packetDropNotAddressedToUs:sum(packetBytes) 0
scalar Network2.host1.eth[0] packetDropInterfaceDown:count 0
scalar Network2.host1.eth[0] packetDropInterfaceDown:sum(packetBytes) 0
scalar Network2.host1.eth[0] packetDropNoCarrier:count 0
scalar Network2.host1.eth[0] packetDropNoCarrier:sum(packetBytes) 0
scalar Network2.host1.ipv4.ip packetDropAddressResolutionFailed:count 0
scalar Network2.host1.ipv4.ip packetDropAddressResolutionFailed:sum(packetBytes) 0
scalar Network2.host1.ipv4.ip packetDropHopLimitReached:count 0
scalar Network2.host1.ipv4.ip packetDropHopLimitReached:sum(packetBytes) 0
scalar Network2.host1.ipv4.ip packetDropForwardingDisabled:count 0
scalar Network2.host1.ipv4.ip packetDropForwardingDisabled:sum(packetBytes) 0
scalar Network2.host1.ipv4.ip packetDropLifetimeExpired:count 0
scalar Network2.host1.ipv4.ip packetDropLifetimeExpired:sum(packetBytes) 0
scalar Network2.host1.ipv4.ip packetDropNoInterfaceFound:count 0
scalar Network2.host1.ipv4.ip packetDropNoInterfaceFound:sum(packetBytes) 0
scalar Network2.host1.ipv4.ip packetDropNoRouteFound:count 0
scalar Network2.host1.ipv4.ip packetDropNoRouteFound:sum(packetBytes) 0
scalar Network2.host1.ipv4.ip packetDropUndefined:count 0
scalar Network2.host1.ipv4.ip packetDropUndefined:sum(packetBytes) 0
scalar Network2.host1.ipv4.arp arpResolutionFailed:count 0
scalar Network2.host1.ipv4.arp arpResolutionCompleted:count 0
scalar Network2.host1.ipv4.arp arpResolutionInitiated:count 0
scalar Network2.host1.ipv4.arp arpReplySent:count 0
scalar Network2.host1.ipv4.arp arpReplySent:sum(packetBytes) 0
scalar Network2.host1.ipv4.arp arpRequestSent:count 0
scalar Network2.host1.ipv4.arp arpRequestSent:sum(packetBytes) 0
scalar Network2.host1.udp packetReceived:count 0
scalar Network2.host1.udp packetReceived:sum(packetBytes) 0
scalar Network2.host1.udp packetSent:count 0
scalar Network2.host1.udp packetSent:sum(packetBytes) 0
scalar Network2.host1.udp passedUpPk:count 0
scalar Network2.host1.udp droppedPkWrongPort:count 0
scalar Network2.host1.udp droppedPkBadChecksum:count 0
scalar Network2.host2.ethernet pauseSent:count 0
scalar Network2.host2.ethernet pauseSent:sum 0
scalar Network2.host2.ethernet decapPk:count 115
scalar Network2.host2.ethernet decapPk:sum(packetBytes) 7090
scalar Network2.host2.ethernet encapPk:count 0
scalar Network2.host2.ethernet encapPk:sum(packetBytes) 0
scalar Network2.host2.lo[0].lo rcvdPkFromHl:count 0
scalar Network2.host2.lo[0].lo rcvdPkFromHl:sum(packetBytes) 0
scalar Network2.host2.lo[0].lo passedUpPk:count 0
scalar Network2.host2.lo[0].lo passedUpPk:sum(packetBytes) 0
scalar Network2.host2.lo[0] packetDropInterfaceDown:count 0
scalar Network2.host2.lo[0] packetDropInterfaceDown:sum(packetBytes) 0
scalar Network2.host2.lo[0] packetDropNoCarrier:count 0
scalar Network2.host2.lo[0] packetDropNoCarrier:sum(packetBytes) 0
scalar Network2.host2.eth[0].queue queueLength:last 0
scalar Network2.host2.eth[0].queue queueLength:max 0
scalar Network2.host2.eth[0].queue queueLength:timeavg 0
scalar Network2.host2.eth[0].queue queueBitLength:last 0
scalar Network2.host2.eth[0].queue queueBitLength:max 0
scalar Network2.host2.eth[0].queue queueBitLength:timeavg 0
scalar Network2.host2.eth[0].queue outgoingPackets:count 0
scalar Network2.host2.eth[0].queue outgoingPacketLengths:sum 0
scalar Network2.host2.eth[0].queue incomingPackets:count 0
scalar Network2.host2.eth[0].queue incomingPacketLengths:sum 0
scalar Network2.host2.eth[0].queue droppedPacketsQueueOverflow:count 0
scalar Network2.host2.eth[0].queue droppedPacketLengthsQueueOverflow:sum 0
scalar Network2.host2.eth[0].mac "simulated time" 1000
scalar Network2.host2.eth[0].mac full-duplex 1
scalar Network2.host2.eth[0].mac "frames/sec sent" 0
scalar Network2.host2.eth[0].mac "frames/sec rcvd" 0.115
scalar Network2.host2.eth[0].mac "bits/sec sent" 0
scalar Network2.host2.eth[0].mac "bits/sec rcvd" 73.280000000000001
scalar Network2.host2.eth[0].mac "rx channel idle (%)" 99.999919360000007
scalar Network2.host2.eth[0].mac "rx channel utilization (%)" 8.064e-05
scalar Network2.host2.eth[0].mac rxPausePkUnits:count 0
scalar Network2.host2.eth[0].mac rxPausePkUnits:sum 0
scalar Network2.host2.eth[0].mac txPausePkUnits:count 0
scalar Network2.host2.eth[0].mac txPausePkUnits:sum 0
scalar Network2.host2.eth[0].mac rxPkOk:count 115
scalar Network2.host2.eth[0].mac rxPkOk:sum(packetBytes) 9160
scalar Network2.host2.eth[0].mac txPk:count 0
scalar Network2.host2.eth[0].mac txPk:sum(packetBytes) 0
scalar Network2.host2.eth[0].mac packetReceivedFromUpper:count 0
scalar Network2.host2.eth[0].mac packetReceivedFromUpper:sum(packetBytes) 0
scalar Network2.host2.eth[0].mac passedUpPk:count 115
scalar Network2.host2.eth[0].mac passedUpPk:sum(packetBytes) 9160
scalar Network2.host2.eth[0].mac packetDropIncorrectlyReceived:count 0
scalar Network2.host2.eth[0].mac packetDropIncorrectlyReceived:sum(packetBytes) 0
scalar Network2.host2.eth[0].mac packetDropInterfaceDown:count 0
scalar Network2.host2.eth[0].mac packetDropInterfaceDown:sum(packetBytes) 0
scalar Network2.host2.eth[0].mac packetDropNotAddressedToUs:count 0
scalar Network2.host2.eth[0].mac packetDropNotAddressedToUs:sum(packetBytes) 0
scalar Network2.host2.eth[0] packetDropInterfaceDown:count 0
scalar Network2.host2.eth[0] packetDropInterfaceDown:sum(packetBytes) 0
scalar Network2.host2.eth[0] packetDropNoCarrier:count 0
scalar Network2.host2.eth[0] packetDropNoCarrier:sum(packetBytes) 0
scalar Network2.host2.ipv4.ip packetDropAddressResolutionFailed:count 0
scalar Network2.host2.ipv4.ip packetDropAddressResolutionFailed:sum(packetBytes) 0
scalar Network2.host2.ipv4.ip packetDropHopLimitReached:count 0
scalar Network2.host2.ipv4.ip packetDropHopLimitReached:sum(packetBytes) 0
scalar Network2.host2.ipv4.ip packetDropForwardingDisabled:count 0
scalar Network2.host2.ipv4.ip packetDropForwardingDisabled:sum(packetBytes) 0
scalar Network2.host2.ipv4.ip packetDropLifetimeExpired:count 0
scalar Network2.host2.ipv4.ip packetDropLifetimeExpired:sum(packetBytes) 0
scalar Network2.host2.ipv4.ip packetDropNoInterfaceFound:count 0
scalar Network2.host2.ipv4.ip packetDropNoInterfaceFound:sum(packetBytes) 0
scalar Network2.host2.ipv4.ip packetDropNoRouteFound:count 0
scalar Network2.host2.ipv4.ip packetDropNoRouteFound:sum(packetBytes) 0
scalar Network2.host2.ipv4.ip packetDropUndefined:count 0
scalar Network2.host2.ipv4.ip packetDropUndefined:sum(packetBytes) 0
scalar Network2.host2.ipv4.arp arpResolutionFailed:count 0
scalar Network2.host2.ipv4.arp arpResolutionCompleted:count 0
scalar Network2.host2.ipv4.arp arpResolutionInitiated:count 0
scalar Network2.host2.ipv4.arp arpReplySent:count 0
scalar Network2.host2.ipv4.arp arpReplySent:sum(packetBytes) 0
scalar Network2.host2.ipv4.arp arpRequestSent:count 0
scalar Network2.host2.ipv4.arp arpRequestSent:sum(packetBytes) 0
scalar Network2.host2.udp packetReceived:count 0
scalar Network2.host2.udp packetReceived:sum(packetBytes) 0
scalar Network2.host2.udp packetSent:count 0
scalar Network2.host2.udp packetSent:sum(packetBytes) 0
scalar Network2.host2.udp passedUpPk:count 0
scalar Network2.host2.udp droppedPkWrongPort:count 0
scalar Network2.host2.udp droppedPkBadChecksum:count 0
scalar Network2.R1.ethernet pauseSent:count 0
scalar Network2.R1.ethernet pauseSent:sum 0
scalar Network2.R1.ethernet decapPk:count 3073
scalar Network2.R1.ethernet decapPk:sum(packetBytes) 252240
scalar Network2.R1.ethernet encapPk:count 2625
scalar Network2.R1.ethernet encapPk:sum(packetBytes) 203452
scalar Network2.R1.lo[0].lo rcvdPkFromHl:count 0
scalar Network2.R1.lo[0].lo rcvdPkFromHl:sum(packetBytes) 0
scalar Network2.R1.lo[0].lo passedUpPk:count 0
scalar Network2.R1.lo[0].lo passedUpPk:sum(packetBytes) 0
scalar Network2.R1.lo[0] packetDropInterfaceDown:count 0
scalar Network2.R1.lo[0] packetDropInterfaceDown:sum(packetBytes) 0
scalar Network2.R1.lo[0] packetDropNoCarrier:count 0
scalar Network2.R1.lo[0] packetDropNoCarrier:sum(packetBytes) 0
scalar Network2.R1.eth[0].queue queueLength:last 0
scalar Network2.R1.eth[0].queue queueLength:max 0
scalar Network2.R1.eth[0].queue queueLength:timeavg 0
scalar Network2.R1.eth[0].queue queueBitLength:last 0
scalar Network2.R1.eth[0].queue queueBitLength:max 0
scalar Network2.R1.eth[0].queue queueBitLength:timeavg 0
scalar Network2.R1.eth[0].queue outgoingPackets:count 1055
scalar Network2.R1.eth[0].queue outgoingPacketLengths:sum 838160
scalar Network2.R1.eth[0].queue incomingPackets:count 1055
scalar Network2.R1.eth[0].queue incomingPacketLengths:sum 838160
scalar Network2.R1.eth[0].queue droppedPacketsQueueOverflow:count 0
scalar Network2.R1.eth[0].queue droppedPacketLengthsQueueOverflow:sum 0
scalar Network2.R1.eth[0].mac "simulated time" 1000
scalar Network2.R1.eth[0].mac full-duplex 1
scalar Network2.R1.eth[0].mac "frames/sec sent" 1.0549999999999999
scalar Network2.R1.eth[0].mac "frames/sec rcvd" 0.95499999999999996
scalar Network2.R1.eth[0].mac "bits/sec sent" 840.32000000000005
scalar Network2.R1.eth[0].mac "bits/sec rcvd" 774.72000000000003
scalar Network2.R1.eth[0].mac "rx channel idle (%)" 99.999164159999992
scalar Network2.R1.eth[0].mac "rx channel utilization (%)" 0.00083583999999999991
scalar Network2.R1.eth[0].mac rxPausePkUnits:count 0
scalar Network2.R1.eth[0].mac rxPausePkUnits:sum 0
scalar Network2.R1.eth[0].mac txPausePkUnits:count 0
scalar Network2.R1.eth[0].mac txPausePkUnits:sum 0
scalar Network2.R1.eth[0].mac rxPkOk:count 955
scalar Network2.R1.eth[0].mac rxPkOk:sum(packetBytes) 96840
scalar Network2.R1.eth[0].mac txPk:count 1055
scalar Network2.R1.eth[0].mac txPk:sum(packetBytes) 105040
scalar Network2.R1.eth[0].mac packetReceivedFromUpper:count 1055
scalar Network2.R1.eth[0].mac packetReceivedFromUpper:sum(packetBytes) 104770
scalar Network2.R1.eth[0].mac passedUpPk:count 955
scalar Network2.R1.eth[0].mac passedUpPk:sum(packetBytes) 96840
scalar Network2.R1.eth[0].mac packetDropIncorrectlyReceived:count 0
scalar Network2.R1.eth[0].mac packetDropIncorrectlyReceived:sum(packetBytes) 0
scalar Network2.R1.eth[0].mac packetDropInterfaceDown:count 0
scalar Network2.R1.eth[0].mac packetDropInterfaceDown:sum(packetBytes) 0
scalar Network2.R1.eth[0].mac packetDropNotAddressedToUs:count 0
scalar Network2.R1.eth[0].mac packetDropNotAddressedToUs:sum(packetBytes) 0
scalar Network2.R1.eth[0] packetDropInterfaceDown:count 0
scalar Network2.R1.eth[0] packetDropInterfaceDown:sum(packetBytes) 0
scalar Network2.R1.eth[0] packetDropNoCarrier:count 0
scalar Network2.R1.eth[0] packetDropNoCarrier:sum(packetBytes) 0
scalar Network2.R1.eth[1].queue queueLength:last 0
scalar Network2.R1.eth[1].queue queueLength:max 5
scalar Network2.R1.eth[1].queue queueLength:timeavg 2.6462400000000123e-06
scalar Network2.R1.eth[1].queue queueBitLength:last 0
scalar Network2.R1.eth[1].queue queueBitLength:max 4560
scalar Network2.R1.eth[1].queue queueBitLength:timeavg 0.0018280166400000059
scalar Network2.R1.eth[1].queue outgoingPackets:count 1570
scalar Network2.R1.eth[1].queue outgoingPacketLengths:sum 1167456
scalar Network2.R1.eth[1].queue incomingPackets:count 1570
scalar Network2.R1.eth[1].queue incomingPacketLengths:sum 1167456
scalar Network2.R1.eth[1].queue droppedPacketsQueueOverflow:count 0
scalar Network2.R1.eth[1].queue droppedPacketLengthsQueueOverflow:sum 0
scalar Network2.R1.eth[1].mac "simulated time" 1000
scalar Network2.R1.eth[1].mac full-duplex 1
scalar Network2.R1.eth[1].mac "frames/sec sent" 1.5700000000000001
scalar Network2.R1.eth[1].mac "frames/sec rcvd" 2.1179999999999999
scalar Network2.R1.eth[1].mac "bits/sec sent" 1171.3440000000001
scalar Network2.R1.eth[1].mac "bits/sec rcvd" 1685.712
scalar Network2.R1.eth[1].mac "rx channel idle (%)" 99.998178736
scalar Network2.R1.eth[1].mac "rx channel utilization (%)" 0.001821264
scalar Network2.R1.eth[1].mac rxPausePkUnits:count 0
scalar Network2.R1.eth[1].mac rxPausePkUnits:sum 0
scalar Network2.R1.eth[1].mac txPausePkUnits:count 0
scalar Network2.R1.eth[1].mac txPausePkUnits:sum 0
scalar Network2.R1.eth[1].mac rxPkOk:count 2118
scalar Network2.R1.eth[1].mac rxPkOk:sum(packetBytes) 210714
scalar Network2.R1.eth[1].mac txPk:count 1570
scalar Network2.R1.eth[1].mac txPk:sum(packetBytes) 146418
scalar Network2.R1.eth[1].mac packetReceivedFromUpper:count 1570
scalar Network2.R1.eth[1].mac packetReceivedFromUpper:sum(packetBytes) 145932
scalar Network2.R1.eth[1].mac passedUpPk:count 2118
scalar Network2.R1.eth[1].mac passedUpPk:sum(packetBytes) 210714
scalar Network2.R1.eth[1].mac packetDropIncorrectlyReceived:count 0
scalar Network2.R1.eth[1].mac packetDropIncorrectlyReceived:sum(packetBytes) 0
scalar Network2.R1.eth[1].mac packetDropInterfaceDown:count 0
scalar Network2.R1.eth[1].mac packetDropInterfaceDown:sum(packetBytes) 0
scalar Network2.R1.eth[1].mac packetDropNotAddressedToUs:count 0
scalar Network2.R1.eth[1].mac packetDropNotAddressedToUs:sum(packetBytes) 0
scalar Network2.R1.eth[1] packetDropInterfaceDown:count 0
scalar Network2.R1.eth[1] packetDropInterfaceDown:sum(packetBytes) 0
scalar Network2.R1.eth[1] packetDropNoCarrier:count 0
scalar Network2.R1.eth[1] packetDropNoCarrier:sum(packetBytes) 0
scalar Network2.R1.ipv4.ip packetDropAddressResolutionFailed:count 0
scalar Network2.R1.ipv4.ip packetDropAddressResolutionFailed:sum(packetBytes) 0
scalar Network2.R1.ipv4.ip packetDropHopLimitReached:count 0
scalar Network2.R1.ipv4.ip packetDropHopLimitReached:sum(packetBytes) 0
scalar Network2.R1.ipv4.ip packetDropForwardingDisabled:count 0
scalar Network2.R1.ipv4.ip packetDropForwardingDisabled:sum(packetBytes) 0
scalar Network2.R1.ipv4.ip packetDropLifetimeExpired:count 0
scalar Network2.R1.ipv4.ip packetDropLifetimeExpired:sum(packetBytes) 0
scalar Network2.R1.ipv4.ip packetDropNoInterfaceFound:count 0
scalar Network2.R1.ipv4.ip packetDropNoInterfaceFound:sum(packetBytes) 0
scalar Network2.R1.ipv4.ip packetDropNoRouteFound:count 0
scalar Network2.R1.ipv4.ip packetDropNoRouteFound:sum(packetBytes) 0
scalar Network2.R1.ipv4.ip packetDropUndefined:count 0
scalar Network2.R1.ipv4.ip packetDropUndefined:sum(packetBytes) 0
scalar Network2.R1.ipv4.arp arpResolutionFailed:count 0
scalar Network2.R1.ipv4.arp arpResolutionCompleted:count 56
scalar Network2.R1.ipv4.arp arpResolutionInitiated:count 29
scalar Network2.R1.ipv4.arp arpReplySent:count 13
scalar Network2.R1.ipv4.arp arpReplySent:sum(packetBytes) 364
scalar Network2.R1.ipv4.arp arpRequestSent:count 29
scalar Network2.R1.ipv4.arp arpRequestSent:sum(packetBytes) 812
scalar Network2.R2.ethernet pauseSent:count 0
scalar Network2.R2.ethernet pauseSent:sum 0
scalar Network2.R2.ethernet decapPk:count 1143
scalar Network2.R2.ethernet decapPk:sum(packetBytes) 91594
scalar Network2.R2.ethernet encapPk:count 733
scalar Network2.R2.ethernet encapPk:sum(packetBytes) 45452
scalar Network2.R2.lo[0].lo rcvdPkFromHl:count 0
scalar Network2.R2.lo[0].lo rcvdPkFromHl:sum(packetBytes) 0
scalar Network2.R2.lo[0].lo passedUpPk:count 0
scalar Network2.R2.lo[0].lo passedUpPk:sum(packetBytes) 0
scalar Network2.R2.lo[0] packetDropInterfaceDown:count 0
scalar Network2.R2.lo[0] packetDropInterfaceDown:sum(packetBytes) 0
scalar Network2.R2.lo[0] packetDropNoCarrier:count 0
scalar Network2.R2.lo[0] packetDropNoCarrier:sum(packetBytes) 0
scalar Network2.R2.eth[0].queue queueLength:last 0
scalar Network2.R2.eth[0].queue queueLength:max 0
scalar Network2.R2.eth[0].queue queueLength:timeavg 0
scalar Network2.R2.eth[0].queue queueBitLength:last 0
scalar Network2.R2.eth[0].queue queueBitLength:max 0
scalar Network2.R2.eth[0].queue queueBitLength:timeavg 0
scalar Network2.R2.eth[0].queue outgoingPackets:count 100
scalar Network2.R2.eth[0].queue outgoingPacketLengths:sum 65600
scalar Network2.R2.eth[0].queue incomingPackets:count 100
scalar Network2.R2.eth[0].queue incomingPacketLengths:sum 65600
scalar Network2.R2.eth[0].queue droppedPacketsQueueOverflow:count 0
scalar Network2.R2.eth[0].queue droppedPacketLengthsQueueOverflow:sum 0
scalar Network2.R2.eth[0].mac "simulated time" 1000
scalar Network2.R2.eth[0].mac full-duplex 1
scalar Network2.R2.eth[0].mac "frames/sec sent" 0.10000000000000001
scalar Network2.R2.eth[0].mac "frames/sec rcvd" 0
scalar Network2.R2.eth[0].mac "bits/sec sent" 65.599999999999994
scalar Network2.R2.eth[0].mac "bits/sec rcvd" 0
scalar Network2.R2.eth[0].mac "rx channel idle (%)" 100
scalar Network2.R2.eth[0].mac "rx channel utilization (%)" 0
scalar Network2.R2.eth[0].mac rxPausePkUnits:count 0
scalar Network2.R2.eth[0].mac rxPausePkUnits:sum 0
scalar Network2.R2.eth[0].mac txPausePkUnits:count 0
scalar Network2.R2.eth[0].mac txPausePkUnits:sum 0
scalar Network2.R2.eth[0].mac rxPkOk:count 0
scalar Network2.R2.eth[0].mac rxPkOk:sum(packetBytes) 0
scalar Network2.R2.eth[0].mac txPk:count 100
scalar Network2.R2.eth[0].mac txPk:sum(packetBytes) 8200
scalar Network2.R2.eth[0].mac packetReceivedFromUpper:count 100
scalar Network2.R2.eth[0].mac packetReceivedFromUpper:sum(packetBytes) 8200
scalar Network2.R2.eth[0].mac passedUpPk:count 0
scalar Network2.R2.eth[0].mac passedUpPk:sum(packetBytes) 0
scalar Network2.R2.eth[0].mac packetDropIncorrectlyReceived:count 0
scalar Network2.R2.eth[0].mac packetDropIncorrectlyReceived:sum(packetBytes) 0
scalar Network2.R2.eth[0].mac packetDropInterfaceDown:count 0
scalar Network2.R2.eth[0].mac packetDropInterfaceDown:sum(packetBytes) 0
scalar Network2.R2.eth[0].mac packetDropNotAddressedToUs:count 0
scalar Network2.R2.eth[0].mac packetDropNotAddressedToUs:sum(packetBytes) 0
scalar Network2.R2.eth[0] packetDropInterfaceDown:count 0
scalar Network2.R2.eth[0] packetDropInterfaceDown:sum(packetBytes) 0
scalar Network2.R2.eth[0] packetDropNoCarrier:count 0
scalar Network2.R2.eth[0] packetDropNoCarrier:sum(packetBytes) 0
scalar Network2.R2.eth[1].queue queueLength:last 0
scalar Network2.R2.eth[1].queue queueLength:max 5
scalar Network2.R2.eth[1].queue queueLength:timeavg 2.4635200000000075e-06
scalar Network2.R2.eth[1].queue queueBitLength:last 0
scalar Network2.R2.eth[1].queue queueBitLength:max 4560
scalar Network2.R2.eth[1].queue queueBitLength:timeavg 0.0016518732800000064
scalar Network2.R2.eth[1].queue outgoingPackets:count 633
scalar Network2.R2.eth[1].queue outgoingPacketLengths:sum 403568
scalar Network2.R2.eth[1].queue incomingPackets:count 633
scalar Network2.R2.eth[1].queue incomingPacketLengths:sum 403568
scalar Network2.R2.eth[1].queue droppedPacketsQueueOverflow:count 0
scalar Network2.R2.eth[1].queue droppedPacketLengthsQueueOverflow:sum 0
scalar Network2.R2.eth[1].mac "simulated time" 1000
scalar Network2.R2.eth[1].mac full-duplex 1
scalar Network2.R2.eth[1].mac "frames/sec sent" 0.63300000000000001
scalar Network2.R2.eth[1].mac "frames/sec rcvd" 1.143
scalar Network2.R2.eth[1].mac "bits/sec sent" 406.30399999999997
scalar Network2.R2.eth[1].mac "bits/sec rcvd" 897.34400000000005
scalar Network2.R2.eth[1].mac "rx channel idle (%)" 99.999029504000006
scalar Network2.R2.eth[1].mac "rx channel utilization (%)" 0.00097049599999999995
scalar Network2.R2.eth[1].mac rxPausePkUnits:count 0
scalar Network2.R2.eth[1].mac rxPausePkUnits:sum 0
scalar Network2.R2.eth[1].mac txPausePkUnits:count 0
scalar Network2.R2.eth[1].mac txPausePkUnits:sum 0
scalar Network2.R2.eth[1].mac rxPkOk:count 1143
scalar Network2.R2.eth[1].mac rxPkOk:sum(packetBytes) 112168
scalar Network2.R2.eth[1].mac txPk:count 633
scalar Network2.R2.eth[1].mac txPk:sum(packetBytes) 50788
scalar Network2.R2.eth[1].mac packetReceivedFromUpper:count 633
scalar Network2.R2.eth[1].mac packetReceivedFromUpper:sum(packetBytes) 50446
scalar Network2.R2.eth[1].mac passedUpPk:count 1143
scalar Network2.R2.eth[1].mac passedUpPk:sum(packetBytes) 112168
scalar Network2.R2.eth[1].mac packetDropIncorrectlyReceived:count 0
scalar Network2.R2.eth[1].mac packetDropIncorrectlyReceived:sum(packetBytes) 0
scalar Network2.R2.eth[1].mac packetDropInterfaceDown:count 0
scalar Network2.R2.eth[1].mac packetDropInterfaceDown:sum(packetBytes) 0
scalar Network2.R2.eth[1].mac packetDropNotAddressedToUs:count 0
scalar Network2.R2.eth[1].mac packetDropNotAddressedToUs:sum(packetBytes) 0
scalar Network2.R2.eth[1] packetDropInterfaceDown:count 0
scalar Network2.R2.eth[1] packetDropInterfaceDown:sum(packetBytes) 0
scalar Network2.R2.eth[1] packetDropNoCarrier:count 0
scalar Network2.R2.eth[1] packetDropNoCarrier:sum(packetBytes) 0
scalar Network2.R2.ipv4.ip packetDropAddressResolutionFailed:count 0
scalar Network2.R2.ipv4.ip packetDropAddressResolutionFailed:sum(packetBytes) 0
scalar Network2.R2.ipv4.ip packetDropHopLimitReached:count 0
scalar Network2.R2.ipv4.ip packetDropHopLimitReached:sum(packetBytes) 0
scalar Network2.R2.ipv4.ip packetDropForwardingDisabled:count 0
scalar Network2.R2.ipv4.ip packetDropForwardingDisabled:sum(packetBytes) 0
scalar Network2.R2.ipv4.ip packetDropLifetimeExpired:count 0
scalar Network2.R2.ipv4.ip packetDropLifetimeExpired:sum(packetBytes) 0
scalar Network2.R2.ipv4.ip packetDropNoInterfaceFound:count 0
scalar Network2.R2.ipv4.ip packetDropNoInterfaceFound:sum(packetBytes) 0
scalar Network2.R2.ipv4.ip packetDropNoRouteFound:count 0
scalar Network2.R2.ipv4.ip packetDropNoRouteFound:sum(packetBytes) 0
scalar Network2.R2.ipv4.ip packetDropUndefined:count 0
scalar Network2.R2.ipv4.ip packetDropUndefined:sum(packetBytes) 0
scalar Network2.R2.ipv4.arp arpResolutionFailed:count 0
scalar Network2.R2.ipv4.arp arpResolutionCompleted:count 45
scalar Network2.R2.ipv4.arp arpResolutionInitiated:count 15
scalar Network2.R2.ipv4.arp arpReplySent:count 4
scalar Network2.R2.ipv4.arp arpReplySent:sum(packetBytes) 112
scalar Network2.R2.ipv4.arp arpRequestSent:count 15
scalar Network2.R2.ipv4.arp arpRequestSent:sum(packetBytes) 420
scalar Network2.host3.ethernet pauseSent:count 0
scalar Network2.host3.ethernet pauseSent:sum 0
scalar Network2.host3.ethernet decapPk:count 100
scalar Network2.host3.ethernet decapPk:sum(packetBytes) 6400
scalar Network2.host3.ethernet encapPk:count 0
scalar Network2.host3.ethernet encapPk:sum(packetBytes) 0
scalar Network2.host3.lo[0].lo rcvdPkFromHl:count 0
scalar Network2.host3.lo[0].lo rcvdPkFromHl:sum(packetBytes) 0
scalar Network2.host3.lo[0].lo passedUpPk:count 0
scalar Network2.host3.lo[0].lo passedUpPk:sum(packetBytes) 0
scalar Network2.host3.lo[0] packetDropInterfaceDown:count 0
scalar Network2.host3.lo[0] packetDropInterfaceDown:sum(packetBytes) 0
scalar Network2.host3.lo[0] packetDropNoCarrier:count 0
scalar Network2.host3.lo[0] packetDropNoCarrier:sum(packetBytes) 0
scalar Network2.host3.eth[0].queue queueLength:last 0
scalar Network2.host3.eth[0].queue queueLength:max 0
scalar Network2.host3.eth[0].queue queueLength:timeavg 0
scalar Network2.host3.eth[0].queue queueBitLength:last 0
scalar Network2.host3.eth[0].queue queueBitLength:max 0
scalar Network2.host3.eth[0].queue queueBitLength:timeavg 0
scalar Network2.host3.eth[0].queue outgoingPackets:count 0
scalar Network2.host3.eth[0].queue outgoingPacketLengths:sum 0
scalar Network2.host3.eth[0].queue incomingPackets:count 0
scalar Network2.host3.eth[0].queue incomingPacketLengths:sum 0
scalar Network2.host3.eth[0].queue droppedPacketsQueueOverflow:count 0
scalar Network2.host3.eth[0].queue droppedPacketLengthsQueueOverflow:sum 0
scalar Network2.host3.eth[0].mac "simulated time" 1000
scalar Network2.host3.eth[0].mac full-duplex 1
scalar Network2.host3.eth[0].mac "frames/sec sent" 0
scalar Network2.host3.eth[0].mac "frames/sec rcvd" 0.10000000000000001
scalar Network2.host3.eth[0].mac "bits/sec sent" 0
scalar Network2.host3.eth[0].mac "bits/sec rcvd" 65.599999999999994
scalar Network2.host3.eth[0].mac "rx channel idle (%)" 99.999928000000011
scalar Network2.host3.eth[0].mac "rx channel utilization (%)" 7.2000000000000002e-05
scalar Network2.host3.eth[0].mac rxPausePkUnits:count 0
scalar Network2.host3.eth[0].mac rxPausePkUnits:sum 0
scalar Network2.host3.eth[0].mac txPausePkUnits:count 0
scalar Network2.host3.eth[0].mac txPausePkUnits:sum 0
scalar Network2.host3.eth[0].mac rxPkOk:count 100
scalar Network2.host3.eth[0].mac rxPkOk:sum(packetBytes) 8200
scalar Network2.host3.eth[0].mac txPk:count 0
scalar Network2.host3.eth[0].mac txPk:sum(packetBytes) 0
scalar Network2.host3.eth[0].mac packetReceivedFromUpper:count 0
scalar Network2.host3.eth[0].mac packetReceivedFromUpper:sum(packetBytes) 0
scalar Network2.host3.eth[0].mac passedUpPk:count 100
scalar Network2.host3.eth[0].mac passedUpPk:sum(packetBytes) 8200
scalar Network2.host3.eth[0].mac packetDropIncorrectlyReceived:count 0
scalar Network2.host3.eth[0].mac packetDropIncorrectlyReceived:sum(packetBytes) 0
scalar Network2.host3.eth[0].mac packetDropInterfaceDown:count 0
scalar Network2.host3.eth[0].mac packetDropInterfaceDown:sum(packetBytes) 0
scalar Network2.host3.eth[0].mac packetDropNotAddressedToUs:count 0
scalar Network2.host3.eth[0].mac packetDropNotAddressedToUs:sum(packetBytes) 0
scalar Network2.host3.eth[0] packetDropInterfaceDown:count 0
scalar Network2.host3.eth[0] packetDropInterfaceDown:sum(packetBytes) 0
scalar Network2.host3.eth[0] packetDropNoCarrier:count 0
scalar Network2.host3.eth[0] packetDropNoCarrier:sum(packetBytes) 0
scalar Network2.host3.ipv4.ip packetDropAddressResolutionFailed:count 0
scalar Network2.host3.ipv4.ip packetDropAddressResolutionFailed:sum(packetBytes) 0
scalar Network2.host3.ipv4.ip packetDropHopLimitReached:count 0
scalar Network2.host3.ipv4.ip packetDropHopLimitReached:sum(packetBytes) 0
scalar Network2.host3.ipv4.ip packetDropForwardingDisabled:count 0
scalar Network2.host3.ipv4.ip packetDropForwardingDisabled:sum(packetBytes) 0
scalar Network2.host3.ipv4.ip packetDropLifetimeExpired:count 0
scalar Network2.host3.ipv4.ip packetDropLifetimeExpired:sum(packetBytes) 0
scalar Network2.host3.ipv4.ip packetDropNoInterfaceFound:count 0
scalar Network2.host3.ipv4.ip packetDropNoInterfaceFound:sum(packetBytes) 0
scalar Network2.host3.ipv4.ip packetDropNoRouteFound:count 0
scalar Network2.host3.ipv4.ip packetDropNoRouteFound:sum(packetBytes) 0
scalar Network2.host3.ipv4.ip packetDropUndefined:count 0
scalar Network2.host3.ipv4.ip packetDropUndefined:sum(packetBytes) 0
scalar Network2.host3.ipv4.arp arpResolutionFailed:count 0
scalar Network2.host3.ipv4.arp arpResolutionCompleted:count 0
scalar Network2.host3.ipv4.arp arpResolutionInitiated:count 0
scalar Network2.host3.ipv4.arp arpReplySent:count 0
scalar Network2.host3.ipv4.arp arpReplySent:sum(packetBytes) 0
scalar Network2.host3.ipv4.arp arpRequestSent:count 0
scalar Network2.host3.ipv4.arp arpRequestSent:sum(packetBytes) 0
scalar Network2.host3.udp packetReceived:count 0
scalar Network2.host3.udp packetReceived:sum(packetBytes) 0
scalar Network2.host3.udp packetSent:count 0
scalar Network2.host3.udp packetSent:sum(packetBytes) 0
scalar Network2.host3.udp passedUpPk:count 0
scalar Network2.host3.udp droppedPkWrongPort:count 0
scalar Network2.host3.udp droppedPkBadChecksum:count 0
scalar Network2.host4.ethernet pauseSent:count 0
scalar Network2.host4.ethernet pauseSent:sum 0
scalar Network2.host4.ethernet decapPk:count 100
scalar Network2.host4.ethernet decapPk:sum(packetBytes) 6400
scalar Network2.host4.ethernet encapPk:count 0
scalar Network2.host4.ethernet encapPk:sum(packetBytes) 0
scalar Network2.host4.lo[0].lo rcvdPkFromHl:count 0
scalar Network2.host4.lo[0].lo rcvdPkFromHl:sum(packetBytes) 0
scalar Network2.host4.lo[0].lo passedUpPk:count 0
scalar Network2.host4.lo[0].lo passedUpPk:sum(packetBytes) 0
scalar Network2.host4.lo[0] packetDropInterfaceDown:count 0
scalar Network2.host4.lo[0] packetDropInterfaceDown:sum(packetBytes) 0
scalar Network2.host4.lo[0] packetDropNoCarrier:count 0
scalar Network2.host4.lo[0] packetDropNoCarrier:sum(packetBytes) 0
scalar Network2.host4.eth[0].queue queueLength:last 0
scalar Network2.host4.eth[0].queue queueLength:max 0
scalar Network2.host4.eth[0].queue queueLength:timeavg 0
scalar Network2.host4.eth[0].queue queueBitLength:last 0
scalar Network2.host4.eth[0].queue queueBitLength:max 0
scalar Network2.host4.eth[0].queue queueBitLength:timeavg 0
scalar Network2.host4.eth[0].queue outgoingPackets:count 0
scalar Network2.host4.eth[0].queue outgoingPacketLengths:sum 0
scalar Network2.host4.eth[0].queue incomingPackets:count 0
scalar Network2.host4.eth[0].queue incomingPacketLengths:sum 0
scalar Network2.host4.eth[0].queue droppedPacketsQueueOverflow:count 0
scalar Network2.host4.eth[0].queue droppedPacketLengthsQueueOverflow:sum 0
scalar Network2.host4.eth[0].mac "simulated time" 1000
scalar Network2.host4.eth[0].mac full-duplex 1
scalar Network2.host4.eth[0].mac "frames/sec sent" 0
scalar Network2.host4.eth[0].mac "frames/sec rcvd" 0.10000000000000001
scalar Network2.host4.eth[0].mac "bits/sec sent" 0
scalar Network2.host4.eth[0].mac "bits/sec rcvd" 65.599999999999994
scalar Network2.host4.eth[0].mac "rx channel idle (%)" 99.999928000000011
scalar Network2.host4.eth[0].mac "rx channel utilization (%)" 7.2000000000000002e-05
scalar Network2.host4.eth[0].mac rxPausePkUnits:count 0
scalar Network2.host4.eth[0].mac rxPausePkUnits:sum 0
scalar Network2.host4.eth[0].mac txPausePkUnits:count 0
scalar Network2.host4.eth[0].mac txPausePkUnits:sum 0
scalar Network2.host4.eth[0].mac rxPkOk:count 100
scalar Network2.host4.eth[0].mac rxPkOk:sum(packetBytes) 8200
scalar Network2.host4.eth[0].mac txPk:count 0
scalar Network2.host4.eth[0].mac txPk:sum(packetBytes) 0
scalar Network2.host4.eth[0].mac packetReceivedFromUpper:count 0
scalar Network2.host4.eth[0].mac packetReceivedFromUpper:sum(packetBytes) 0
scalar Network2.host4.eth[0].mac passedUpPk:count 100
scalar Network2.host4.eth[0].mac passedUpPk:sum(packetBytes) 8200
scalar Network2.host4.eth[0].mac packetDropIncorrectlyReceived:count 0
scalar Network2.host4.eth[0].mac packetDropIncorrectlyReceived:sum(packetBytes) 0
scalar Network2.host4.eth[0].mac packetDropInterfaceDown:count 0
scalar Network2.host4.eth[0].mac packetDropInterfaceDown:sum(packetBytes) 0
scalar Network2.host4.eth[0].mac packetDropNotAddressedToUs:count 0
scalar Network2.host4.eth[0].mac packetDropNotAddressedToUs:sum(packetBytes) 0
scalar Network2.host4.eth[0] packetDropInterfaceDown:count 0
scalar Network2.host4.eth[0] packetDropInterfaceDown:sum(packetBytes) 0
scalar Network2.host4.eth[0] packetDropNoCarrier:count 0
scalar Network2.host4.eth[0] packetDropNoCarrier:sum(packetBytes) 0
scalar Network2.host4.ipv4.ip packetDropAddressResolutionFailed:count 0
scalar Network2.host4.ipv4.ip packetDropAddressResolutionFailed:sum(packetBytes) 0
scalar Network2.host4.ipv4.ip packetDropHopLimitReached:count 0
scalar Network2.host4.ipv4.ip packetDropHopLimitReached:sum(packetBytes) 0
scalar Network2.host4.ipv4.ip packetDropForwardingDisabled:count 0
scalar Network2.host4.ipv4.ip packetDropForwardingDisabled:sum(packetBytes) 0
scalar Network2.host4.ipv4.ip packetDropLifetimeExpired:count 0
scalar Network2.host4.ipv4.ip packetDropLifetimeExpired:sum(packetBytes) 0
scalar Network2.host4.ipv4.ip packetDropNoInterfaceFound:count 0
scalar Network2.host4.ipv4.ip packetDropNoInterfaceFound:sum(packetBytes) 0
scalar Network2.host4.ipv4.ip packetDropNoRouteFound:count 0
scalar Network2.host4.ipv4.ip packetDropNoRouteFound:sum(packetBytes) 0
scalar Network2.host4.ipv4.ip packetDropUndefined:count 0
scalar Network2.host4.ipv4.ip packetDropUndefined:sum(packetBytes) 0
scalar Network2.host4.ipv4.arp arpResolutionFailed:count 0
scalar Network2.host4.ipv4.arp arpResolutionCompleted:count 0
scalar Network2.host4.ipv4.arp arpResolutionInitiated:count 0
scalar Network2.host4.ipv4.arp arpReplySent:count 0
scalar Network2.host4.ipv4.arp arpReplySent:sum(packetBytes) 0
scalar Network2.host4.ipv4.arp arpRequestSent:count 0
scalar Network2.host4.ipv4.arp arpRequestSent:sum(packetBytes) 0
scalar Network2.host4.udp packetReceived:count 0
scalar Network2.host4.udp packetReceived:sum(packetBytes) 0
scalar Network2.host4.udp packetSent:count 0
scalar Network2.host4.udp packetSent:sum(packetBytes) 0
scalar Network2.host4.udp passedUpPk:count 0
scalar Network2.host4.udp droppedPkWrongPort:count 0
scalar Network2.host4.udp droppedPkBadChecksum:count 0
scalar Network2.host5.ethernet pauseSent:count 0
scalar Network2.host5.ethernet pauseSent:sum 0
scalar Network2.host5.ethernet decapPk:count 100
scalar Network2.host5.ethernet decapPk:sum(packetBytes) 6400
scalar Network2.host5.ethernet encapPk:count 0
scalar Network2.host5.ethernet encapPk:sum(packetBytes) 0
scalar Network2.host5.lo[0].lo rcvdPkFromHl:count 0
scalar Network2.host5.lo[0].lo rcvdPkFromHl:sum(packetBytes) 0
scalar Network2.host5.lo[0].lo passedUpPk:count 0
scalar Network2.host5.lo[0].lo passedUpPk:sum(packetBytes) 0
scalar Network2.host5.lo[0] packetDropInterfaceDown:count 0
scalar Network2.host5.lo[0] packetDropInterfaceDown:sum(packetBytes) 0
scalar Network2.host5.lo[0] packetDropNoCarrier:count 0
scalar Network2.host5.lo[0] packetDropNoCarrier:sum(packetBytes) 0
scalar Network2.host5.eth[0].queue queueLength:last 0
scalar Network2.host5.eth[0].queue queueLength:max 0
scalar Network2.host5.eth[0].queue queueLength:timeavg 0
scalar Network2.host5.eth[0].queue queueBitLength:last 0
scalar Network2.host5.eth[0].queue queueBitLength:max 0
scalar Network2.host5.eth[0].queue queueBitLength:timeavg 0
scalar Network2.host5.eth[0].queue outgoingPackets:count 0
scalar Network2.host5.eth[0].queue outgoingPacketLengths:sum 0
scalar Network2.host5.eth[0].queue incomingPackets:count 0
scalar Network2.host5.eth[0].queue incomingPacketLengths:sum 0
scalar Network2.host5.eth[0].queue droppedPacketsQueueOverflow:count 0
scalar Network2.host5.eth[0].queue droppedPacketLengthsQueueOverflow:sum 0
scalar Network2.host5.eth[0].mac "simulated time" 1000
scalar Network2.host5.eth[0].mac full-duplex 1
scalar Network2.host5.eth[0].mac "frames/sec sent" 0
scalar Network2.host5.eth[0].mac "frames/sec rcvd" 0.10000000000000001
scalar Network2.host5.eth[0].mac "bits/sec sent" 0
scalar Network2.host5.eth[0].mac "bits/sec rcvd" 65.599999999999994
scalar Network2.host5.eth[0].mac "rx channel idle (%)" 99.999928000000011
scalar Network2.host5.eth[0].mac "rx channel utilization (%)" 7.2000000000000002e-05
scalar Network2.host5.eth[0].mac rxPausePkUnits:count 0
scalar Network2.host5.eth[0].mac rxPausePkUnits:sum 0
scalar Network2.host5.eth[0].mac txPausePkUnits:count 0
scalar Network2.host5.eth[0].mac txPausePkUnits:sum 0
scalar Network2.host5.eth[0].mac rxPkOk:count 100
scalar Network2.host5.eth[0].mac rxPkOk:sum(packetBytes) 8200
scalar Network2.host5.eth[0].mac txPk:count 0
scalar Network2.host5.eth[0].mac txPk:sum(packetBytes) 0
scalar Network2.host5.eth[0].mac packetReceivedFromUpper:count 0
scalar Network2.host5.eth[0].mac packetReceivedFromUpper:sum(packetBytes) 0
scalar Network2.host5.eth[0].mac passedUpPk:count 100
scalar Network2.host5.eth[0].mac passedUpPk:sum(packetBytes) 8200
scalar Network2.host5.eth[0].mac packetDropIncorrectlyReceived:count 0
scalar Network2.host5.eth[0].mac packetDropIncorrectlyReceived:sum(packetBytes) 0
scalar Network2.host5.eth[0].mac packetDropInterfaceDown:count 0
scalar Network2.host5.eth[0].mac packetDropInterfaceDown:sum(packetBytes) 0
scalar Network2.host5.eth[0].mac packetDropNotAddressedToUs:count 0
scalar Network2.host5.eth[0].mac packetDropNotAddressedToUs:sum(packetBytes) 0
scalar Network2.host5.eth[0] packetDropInterfaceDown:count 0
scalar Network2.host5.eth[0] packetDropInterfaceDown:sum(packetBytes) 0
scalar Network2.host5.eth[0] packetDropNoCarrier:count 0
scalar Network2.host5.eth[0] packetDropNoCarrier:sum(packetBytes) 0
scalar Network2.host5.ipv4.ip packetDropAddressResolutionFailed:count 0
scalar Network2.host5.ipv4.ip packetDropAddressResolutionFailed:sum(packetBytes) 0
scalar Network2.host5.ipv4.ip packetDropHopLimitReached:count 0
scalar Network2.host5.ipv4.ip packetDropHopLimitReached:sum(packetBytes) 0
scalar Network2.host5.ipv4.ip packetDropForwardingDisabled:count 0
scalar Network2.host5.ipv4.ip packetDropForwardingDisabled:sum(packetBytes) 0
scalar Network2.host5.ipv4.ip packetDropLifetimeExpired:count 0
scalar Network2.host5.ipv4.ip packetDropLifetimeExpired:sum(packetBytes) 0
scalar Network2.host5.ipv4.ip packetDropNoInterfaceFound:count 0
scalar Network2.host5.ipv4.ip packetDropNoInterfaceFound:sum(packetBytes) 0
scalar Network2.host5.ipv4.ip packetDropNoRouteFound:count 0
scalar Network2.host5.ipv4.ip packetDropNoRouteFound:sum(packetBytes) 0
scalar Network2.host5.ipv4.ip packetDropUndefined:count 0
scalar Network2.host5.ipv4.ip packetDropUndefined:sum(packetBytes) 0
scalar Network2.host5.ipv4.arp arpResolutionFailed:count 0
scalar Network2.host5.ipv4.arp arpResolutionCompleted:count 0
scalar Network2.host5.ipv4.arp arpResolutionInitiated:count 0
scalar Network2.host5.ipv4.arp arpReplySent:count 0
scalar Network2.host5.ipv4.arp arpReplySent:sum(packetBytes) 0
scalar Network2.host5.ipv4.arp arpRequestSent:count 0
scalar Network2.host5.ipv4.arp arpRequestSent:sum(packetBytes) 0
scalar Network2.host5.udp packetReceived:count 0
scalar Network2.host5.udp packetReceived:sum(packetBytes) 0
scalar Network2.host5.udp packetSent:count 0
scalar Network2.host5.udp packetSent:sum(packetBytes) 0
scalar Network2.host5.udp passedUpPk:count 0
scalar Network2.host5.udp droppedPkWrongPort:count 0
scalar Network2.host5.udp droppedPkBadChecksum:count 0
scalar Network2.switch1.bridging "processed frames" 0
scalar Network2.switch1.bridging "discarded frames" 0
scalar Network2.switch1.bridging "number of received BPDUs from STP module" 0
scalar Network2.switch1.bridging "number of received frames from network (including BPDUs)" 2010
scalar Network2.switch1.bridging "number of dropped frames (including BPDUs)" 0
scalar Network2.switch1.bridging "number of delivered BPDUs to the STP module" 0
scalar Network2.switch1.bridging "number of dispatched BPDU frames to the network" 0
scalar Network2.switch1.bridging "number of dispatched non-BDPU frames to the network" 0
scalar Network2.switch1.bridging packetDropped:count 0
scalar Network2.switch1.bridging packetDropped:sum(packetBytes) 0
scalar Network2.switch1.ethernet pauseSent:count 0
scalar Network2.switch1.ethernet pauseSent:sum 0
scalar Network2.switch1.ethernet decapPk:count 2010
scalar Network2.switch1.ethernet decapPk:sum(packetBytes) 165700
scalar Network2.switch1.ethernet encapPk:count 2240
scalar Network2.switch1.ethernet encapPk:sum(packetBytes) 179880
scalar Network2.switch1.eth[0].queue queueLength:last 0
scalar Network2.switch1.eth[0].queue queueLength:max 0
scalar Network2.switch1.eth[0].queue queueLength:timeavg 0
scalar Network2.switch1.eth[0].queue queueBitLength:last 0
scalar Network2.switch1.eth[0].queue queueBitLength:max 0
scalar Network2.switch1.eth[0].queue queueBitLength:timeavg 0
scalar Network2.switch1.eth[0].queue outgoingPackets:count 115
scalar Network2.switch1.eth[0].queue outgoingPacketLengths:sum 73280
scalar Network2.switch1.eth[0].queue incomingPackets:count 115
scalar Network2.switch1.eth[0].queue incomingPacketLengths:sum 73280
scalar Network2.switch1.eth[0].queue droppedPacketsQueueOverflow:count 0
scalar Network2.switch1.eth[0].queue droppedPacketLengthsQueueOverflow:sum 0
scalar Network2.switch1.eth[0].mac "simulated time" 1000
scalar Network2.switch1.eth[0].mac full-duplex 1
scalar Network2.switch1.eth[0].mac "frames/sec sent" 0.115
scalar Network2.switch1.eth[0].mac "frames/sec rcvd" 0
scalar Network2.switch1.eth[0].mac "bits/sec sent" 73.280000000000001
scalar Network2.switch1.eth[0].mac "bits/sec rcvd" 0
scalar Network2.switch1.eth[0].mac "rx channel idle (%)" 100
scalar Network2.switch1.eth[0].mac "rx channel utilization (%)" 0
scalar Network2.switch1.eth[0].mac rxPausePkUnits:count 0
scalar Network2.switch1.eth[0].mac rxPausePkUnits:sum 0
scalar Network2.switch1.eth[0].mac txPausePkUnits:count 0
scalar Network2.switch1.eth[0].mac txPausePkUnits:sum 0
scalar Network2.switch1.eth[0].mac rxPkOk:count 0
scalar Network2.switch1.eth[0].mac rxPkOk:sum(packetBytes) 0
scalar Network2.switch1.eth[0].mac txPk:count 115
scalar Network2.switch1.eth[0].mac txPk:sum(packetBytes) 9160
scalar Network2.switch1.eth[0].mac packetReceivedFromUpper:count 115
scalar Network2.switch1.eth[0].mac packetReceivedFromUpper:sum(packetBytes) 9160
scalar Network2.switch1.eth[0].mac passedUpPk:count 0
scalar Network2.switch1.eth[0].mac passedUpPk:sum(packetBytes) 0
scalar Network2.switch1.eth[0].mac packetDropIncorrectlyReceived:count 0
scalar Network2.switch1.eth[0].mac packetDropIncorrectlyReceived:sum(packetBytes) 0
scalar Network2.switch1.eth[0].mac packetDropInterfaceDown:count 0
scalar Network2.switch1.eth[0].mac packetDropInterfaceDown:sum(packetBytes) 0
scalar Network2.switch1.eth[0].mac packetDropNotAddressedToUs:count 0
scalar Network2.switch1.eth[0].mac packetDropNotAddressedToUs:sum(packetBytes) 0
scalar Network2.switch1.eth[0] packetDropInterfaceDown:count 0
scalar Network2.switch1.eth[0] packetDropInterfaceDown:sum(packetBytes) 0
scalar Network2.switch1.eth[0] packetDropNoCarrier:count 0
scalar Network2.switch1.eth[0] packetDropNoCarrier:sum(packetBytes) 0
scalar Network2.switch1.eth[1].queue queueLength:last 0
scalar Network2.switch1.eth[1].queue queueLength:max 0
scalar Network2.switch1.eth[1].queue queueLength:timeavg 0
scalar Network2.switch1.eth[1].queue queueBitLength:last 0
scalar Network2.switch1.eth[1].queue queueBitLength:max 0
scalar Network2.switch1.eth[1].queue queueBitLength:timeavg 0
scalar Network2.switch1.eth[1].queue outgoingPackets:count 115
scalar Network2.switch1.eth[1].queue outgoingPacketLengths:sum 73280
scalar Network2.switch1.eth[1].queue incomingPackets:count 115
scalar Network2.switch1.eth[1].queue incomingPacketLengths:sum 73280
scalar Network2.switch1.eth[1].queue droppedPacketsQueueOverflow:count 0
scalar Network2.switch1.eth[1].queue droppedPacketLengthsQueueOverflow:sum 0
scalar Network2.switch1.eth[1].mac "simulated time" 1000
scalar Network2.switch1.eth[1].mac full-duplex 1
scalar Network2.switch1.eth[1].mac "frames/sec sent" 0.115
scalar Network2.switch1.eth[1].mac "frames/sec rcvd" 0
scalar Network2.switch1.eth[1].mac "bits/sec sent" 73.280000000000001
scalar Network2.switch1.eth[1].mac "bits/sec rcvd" 0
scalar Network2.switch1.eth[1].mac "rx channel idle (%)" 100
scalar Network2.switch1.eth[1].mac "rx channel utilization (%)" 0
scalar Network2.switch1.eth[1].mac rxPausePkUnits:count 0
scalar Network2.switch1.eth[1].mac rxPausePkUnits:sum 0
scalar Network2.switch1.eth[1].mac txPausePkUnits:count 0
scalar Network2.switch1.eth[1].mac txPausePkUnits:sum 0
scalar Network2.switch1.eth[1].mac rxPkOk:count 0
scalar Network2.switch1.eth[1].mac rxPkOk:sum(packetBytes) 0
scalar Network2.switch1.eth[1].mac txPk:count 115
scalar Network2.switch1.eth[1].mac txPk:sum(packetBytes) 9160
scalar Network2.switch1.eth[1].mac packetReceivedFromUpper:count 115
scalar Network2.switch1.eth[1].mac packetReceivedFromUpper:sum(packetBytes) 9160
scalar Network2.switch1.eth[1].mac passedUpPk:count 0
scalar Network2.switch1.eth[1].mac passedUpPk:sum(packetBytes) 0
scalar Network2.switch1.eth[1].mac packetDropIncorrectlyReceived:count 0
scalar Network2.switch1.eth[1].mac packetDropIncorrectlyReceived:sum(packetBytes) 0
scalar Network2.switch1.eth[1].mac packetDropInterfaceDown:count 0
scalar Network2.switch1.eth[1].mac packetDropInterfaceDown:sum(packetBytes) 0
scalar Network2.switch1.eth[1].mac packetDropNotAddressedToUs:count 0
scalar Network2.switch1.eth[1].mac packetDropNotAddressedToUs:sum(packetBytes) 0
scalar Network2.switch1.eth[1] packetDropInterfaceDown:count 0
scalar Network2.switch1.eth[1] packetDropInterfaceDown:sum(packetBytes) 0
scalar Network2.switch1.eth[1] packetDropNoCarrier:count 0
scalar Network2.switch1.eth[1] packetDropNoCarrier:sum(packetBytes) 0
scalar Network2.switch1.eth[2].queue queueLength:last 0
scalar Network2.switch1.eth[2].queue queueLength:max 0
scalar Network2.switch1.eth[2].queue queueLength:timeavg 0
scalar Network2.switch1.eth[2].queue queueBitLength:last 0
scalar Network2.switch1.eth[2].queue queueBitLength:max 0
scalar Network2.switch1.eth[2].queue queueBitLength:timeavg 0
scalar Network2.switch1.eth[2].queue outgoingPackets:count 1055
scalar Network2.switch1.eth[2].queue outgoingPacketLengths:sum 840320
scalar Network2.switch1.eth[2].queue incomingPackets:count 1055
scalar Network2.switch1.eth[2].queue incomingPacketLengths:sum 840320
scalar Network2.switch1.eth[2].queue droppedPacketsQueueOverflow:count 0
scalar Network2.switch1.eth[2].queue droppedPacketLengthsQueueOverflow:sum 0
scalar Network2.switch1.eth[2].mac "simulated time" 1000
scalar Network2.switch1.eth[2].mac full-duplex 1
scalar Network2.switch1.eth[2].mac "frames/sec sent" 1.0549999999999999
scalar Network2.switch1.eth[2].mac "frames/sec rcvd" 0.95499999999999996
scalar Network2.switch1.eth[2].mac "bits/sec sent" 840.32000000000005
scalar Network2.switch1.eth[2].mac "bits/sec rcvd" 774.72000000000003
scalar Network2.switch1.eth[2].mac "rx channel idle (%)" 99.999164159999992
scalar Network2.switch1.eth[2].mac "rx channel utilization (%)" 0.00083583999999999991
scalar Network2.switch1.eth[2].mac rxPausePkUnits:count 0
scalar Network2.switch1.eth[2].mac rxPausePkUnits:sum 0
scalar Network2.switch1.eth[2].mac txPausePkUnits:count 0
scalar Network2.switch1.eth[2].mac txPausePkUnits:sum 0
scalar Network2.switch1.eth[2].mac rxPkOk:count 955
scalar Network2.switch1.eth[2].mac rxPkOk:sum(packetBytes) 96840
scalar Network2.switch1.eth[2].mac txPk:count 1055
scalar Network2.switch1.eth[2].mac txPk:sum(packetBytes) 105040
scalar Network2.switch1.eth[2].mac packetReceivedFromUpper:count 1055
scalar Network2.switch1.eth[2].mac packetReceivedFromUpper:sum(packetBytes) 105040
scalar Network2.switch1.eth[2].mac passedUpPk:count 955
scalar Network2.switch1.eth[2].mac passedUpPk:sum(packetBytes) 96840
scalar Network2.switch1.eth[2].mac packetDropIncorrectlyReceived:count 0
scalar Network2.switch1.eth[2].mac packetDropIncorrectlyReceived:sum(packetBytes) 0
scalar Network2.switch1.eth[2].mac packetDropInterfaceDown:count 0
scalar Network2.switch1.eth[2].mac packetDropInterfaceDown:sum(packetBytes) 0
scalar Network2.switch1.eth[2].mac packetDropNotAddressedToUs:count 0
scalar Network2.switch1.eth[2].mac packetDropNotAddressedToUs:sum(packetBytes) 0
scalar Network2.switch1.eth[2] packetDropInterfaceDown:count 0
scalar Network2.switch1.eth[2] packetDropInterfaceDown:sum(packetBytes) 0
scalar Network2.switch1.eth[2] packetDropNoCarrier:count 0
scalar Network2.switch1.eth[2] packetDropNoCarrier:sum(packetBytes) 0
scalar Network2.switch1.eth[3].queue queueLength:last 0
scalar Network2.switch1.eth[3].queue queueLength:max 0
scalar Network2.switch1.eth[3].queue queueLength:timeavg 0
scalar Network2.switch1.eth[3].queue queueBitLength:last 0
scalar Network2.switch1.eth[3].queue queueBitLength:max 0
scalar Network2.switch1.eth[3].queue queueBitLength:timeavg 0
scalar Network2.switch1.eth[3].queue outgoingPackets:count 955
scalar Network2.switch1.eth[3].queue outgoingPacketLengths:sum 774720
scalar Network2.switch1.eth[3].queue incomingPackets:count 955
scalar Network2.switch1.eth[3].queue incomingPacketLengths:sum 774720
scalar Network2.switch1.eth[3].queue droppedPacketsQueueOverflow:count 0
scalar Network2.switch1.eth[3].queue droppedPacketLengthsQueueOverflow:sum 0
scalar Network2.switch1.eth[3].mac "simulated time" 1000
scalar Network2.switch1.eth[3].mac full-duplex 1
scalar Network2.switch1.eth[3].mac "frames/sec sent" 0.95499999999999996
scalar Network2.switch1.eth[3].mac "frames/sec rcvd" 1.0549999999999999
scalar Network2.switch1.eth[3].mac "bits/sec sent" 774.72000000000003
scalar Network2.switch1.eth[3].mac "bits/sec rcvd" 840.32000000000005
scalar Network2.switch1.eth[3].mac "rx channel idle (%)" 99.999092160000004
scalar Network2.switch1.eth[3].mac "rx channel utilization (%)" 0.00090783999999999993
scalar Network2.switch1.eth[3].mac rxPausePkUnits:count 0
scalar Network2.switch1.eth[3].mac rxPausePkUnits:sum 0
scalar Network2.switch1.eth[3].mac txPausePkUnits:count 0
scalar Network2.switch1.eth[3].mac txPausePkUnits:sum 0
scalar Network2.switch1.eth[3].mac rxPkOk:count 1055
scalar Network2.switch1.eth[3].mac rxPkOk:sum(packetBytes) 105040
scalar Network2.switch1.eth[3].mac txPk:count 955
scalar Network2.switch1.eth[3].mac txPk:sum(packetBytes) 96840
scalar Network2.switch1.eth[3].mac packetReceivedFromUpper:count 955
scalar Network2.switch1.eth[3].mac packetReceivedFromUpper:sum(packetBytes) 96840
scalar Network2.switch1.eth[3].mac passedUpPk:count 1055
scalar Network2.switch1.eth[3].mac passedUpPk:sum(packetBytes) 105040
scalar Network2.switch1.eth[3].mac packetDropIncorrectlyReceived:count 0
scalar Network2.switch1.eth[3].mac packetDropIncorrectlyReceived:sum(packetBytes) 0
scalar Network2.switch1.eth[3].mac packetDropInterfaceDown:count 0
scalar Network2.switch1.eth[3].mac packetDropInterfaceDown:sum(packetBytes) 0
scalar Network2.switch1.eth[3].mac packetDropNotAddressedToUs:count 0
scalar Network2.switch1.eth[3].mac packetDropNotAddressedToUs:sum(packetBytes) 0
scalar Network2.switch1.eth[3] packetDropInterfaceDown:count 0
scalar Network2.switch1.eth[3] packetDropInterfaceDown:sum(packetBytes) 0
scalar Network2.switch1.eth[3] packetDropNoCarrier:count 0
scalar Network2.switch1.eth[3] packetDropNoCarrier:sum(packetBytes) 0
scalar Network2.switch3.bridging "processed frames" 0
scalar Network2.switch3.bridging "discarded frames" 0
scalar Network2.switch3.bridging "number of received BPDUs from STP module" 0
scalar Network2.switch3.bridging "number of received frames from network (including BPDUs)" 100
scalar Network2.switch3.bridging "number of dropped frames (including BPDUs)" 0
scalar Network2.switch3.bridging "number of delivered BPDUs to the STP module" 0
scalar Network2.switch3.bridging "number of dispatched BPDU frames to the network" 0
scalar Network2.switch3.bridging "number of dispatched non-BDPU frames to the network" 0
scalar Network2.switch3.bridging packetDropped:count 0
scalar Network2.switch3.bridging packetDropped:sum(packetBytes) 0
scalar Network2.switch3.ethernet pauseSent:count 0
scalar Network2.switch3.ethernet pauseSent:sum 0
scalar Network2.switch3.ethernet decapPk:count 100
scalar Network2.switch3.ethernet decapPk:sum(packetBytes) 6400
scalar Network2.switch3.ethernet encapPk:count 300
scalar Network2.switch3.ethernet encapPk:sum(packetBytes) 19200
scalar Network2.switch3.eth[0].queue queueLength:last 0
scalar Network2.switch3.eth[0].queue queueLength:max 0
scalar Network2.switch3.eth[0].queue queueLength:timeavg 0
scalar Network2.switch3.eth[0].queue queueBitLength:last 0
scalar Network2.switch3.eth[0].queue queueBitLength:max 0
scalar Network2.switch3.eth[0].queue queueBitLength:timeavg 0
scalar Network2.switch3.eth[0].queue outgoingPackets:count 100
scalar Network2.switch3.eth[0].queue outgoingPacketLengths:sum 65600
scalar Network2.switch3.eth[0].queue incomingPackets:count 100
scalar Network2.switch3.eth[0].queue incomingPacketLengths:sum 65600
scalar Network2.switch3.eth[0].queue droppedPacketsQueueOverflow:count 0
scalar Network2.switch3.eth[0].queue droppedPacketLengthsQueueOverflow:sum 0
scalar Network2.switch3.eth[0].mac "simulated time" 1000
scalar Network2.switch3.eth[0].mac full-duplex 1
scalar Network2.switch3.eth[0].mac "frames/sec sent" 0.10000000000000001
scalar Network2.switch3.eth[0].mac "frames/sec rcvd" 0
scalar Network2.switch3.eth[0].mac "bits/sec sent" 65.599999999999994
scalar Network2.switch3.eth[0].mac "bits/sec rcvd" 0
scalar Network2.switch3.eth[0].mac "rx channel idle (%)" 100
scalar Network2.switch3.eth[0].mac "rx channel utilization (%)" 0
scalar Network2.switch3.eth[0].mac rxPausePkUnits:count 0
scalar Network2.switch3.eth[0].mac rxPausePkUnits:sum 0
scalar Network2.switch3.eth[0].mac txPausePkUnits:count 0
scalar Network2.switch3.eth[0].mac txPausePkUnits:sum 0
scalar Network2.switch3.eth[0].mac rxPkOk:count 0
scalar Network2.switch3.eth[0].mac rxPkOk:sum(packetBytes) 0
scalar Network2.switch3.eth[0].mac txPk:count 100
scalar Network2.switch3.eth[0].mac txPk:sum(packetBytes) 8200
scalar Network2.switch3.eth[0].mac packetReceivedFromUpper:count 100
scalar Network2.switch3.eth[0].mac packetReceivedFromUpper:sum(packetBytes) 8200
scalar Network2.switch3.eth[0].mac passedUpPk:count 0
scalar Network2.switch3.eth[0].mac passedUpPk:sum(packetBytes) 0
scalar Network2.switch3.eth[0].mac packetDropIncorrectlyReceived:count 0
scalar Network2.switch3.eth[0].mac packetDropIncorrectlyReceived:sum(packetBytes) 0
scalar Network2.switch3.eth[0].mac packetDropInterfaceDown:count 0
scalar Network2.switch3.eth[0].mac packetDropInterfaceDown:sum(packetBytes) 0
scalar Network2.switch3.eth[0].mac packetDropNotAddressedToUs:count 0
scalar Network2.switch3.eth[0].mac packetDropNotAddressedToUs:sum(packetBytes) 0
scalar Network2.switch3.eth[0] packetDropInterfaceDown:count 0
scalar Network2.switch3.eth[0] packetDropInterfaceDown:sum(packetBytes) 0
scalar Network2.switch3.eth[0] packetDropNoCarrier:count 0
scalar Network2.switch3.eth[0] packetDropNoCarrier:sum(packetBytes) 0
scalar Network2.switch3.eth[1].queue queueLength:last 0
scalar Network2.switch3.eth[1].queue queueLength:max 0
scalar Network2.switch3.eth[1].queue queueLength:timeavg 0
scalar Network2.switch3.eth[1].queue queueBitLength:last 0
scalar Network2.switch3.eth[1].queue queueBitLength:max 0
scalar Network2.switch3.eth[1].queue queueBitLength:timeavg 0
scalar Network2.switch3.eth[1].queue outgoingPackets:count 100
scalar Network2.switch3.eth[1].queue outgoingPacketLengths:sum 65600
scalar Network2.switch3.eth[1].queue incomingPackets:count 100
scalar Network2.switch3.eth[1].queue incomingPacketLengths:sum 65600
scalar Network2.switch3.eth[1].queue droppedPacketsQueueOverflow:count 0
scalar Network2.switch3.eth[1].queue droppedPacketLengthsQueueOverflow:sum 0
scalar Network2.switch3.eth[1].mac "simulated time" 1000
scalar Network2.switch3.eth[1].mac full-duplex 1
scalar Network2.switch3.eth[1].mac "frames/sec sent" 0.10000000000000001
scalar Network2.switch3.eth[1].mac "frames/sec rcvd" 0
scalar Network2.switch3.eth[1].mac "bits/sec sent" 65.599999999999994
scalar Network2.switch3.eth[1].mac "bits/sec rcvd" 0
scalar Network2.switch3.eth[1].mac "rx channel idle (%)" 100
scalar Network2.switch3.eth[1].mac "rx channel utilization (%)" 0
scalar Network2.switch3.eth[1].mac rxPausePkUnits:count 0
scalar Network2.switch3.eth[1].mac rxPausePkUnits:sum 0
scalar Network2.switch3.eth[1].mac txPausePkUnits:count 0
scalar Network2.switch3.eth[1].mac txPausePkUnits:sum 0
scalar Network2.switch3.eth[1].mac rxPkOk:count 0
scalar Network2.switch3.eth[1].mac rxPkOk:sum(packetBytes) 0
scalar Network2.switch3.eth[1].mac txPk:count 100
scalar Network2.switch3.eth[1].mac txPk:sum(packetBytes) 8200
scalar Network2.switch3.eth[1].mac packetReceivedFromUpper:count 100
scalar Network2.switch3.eth[1].mac packetReceivedFromUpper:sum(packetBytes) 8200
scalar Network2.switch3.eth[1].mac passedUpPk:count 0
scalar Network2.switch3.eth[1].mac passedUpPk:sum(packetBytes) 0
scalar Network2.switch3.eth[1].mac packetDropIncorrectlyReceived:count 0
scalar Network2.switch3.eth[1].mac packetDropIncorrectlyReceived:sum(packetBytes) 0
scalar Network2.switch3.eth[1].mac packetDropInterfaceDown:count 0
scalar Network2.switch3.eth[1].mac packetDropInterfaceDown:sum(packetBytes) 0
scalar Network2.switch3.eth[1].mac packetDropNotAddressedToUs:count 0
scalar Network2.switch3.eth[1].mac packetDropNotAddressedToUs:sum(packetBytes) 0
scalar Network2.switch3.eth[1] packetDropInterfaceDown:count 0
scalar Network2.switch3.eth[1] packetDropInterfaceDown:sum(packetBytes) 0
scalar Network2.switch3.eth[1] packetDropNoCarrier:count 0
scalar Network2.switch3.eth[1] packetDropNoCarrier:sum(packetBytes) 0
scalar Network2.switch3.eth[2].queue queueLength:last 0
scalar Network2.switch3.eth[2].queue queueLength:max 0
scalar Network2.switch3.eth[2].queue queueLength:timeavg 0
scalar Network2.switch3.eth[2].queue queueBitLength:last 0
scalar Network2.switch3.eth[2].queue queueBitLength:max 0
scalar Network2.switch3.eth[2].queue queueBitLength:timeavg 0
scalar Network2.switch3.eth[2].queue outgoingPackets:count 100
scalar Network2.switch3.eth[2].queue outgoingPacketLengths:sum 65600
scalar Network2.switch3.eth[2].queue incomingPackets:count 100
scalar Network2.switch3.eth[2].queue incomingPacketLengths:sum 65600
scalar Network2.switch3.eth[2].queue droppedPacketsQueueOverflow:count 0
scalar Network2.switch3.eth[2].queue droppedPacketLengthsQueueOverflow:sum 0
scalar Network2.switch3.eth[2].mac "simulated time" 1000
scalar Network2.switch3.eth[2].mac full-duplex 1
scalar Network2.switch3.eth[2].mac "frames/sec sent" 0.10000000000000001
scalar Network2.switch3.eth[2].mac "frames/sec rcvd" 0
scalar Network2.switch3.eth[2].mac "bits/sec sent" 65.599999999999994
scalar Network2.switch3.eth[2].mac "bits/sec rcvd" 0
scalar Network2.switch3.eth[2].mac "rx channel idle (%)" 100
scalar Network2.switch3.eth[2].mac "rx channel utilization (%)" 0
scalar Network2.switch3.eth[2].mac rxPausePkUnits:count 0
scalar Network2.switch3.eth[2].mac rxPausePkUnits:sum 0
scalar Network2.switch3.eth[2].mac txPausePkUnits:count 0
scalar Network2.switch3.eth[2].mac txPausePkUnits:sum 0
scalar Network2.switch3.eth[2].mac rxPkOk:count 0
scalar Network2.switch3.eth[2].mac rxPkOk:sum(packetBytes) 0
scalar Network2.switch3.eth[2].mac txPk:count 100
scalar Network2.switch3.eth[2].mac txPk:sum(packetBytes) 8200
scalar Network2.switch3.eth[2].mac packetReceivedFromUpper:count 100
scalar Network2.switch3.eth[2].mac packetReceivedFromUpper:sum(packetBytes) 8200
scalar Network2.switch3.eth[2].mac passedUpPk:count 0
scalar Network2.switch3.eth[2].mac passedUpPk:sum(packetBytes) 0
scalar Network2.switch3.eth[2].mac packetDropIncorrectlyReceived:count 0
scalar Network2.switch3.eth[2].mac packetDropIncorrectlyReceived:sum(packetBytes) 0
scalar Network2.switch3.eth[2].mac packetDropInterfaceDown:count 0
scalar Network2.switch3.eth[2].mac packetDropInterfaceDown:sum(packetBytes) 0
scalar Network2.switch3.eth[2].mac packetDropNotAddressedToUs:count 0
scalar Network2.switch3.eth[2].mac packetDropNotAddressedToUs:sum(packetBytes) 0
scalar Network2.switch3.eth[2] packetDropInterfaceDown:count 0
scalar Network2.switch3.eth[2] packetDropInterfaceDown:sum(packetBytes) 0
scalar Network2.switch3.eth[2] packetDropNoCarrier:count 0
scalar Network2.switch3.eth[2] packetDropNoCarrier:sum(packetBytes) 0
scalar Network2.switch3.eth[3].queue queueLength:last 0
scalar Network2.switch3.eth[3].queue queueLength:max 0
scalar Network2.switch3.eth[3].queue queueLength:timeavg 0
scalar Network2.switch3.eth[3].queue queueBitLength:last 0
scalar Network2.switch3.eth[3].queue queueBitLength:max 0
scalar Network2.switch3.eth[3].queue queueBitLength:timeavg 0
scalar Network2.switch3.eth[3].queue outgoingPackets:count 0
scalar Network2.switch3.eth[3].queue outgoingPacketLengths:sum 0
scalar Network2.switch3.eth[3].queue incomingPackets:count 0
scalar Network2.switch3.eth[3].queue incomingPacketLengths:sum 0
scalar Network2.switch3.eth[3].queue droppedPacketsQueueOverflow:count 0
scalar Network2.switch3.eth[3].queue droppedPacketLengthsQueueOverflow:sum 0
scalar Network2.switch3.eth[3].mac "simulated time" 1000
scalar Network2.switch3.eth[3].mac full-duplex 1
scalar Network2.switch3.eth[3].mac "frames/sec sent" 0
scalar Network2.switch3.eth[3].mac "frames/sec rcvd" 0.10000000000000001
scalar Network2.switch3.eth[3].mac "bits/sec sent" 0
scalar Network2.switch3.eth[3].mac "bits/sec rcvd" 65.599999999999994
scalar Network2.switch3.eth[3].mac "rx channel idle (%)" 99.999928000000011
scalar Network2.switch3.eth[3].mac "rx channel utilization (%)" 7.2000000000000002e-05
scalar Network2.switch3.eth[3].mac rxPausePkUnits:count 0
scalar Network2.switch3.eth[3].mac rxPausePkUnits:sum 0
scalar Network2.switch3.eth[3].mac txPausePkUnits:count 0
scalar Network2.switch3.eth[3].mac txPausePkUnits:sum 0
scalar Network2.switch3.eth[3].mac rxPkOk:count 100
scalar Network2.switch3.eth[3].mac rxPkOk:sum(packetBytes) 8200
scalar Network2.switch3.eth[3].mac txPk:count 0
scalar Network2.switch3.eth[3].mac txPk:sum(packetBytes) 0
scalar Network2.switch3.eth[3].mac packetReceivedFromUpper:count 0
scalar Network2.switch3.eth[3].mac packetReceivedFromUpper:sum(packetBytes) 0
scalar Network2.switch3.eth[3].mac passedUpPk:count 100
scalar Network2.switch3.eth[3].mac passedUpPk:sum(packetBytes) 8200
scalar Network2.switch3.eth[3].mac packetDropIncorrectlyReceived:count 0
scalar Network2.switch3.eth[3].mac packetDropIncorrectlyReceived:sum(packetBytes) 0
scalar Network2.switch3.eth[3].mac packetDropInterfaceDown:count 0
scalar Network2.switch3.eth[3].mac packetDropInterfaceDown:sum(packetBytes) 0
scalar Network2.switch3.eth[3].mac packetDropNotAddressedToUs:count 0
scalar Network2.switch3.eth[3].mac packetDropNotAddressedToUs:sum(packetBytes) 0
scalar Network2.switch3.eth[3] packetDropInterfaceDown:count 0
scalar Network2.switch3.eth[3] packetDropInterfaceDown:sum(packetBytes) 0
scalar Network2.switch3.eth[3] packetDropNoCarrier:count 0
scalar Network2.switch3.eth[3] packetDropNoCarrier:sum(packetBytes) 0
scalar Network2.switch2.bridging "processed frames" 0
scalar Network2.switch2.bridging "discarded frames" 0
scalar Network2.switch2.bridging "number of received BPDUs from STP module" 0
scalar Network2.switch2.bridging "number of received frames from network (including BPDUs)" 4261
scalar Network2.switch2.bridging "number of dropped frames (including BPDUs)" 0
scalar Network2.switch2.bridging "number of delivered BPDUs to the STP module" 0
scalar Network2.switch2.bridging "number of dispatched BPDU frames to the network" 0
scalar Network2.switch2.bridging "number of dispatched non-BDPU frames to the network" 0
scalar Network2.switch2.bridging packetDropped:count 0
scalar Network2.switch2.bridging packetDropped:sum(packetBytes) 0
scalar Network2.switch2.ethernet pauseSent:count 0
scalar Network2.switch2.ethernet pauseSent:sum 0
scalar Network2.switch2.ethernet decapPk:count 4261
scalar Network2.switch2.ethernet decapPk:sum(packetBytes) 325180
scalar Network2.switch2.ethernet encapPk:count 9469
scalar Network2.switch2.ethernet encapPk:sum(packetBytes) 743588
scalar Network2.switch2.eth[0].queue queueLength:last 0
scalar Network2.switch2.eth[0].queue queueLength:max 85
scalar Network2.switch2.eth[0].queue queueLength:timeavg 0.00011375825999999985
scalar Network2.switch2.eth[0].queue queueBitLength:last 0
scalar Network2.switch2.eth[0].queue queueBitLength:max 56272
scalar Network2.switch2.eth[0].queue queueBitLength:timeavg 0.081632420479999898
scalar Network2.switch2.eth[0].queue outgoingPackets:count 2118
scalar Network2.switch2.eth[0].queue outgoingPacketLengths:sum 1685712
scalar Network2.switch2.eth[0].queue incomingPackets:count 2118
scalar Network2.switch2.eth[0].queue incomingPacketLengths:sum 1685712
scalar Network2.switch2.eth[0].queue droppedPacketsQueueOverflow:count 0
scalar Network2.switch2.eth[0].queue droppedPacketLengthsQueueOverflow:sum 0
scalar Network2.switch2.eth[0].mac "simulated time" 1000
scalar Network2.switch2.eth[0].mac full-duplex 1
scalar Network2.switch2.eth[0].mac "frames/sec sent" 2.1179999999999999
scalar Network2.switch2.eth[0].mac "frames/sec rcvd" 1.5700000000000001
scalar Network2.switch2.eth[0].mac "bits/sec sent" 1685.712
scalar Network2.switch2.eth[0].mac "bits/sec rcvd" 1171.3440000000001
scalar Network2.switch2.eth[0].mac "rx channel idle (%)" 99.998728176
scalar Network2.switch2.eth[0].mac "rx channel utilization (%)" 0.0012718240000000002
scalar Network2.switch2.eth[0].mac rxPausePkUnits:count 0
scalar Network2.switch2.eth[0].mac rxPausePkUnits:sum 0
scalar Network2.switch2.eth[0].mac txPausePkUnits:count 0
scalar Network2.switch2.eth[0].mac txPausePkUnits:sum 0
scalar Network2.switch2.eth[0].mac rxPkOk:count 1570
scalar Network2.switch2.eth[0].mac rxPkOk:sum(packetBytes) 146418
scalar Network2.switch2.eth[0].mac txPk:count 2118
scalar Network2.switch2.eth[0].mac txPk:sum(packetBytes) 210714
scalar Network2.switch2.eth[0].mac packetReceivedFromUpper:count 2118
scalar Network2.switch2.eth[0].mac packetReceivedFromUpper:sum(packetBytes) 210714
scalar Network2.switch2.eth[0].mac passedUpPk:count 1570
scalar Network2.switch2.eth[0].mac passedUpPk:sum(packetBytes) 146418
scalar Network2.switch2.eth[0].mac packetDropIncorrectlyReceived:count 0
scalar Network2.switch2.eth[0].mac packetDropIncorrectlyReceived:sum(packetBytes) 0
scalar Network2.switch2.eth[0].mac packetDropInterfaceDown:count 0
scalar Network2.switch2.eth[0].mac packetDropInterfaceDown:sum(packetBytes) 0
scalar Network2.switch2.eth[0].mac packetDropNotAddressedToUs:count 0
scalar Network2.switch2.eth[0].mac packetDropNotAddressedToUs:sum(packetBytes) 0
scalar Network2.switch2.eth[0] packetDropInterfaceDown:count 0
scalar Network2.switch2.eth[0] packetDropInterfaceDown:sum(packetBytes) 0
scalar Network2.switch2.eth[0] packetDropNoCarrier:count 0
scalar Network2.switch2.eth[0] packetDropNoCarrier:sum(packetBytes) 0
scalar Network2.switch2.eth[1].queue queueLength:last 0
scalar Network2.switch2.eth[1].queue queueLength:max 89
scalar Network2.switch2.eth[1].queue queueLength:timeavg 9.7142799999999893e-05
scalar Network2.switch2.eth[1].queue queueBitLength:last 0
scalar Network2.switch2.eth[1].queue queueBitLength:max 59664
scalar Network2.switch2.eth[1].queue queueBitLength:timeavg 0.069066647999999869
scalar Network2.switch2.eth[1].queue outgoingPackets:count 2044
scalar Network2.switch2.eth[1].queue outgoingPacketLengths:sum 1631888
scalar Network2.switch2.eth[1].queue incomingPackets:count 2044
scalar Network2.switch2.eth[1].queue incomingPacketLengths:sum 1631888
scalar Network2.switch2.eth[1].queue droppedPacketsQueueOverflow:count 0
scalar Network2.switch2.eth[1].queue droppedPacketLengthsQueueOverflow:sum 0
scalar Network2.switch2.eth[1].mac "simulated time" 1000
scalar Network2.switch2.eth[1].mac full-duplex 1
scalar Network2.switch2.eth[1].mac "frames/sec sent" 2.044
scalar Network2.switch2.eth[1].mac "frames/sec rcvd" 1.2490000000000001
scalar Network2.switch2.eth[1].mac "bits/sec sent" 1631.8879999999999
scalar Network2.switch2.eth[1].mac "bits/sec rcvd" 1012.8
scalar Network2.switch2.eth[1].mac "rx channel idle (%)" 99.998907263999996
scalar Network2.switch2.eth[1].mac "rx channel utilization (%)" 0.001092736
scalar Network2.switch2.eth[1].mac rxPausePkUnits:count 0
scalar Network2.switch2.eth[1].mac rxPausePkUnits:sum 0
scalar Network2.switch2.eth[1].mac txPausePkUnits:count 0
scalar Network2.switch2.eth[1].mac txPausePkUnits:sum 0
scalar Network2.switch2.eth[1].mac rxPkOk:count 1249
scalar Network2.switch2.eth[1].mac rxPkOk:sum(packetBytes) 126600
scalar Network2.switch2.eth[1].mac txPk:count 2044
scalar Network2.switch2.eth[1].mac txPk:sum(packetBytes) 203986
scalar Network2.switch2.eth[1].mac packetReceivedFromUpper:count 2044
scalar Network2.switch2.eth[1].mac packetReceivedFromUpper:sum(packetBytes) 203986
scalar Network2.switch2.eth[1].mac passedUpPk:count 1249
scalar Network2.switch2.eth[1].mac passedUpPk:sum(packetBytes) 126600
scalar Network2.switch2.eth[1].mac packetDropIncorrectlyReceived:count 0
scalar Network2.switch2.eth[1].mac packetDropIncorrectlyReceived:sum(packetBytes) 0
scalar Network2.switch2.eth[1].mac packetDropInterfaceDown:count 0
scalar Network2.switch2.eth[1].mac packetDropInterfaceDown:sum(packetBytes) 0
scalar Network2.switch2.eth[1].mac packetDropNotAddressedToUs:count 0
scalar Network2.switch2.eth[1].mac packetDropNotAddressedToUs:sum(packetBytes) 0
scalar Network2.switch2.eth[1] packetDropInterfaceDown:count 0
scalar Network2.switch2.eth[1] packetDropInterfaceDown:sum(packetBytes) 0
scalar Network2.switch2.eth[1] packetDropNoCarrier:count 0
scalar Network2.switch2.eth[1] packetDropNoCarrier:sum(packetBytes) 0
scalar Network2.switch2.eth[2].queue queueLength:last 0
scalar Network2.switch2.eth[2].queue queueLength:max 89
scalar Network2.switch2.eth[2].queue queueLength:timeavg 0.00010028225999999973
scalar Network2.switch2.eth[2].queue queueBitLength:last 0
scalar Network2.switch2.eth[2].queue queueBitLength:max 59152
scalar Network2.switch2.eth[2].queue queueBitLength:timeavg 0.07155563615999902
scalar Network2.switch2.eth[2].queue outgoingPackets:count 1511
[...]
scalar Network2.switch7.eth[2].mac packetDropInterfaceDown:vector(packetBytes):mean -nan
scalar Network2.switch7.eth[2].mac packetDropInterfaceDown:vector(packetBytes):stddev nan
scalar Network2.switch7.eth[2].mac packetDropInterfaceDown:vector(packetBytes):min inf
scalar Network2.switch7.eth[2].mac packetDropInterfaceDown:vector(packetBytes):max -inf
scalar Network2.switch7.eth[2].mac packetDropInterfaceDown:vector(packetBytes):starttime nan
scalar Network2.switch7.eth[2].mac packetDropInterfaceDown:vector(packetBytes):endtime nan
scalar Network2.switch7.eth[2].mac packetDropNotAddressedToUs:vector(packetBytes):count 0
scalar Network2.switch7.eth[2].mac packetDropNotAddressedToUs:vector(packetBytes):sum 0
scalar Network2.switch7.eth[2].mac packetDropNotAddressedToUs:vector(packetBytes):sumweights 0
scalar Network2.switch7.eth[2].mac packetDropNotAddressedToUs:vector(packetBytes):mean -nan
scalar Network2.switch7.eth[2].mac packetDropNotAddressedToUs:vector(packetBytes):stddev nan
scalar Network2.switch7.eth[2].mac packetDropNotAddressedToUs:vector(packetBytes):min inf
scalar Network2.switch7.eth[2].mac packetDropNotAddressedToUs:vector(packetBytes):max -inf
scalar Network2.switch7.eth[2].mac packetDropNotAddressedToUs:vector(packetBytes):starttime nan
scalar Network2.switch7.eth[2].mac packetDropNotAddressedToUs:vector(packetBytes):endtime nan
scalar Network2.switch7.eth[2] packetDropInterfaceDown:vector(packetBytes):count 0
scalar Network2.switch7.eth[2] packetDropInterfaceDown:vector(packetBytes):sum 0
scalar Network2.switch7.eth[2] packetDropInterfaceDown:vector(packetBytes):sumweights 0
scalar Network2.switch7.eth[2] packetDropInterfaceDown:vector(packetBytes):mean -nan
scalar Network2.switch7.eth[2] packetDropInterfaceDown:vector(packetBytes):stddev nan
scalar Network2.switch7.eth[2] packetDropInterfaceDown:vector(packetBytes):min inf
scalar Network2.switch7.eth[2] packetDropInterfaceDown:vector(packetBytes):max -inf
scalar Network2.switch7.eth[2] packetDropInterfaceDown:vector(packetBytes):starttime nan
scalar Network2.switch7.eth[2] packetDropInterfaceDown:vector(packetBytes):endtime nan
scalar Network2.switch7.eth[2] packetDropNoCarrier:vector(packetBytes):count 0
scalar Network2.switch7.eth[2] packetDropNoCarrier:vector(packetBytes):sum 0
scalar Network2.switch7.eth[2] packetDropNoCarrier:vector(packetBytes):sumweights 0
scalar Network2.switch7.eth[2] packetDropNoCarrier:vector(packetBytes):mean -nan
scalar Network2.switch7.eth[2] packetDropNoCarrier:vector(packetBytes):stddev nan
scalar Network2.switch7.eth[2] packetDropNoCarrier:vector(packetBytes):min inf
scalar Network2.switch7.eth[2] packetDropNoCarrier:vector(packetBytes):max -inf
scalar Network2.switch7.eth[2] packetDropNoCarrier:vector(packetBytes):starttime nan
scalar Network2.switch7.eth[2] packetDropNoCarrier:vector(packetBytes):endtime nan
scalar Network2.switch7.eth[3].queue queueLength:vector:count 5
scalar Network2.switch7.eth[3].queue queueLength:vector:sum 0
scalar Network2.switch7.eth[3].queue queueLength:vector:sumweights 5
scalar Network2.switch7.eth[3].queue queueLength:vector:mean 0
scalar Network2.switch7.eth[3].queue queueLength:vector:stddev 0
scalar Network2.switch7.eth[3].queue queueLength:vector:min 0
scalar Network2.switch7.eth[3].queue queueLength:vector:max 0
scalar Network2.switch7.eth[3].queue queueLength:vector:starttime 0
scalar Network2.switch7.eth[3].queue queueLength:vector:endtime 0
scalar Network2.switch7.eth[3].queue queueBitLength:vector:count 5
scalar Network2.switch7.eth[3].queue queueBitLength:vector:sum 0
scalar Network2.switch7.eth[3].queue queueBitLength:vector:sumweights 5
scalar Network2.switch7.eth[3].queue queueBitLength:vector:mean 0
scalar Network2.switch7.eth[3].queue queueBitLength:vector:stddev 0
scalar Network2.switch7.eth[3].queue queueBitLength:vector:min 0
scalar Network2.switch7.eth[3].queue queueBitLength:vector:max 0
scalar Network2.switch7.eth[3].queue queueBitLength:vector:starttime 0
scalar Network2.switch7.eth[3].queue queueBitLength:vector:endtime 0
scalar Network2.switch7.eth[3].queue queueingTime:vector:count 0
scalar Network2.switch7.eth[3].queue queueingTime:vector:sum 0
scalar Network2.switch7.eth[3].queue queueingTime:vector:sumweights 0
scalar Network2.switch7.eth[3].queue queueingTime:vector:mean -nan
scalar Network2.switch7.eth[3].queue queueingTime:vector:stddev nan
scalar Network2.switch7.eth[3].queue queueingTime:vector:min inf
scalar Network2.switch7.eth[3].queue queueingTime:vector:max -inf
scalar Network2.switch7.eth[3].queue queueingTime:vector:starttime nan
scalar Network2.switch7.eth[3].queue queueingTime:vector:endtime nan
scalar Network2.switch7.eth[3].queue incomingPacketLengths:vector:count 0
scalar Network2.switch7.eth[3].queue incomingPacketLengths:vector:sum 0
scalar Network2.switch7.eth[3].queue incomingPacketLengths:vector:sumweights 0
scalar Network2.switch7.eth[3].queue incomingPacketLengths:vector:mean -nan
scalar Network2.switch7.eth[3].queue incomingPacketLengths:vector:stddev nan
scalar Network2.switch7.eth[3].queue incomingPacketLengths:vector:min inf
scalar Network2.switch7.eth[3].queue incomingPacketLengths:vector:max -inf
scalar Network2.switch7.eth[3].queue incomingPacketLengths:vector:starttime nan
scalar Network2.switch7.eth[3].queue incomingPacketLengths:vector:endtime nan
scalar Network2.switch7.eth[3].queue incomingDataRate:vector:count 10000
scalar Network2.switch7.eth[3].queue incomingDataRate:vector:sum 0
scalar Network2.switch7.eth[3].queue incomingDataRate:vector:sumweights 10000
scalar Network2.switch7.eth[3].queue incomingDataRate:vector:mean 0
scalar Network2.switch7.eth[3].queue incomingDataRate:vector:stddev 0
scalar Network2.switch7.eth[3].queue incomingDataRate:vector:min 0
scalar Network2.switch7.eth[3].queue incomingDataRate:vector:max 0
scalar Network2.switch7.eth[3].queue incomingDataRate:vector:starttime 0.10000000000000001
scalar Network2.switch7.eth[3].queue incomingDataRate:vector:endtime 1000
scalar Network2.switch7.eth[3].queue outgoingPacketLengths:vector:count 0
scalar Network2.switch7.eth[3].queue outgoingPacketLengths:vector:sum 0
scalar Network2.switch7.eth[3].queue outgoingPacketLengths:vector:sumweights 0
scalar Network2.switch7.eth[3].queue outgoingPacketLengths:vector:mean -nan
scalar Network2.switch7.eth[3].queue outgoingPacketLengths:vector:stddev nan
scalar Network2.switch7.eth[3].queue outgoingPacketLengths:vector:min inf
scalar Network2.switch7.eth[3].queue outgoingPacketLengths:vector:max -inf
scalar Network2.switch7.eth[3].queue outgoingPacketLengths:vector:starttime nan
scalar Network2.switch7.eth[3].queue outgoingPacketLengths:vector:endtime nan
scalar Network2.switch7.eth[3].queue outgoingDataRate:vector:count 10000
scalar Network2.switch7.eth[3].queue outgoingDataRate:vector:sum 0
scalar Network2.switch7.eth[3].queue outgoingDataRate:vector:sumweights 10000
scalar Network2.switch7.eth[3].queue outgoingDataRate:vector:mean 0
scalar Network2.switch7.eth[3].queue outgoingDataRate:vector:stddev 0
scalar Network2.switch7.eth[3].queue outgoingDataRate:vector:min 0
scalar Network2.switch7.eth[3].queue outgoingDataRate:vector:max 0
scalar Network2.switch7.eth[3].queue outgoingDataRate:vector:starttime 0.10000000000000001
scalar Network2.switch7.eth[3].queue outgoingDataRate:vector:endtime 1000
scalar Network2.switch7.eth[3].queue droppedPacketLengthsQueueOverflow:vector:count 0
scalar Network2.switch7.eth[3].queue droppedPacketLengthsQueueOverflow:vector:sum 0
scalar Network2.switch7.eth[3].queue droppedPacketLengthsQueueOverflow:vector:sumweights 0
scalar Network2.switch7.eth[3].queue droppedPacketLengthsQueueOverflow:vector:mean -nan
scalar Network2.switch7.eth[3].queue droppedPacketLengthsQueueOverflow:vector:stddev nan
scalar Network2.switch7.eth[3].queue droppedPacketLengthsQueueOverflow:vector:min inf
scalar Network2.switch7.eth[3].queue droppedPacketLengthsQueueOverflow:vector:max -inf
scalar Network2.switch7.eth[3].queue droppedPacketLengthsQueueOverflow:vector:starttime nan
scalar Network2.switch7.eth[3].queue droppedPacketLengthsQueueOverflow:vector:endtime nan
scalar Network2.switch7.eth[3].queue flowQueueingTime:vector:count 0
scalar Network2.switch7.eth[3].queue flowQueueingTime:vector:sum 0
scalar Network2.switch7.eth[3].queue flowQueueingTime:vector:sumweights 0
scalar Network2.switch7.eth[3].queue flowQueueingTime:vector:mean -nan
scalar Network2.switch7.eth[3].queue flowQueueingTime:vector:stddev nan
scalar Network2.switch7.eth[3].queue flowQueueingTime:vector:min inf
scalar Network2.switch7.eth[3].queue flowQueueingTime:vector:max -inf
scalar Network2.switch7.eth[3].queue flowQueueingTime:vector:starttime nan
scalar Network2.switch7.eth[3].queue flowQueueingTime:vector:endtime nan
scalar Network2.switch7.eth[3].queue flowIncomingDataRate:vector:count 10000
scalar Network2.switch7.eth[3].queue flowIncomingDataRate:vector:sum 0
scalar Network2.switch7.eth[3].queue flowIncomingDataRate:vector:sumweights 10000
scalar Network2.switch7.eth[3].queue flowIncomingDataRate:vector:mean 0
scalar Network2.switch7.eth[3].queue flowIncomingDataRate:vector:stddev 0
scalar Network2.switch7.eth[3].queue flowIncomingDataRate:vector:min 0
scalar Network2.switch7.eth[3].queue flowIncomingDataRate:vector:max 0
scalar Network2.switch7.eth[3].queue flowIncomingDataRate:vector:starttime 0.10000000000000001
scalar Network2.switch7.eth[3].queue flowIncomingDataRate:vector:endtime 1000
scalar Network2.switch7.eth[3].queue flowOutgoingDataRate:vector:count 10000
scalar Network2.switch7.eth[3].queue flowOutgoingDataRate:vector:sum 0
scalar Network2.switch7.eth[3].queue flowOutgoingDataRate:vector:sumweights 10000
scalar Network2.switch7.eth[3].queue flowOutgoingDataRate:vector:mean 0
scalar Network2.switch7.eth[3].queue flowOutgoingDataRate:vector:stddev 0
scalar Network2.switch7.eth[3].queue flowOutgoingDataRate:vector:min 0
scalar Network2.switch7.eth[3].queue flowOutgoingDataRate:vector:max 0
scalar Network2.switch7.eth[3].queue flowOutgoingDataRate:vector:starttime 0.10000000000000001
scalar Network2.switch7.eth[3].queue flowOutgoingDataRate:vector:endtime 1000
scalar Network2.switch7.eth[3].mac transmitting:vector:count 2
scalar Network2.switch7.eth[3].mac transmitting:vector:sum 0
scalar Network2.switch7.eth[3].mac transmitting:vector:sumweights 2
scalar Network2.switch7.eth[3].mac transmitting:vector:mean 0
scalar Network2.switch7.eth[3].mac transmitting:vector:stddev 0
scalar Network2.switch7.eth[3].mac transmitting:vector:min 0
scalar Network2.switch7.eth[3].mac transmitting:vector:max 0
scalar Network2.switch7.eth[3].mac transmitting:vector:starttime 0
scalar Network2.switch7.eth[3].mac transmitting:vector:endtime 0
scalar Network2.switch7.eth[3].mac throughput:vector:count 10000
scalar Network2.switch7.eth[3].mac throughput:vector:sum 0
scalar Network2.switch7.eth[3].mac throughput:vector:sumweights 10000
scalar Network2.switch7.eth[3].mac throughput:vector:mean 0
scalar Network2.switch7.eth[3].mac throughput:vector:stddev 0
scalar Network2.switch7.eth[3].mac throughput:vector:min 0
scalar Network2.switch7.eth[3].mac throughput:vector:max 0
scalar Network2.switch7.eth[3].mac throughput:vector:starttime 0.10000000000000001
scalar Network2.switch7.eth[3].mac throughput:vector:endtime 1000
scalar Network2.switch7.eth[3].mac utilization:vector:count 10000
scalar Network2.switch7.eth[3].mac utilization:vector:sum 0
scalar Network2.switch7.eth[3].mac utilization:vector:sumweights 10000
scalar Network2.switch7.eth[3].mac utilization:vector:mean 0
scalar Network2.switch7.eth[3].mac utilization:vector:stddev 0
scalar Network2.switch7.eth[3].mac utilization:vector:min 0
scalar Network2.switch7.eth[3].mac utilization:vector:max 0
scalar Network2.switch7.eth[3].mac utilization:vector:starttime 0.10000000000000001
scalar Network2.switch7.eth[3].mac utilization:vector:endtime 1000
scalar Network2.switch7.eth[3].mac txPk:vector(packetBytes):count 0
scalar Network2.switch7.eth[3].mac txPk:vector(packetBytes):sum 0
scalar Network2.switch7.eth[3].mac txPk:vector(packetBytes):sumweights 0
scalar Network2.switch7.eth[3].mac txPk:vector(packetBytes):mean -nan
scalar Network2.switch7.eth[3].mac txPk:vector(packetBytes):stddev nan
scalar Network2.switch7.eth[3].mac txPk:vector(packetBytes):min inf
scalar Network2.switch7.eth[3].mac txPk:vector(packetBytes):max -inf
scalar Network2.switch7.eth[3].mac txPk:vector(packetBytes):starttime nan
scalar Network2.switch7.eth[3].mac txPk:vector(packetBytes):endtime nan
scalar Network2.switch7.eth[3].mac rxPkOk:vector(packetBytes):count 100
scalar Network2.switch7.eth[3].mac rxPkOk:vector(packetBytes):sum 8200
scalar Network2.switch7.eth[3].mac rxPkOk:vector(packetBytes):sumweights 100
scalar Network2.switch7.eth[3].mac rxPkOk:vector(packetBytes):mean 82
scalar Network2.switch7.eth[3].mac rxPkOk:vector(packetBytes):stddev 0
scalar Network2.switch7.eth[3].mac rxPkOk:vector(packetBytes):min 82
scalar Network2.switch7.eth[3].mac rxPkOk:vector(packetBytes):max 82
scalar Network2.switch7.eth[3].mac rxPkOk:vector(packetBytes):starttime 0.087834954170000021
scalar Network2.switch7.eth[3].mac rxPkOk:vector(packetBytes):endtime 990.08783495417026
scalar Network2.switch7.eth[3].mac passedUpPk:vector(packetBytes):count 100
scalar Network2.switch7.eth[3].mac passedUpPk:vector(packetBytes):sum 8200
scalar Network2.switch7.eth[3].mac passedUpPk:vector(packetBytes):sumweights 100
scalar Network2.switch7.eth[3].mac passedUpPk:vector(packetBytes):mean 82
scalar Network2.switch7.eth[3].mac passedUpPk:vector(packetBytes):stddev 0
scalar Network2.switch7.eth[3].mac passedUpPk:vector(packetBytes):min 82
scalar Network2.switch7.eth[3].mac passedUpPk:vector(packetBytes):max 82
scalar Network2.switch7.eth[3].mac passedUpPk:vector(packetBytes):starttime 0.087834954170000021
scalar Network2.switch7.eth[3].mac passedUpPk:vector(packetBytes):endtime 990.08783495417026
scalar Network2.switch7.eth[3].mac txPausePkUnits:vector:count 0
scalar Network2.switch7.eth[3].mac txPausePkUnits:vector:sum 0
scalar Network2.switch7.eth[3].mac txPausePkUnits:vector:sumweights 0
scalar Network2.switch7.eth[3].mac txPausePkUnits:vector:mean -nan
scalar Network2.switch7.eth[3].mac txPausePkUnits:vector:stddev nan
scalar Network2.switch7.eth[3].mac txPausePkUnits:vector:min inf
scalar Network2.switch7.eth[3].mac txPausePkUnits:vector:max -inf
scalar Network2.switch7.eth[3].mac txPausePkUnits:vector:starttime nan
scalar Network2.switch7.eth[3].mac txPausePkUnits:vector:endtime nan
scalar Network2.switch7.eth[3].mac rxPausePkUnits:vector:count 0
scalar Network2.switch7.eth[3].mac rxPausePkUnits:vector:sum 0
scalar Network2.switch7.eth[3].mac rxPausePkUnits:vector:sumweights 0
scalar Network2.switch7.eth[3].mac rxPausePkUnits:vector:mean -nan
scalar Network2.switch7.eth[3].mac rxPausePkUnits:vector:stddev nan
scalar Network2.switch7.eth[3].mac rxPausePkUnits:vector:min inf
scalar Network2.switch7.eth[3].mac rxPausePkUnits:vector:max -inf
scalar Network2.switch7.eth[3].mac rxPausePkUnits:vector:starttime nan
scalar Network2.switch7.eth[3].mac rxPausePkUnits:vector:endtime nan
scalar Network2.switch7.eth[3].mac packetReceivedFromUpper:vector(packetBytes):count 0
scalar Network2.switch7.eth[3].mac packetReceivedFromUpper:vector(packetBytes):sum 0
scalar Network2.switch7.eth[3].mac packetReceivedFromUpper:vector(packetBytes):sumweights 0
scalar Network2.switch7.eth[3].mac packetReceivedFromUpper:vector(packetBytes):mean -nan
scalar Network2.switch7.eth[3].mac packetReceivedFromUpper:vector(packetBytes):stddev nan
scalar Network2.switch7.eth[3].mac packetReceivedFromUpper:vector(packetBytes):min inf
scalar Network2.switch7.eth[3].mac packetReceivedFromUpper:vector(packetBytes):max -inf
scalar Network2.switch7.eth[3].mac packetReceivedFromUpper:vector(packetBytes):starttime nan
scalar Network2.switch7.eth[3].mac packetReceivedFromUpper:vector(packetBytes):endtime nan
scalar Network2.switch7.eth[3].mac packetDropIncorrectlyReceived:vector(packetBytes):count 0
scalar Network2.switch7.eth[3].mac packetDropIncorrectlyReceived:vector(packetBytes):sum 0
scalar Network2.switch7.eth[3].mac packetDropIncorrectlyReceived:vector(packetBytes):sumweights 0
scalar Network2.switch7.eth[3].mac packetDropIncorrectlyReceived:vector(packetBytes):mean -nan
scalar Network2.switch7.eth[3].mac packetDropIncorrectlyReceived:vector(packetBytes):stddev nan
scalar Network2.switch7.eth[3].mac packetDropIncorrectlyReceived:vector(packetBytes):min inf
scalar Network2.switch7.eth[3].mac packetDropIncorrectlyReceived:vector(packetBytes):max -inf
scalar Network2.switch7.eth[3].mac packetDropIncorrectlyReceived:vector(packetBytes):starttime nan
scalar Network2.switch7.eth[3].mac packetDropIncorrectlyReceived:vector(packetBytes):endtime nan
scalar Network2.switch7.eth[3].mac packetDropInterfaceDown:vector(packetBytes):count 0
scalar Network2.switch7.eth[3].mac packetDropInterfaceDown:vector(packetBytes):sum 0
scalar Network2.switch7.eth[3].mac packetDropInterfaceDown:vector(packetBytes):sumweights 0
scalar Network2.switch7.eth[3].mac packetDropInterfaceDown:vector(packetBytes):mean -nan
scalar Network2.switch7.eth[3].mac packetDropInterfaceDown:vector(packetBytes):stddev nan
scalar Network2.switch7.eth[3].mac packetDropInterfaceDown:vector(packetBytes):min inf
scalar Network2.switch7.eth[3].mac packetDropInterfaceDown:vector(packetBytes):max -inf
scalar Network2.switch7.eth[3].mac packetDropInterfaceDown:vector(packetBytes):starttime nan
scalar Network2.switch7.eth[3].mac packetDropInterfaceDown:vector(packetBytes):endtime nan
scalar Network2.switch7.eth[3].mac packetDropNotAddressedToUs:vector(packetBytes):count 0
scalar Network2.switch7.eth[3].mac packetDropNotAddressedToUs:vector(packetBytes):sum 0
scalar Network2.switch7.eth[3].mac packetDropNotAddressedToUs:vector(packetBytes):sumweights 0
scalar Network2.switch7.eth[3].mac packetDropNotAddressedToUs:vector(packetBytes):mean -nan
scalar Network2.switch7.eth[3].mac packetDropNotAddressedToUs:vector(packetBytes):stddev nan
scalar Network2.switch7.eth[3].mac packetDropNotAddressedToUs:vector(packetBytes):min inf
scalar Network2.switch7.eth[3].mac packetDropNotAddressedToUs:vector(packetBytes):max -inf
scalar Network2.switch7.eth[3].mac packetDropNotAddressedToUs:vector(packetBytes):starttime nan
scalar Network2.switch7.eth[3].mac packetDropNotAddressedToUs:vector(packetBytes):endtime nan
scalar Network2.switch7.eth[3] packetDropInterfaceDown:vector(packetBytes):count 0
scalar Network2.switch7.eth[3] packetDropInterfaceDown:vector(packetBytes):sum 0
scalar Network2.switch7.eth[3] packetDropInterfaceDown:vector(packetBytes):sumweights 0
scalar Network2.switch7.eth[3] packetDropInterfaceDown:vector(packetBytes):mean -nan
scalar Network2.switch7.eth[3] packetDropInterfaceDown:vector(packetBytes):stddev nan
scalar Network2.switch7.eth[3] packetDropInterfaceDown:vector(packetBytes):min inf
scalar Network2.switch7.eth[3] packetDropInterfaceDown:vector(packetBytes):max -inf
scalar Network2.switch7.eth[3] packetDropInterfaceDown:vector(packetBytes):starttime nan
scalar Network2.switch7.eth[3] packetDropInterfaceDown:vector(packetBytes):endtime nan
scalar Network2.switch7.eth[3] packetDropNoCarrier:vector(packetBytes):count 0
scalar Network2.switch7.eth[3] packetDropNoCarrier:vector(packetBytes):sum 0
scalar Network2.switch7.eth[3] packetDropNoCarrier:vector(packetBytes):sumweights 0
scalar Network2.switch7.eth[3] packetDropNoCarrier:vector(packetBytes):mean -nan
scalar Network2.switch7.eth[3] packetDropNoCarrier:vector(packetBytes):stddev nan
scalar Network2.switch7.eth[3] packetDropNoCarrier:vector(packetBytes):min inf
scalar Network2.switch7.eth[3] packetDropNoCarrier:vector(packetBytes):max -inf
scalar Network2.switch7.eth[3] packetDropNoCarrier:vector(packetBytes):starttime nan
scalar Network2.switch7.eth[3] packetDropNoCarrier:vector(packetBytes):endtime nan

