version 3
run Filtering-0-20230411-10:37:23-43741
attr configname Filtering
attr datetime 20230411-10:37:23
attr datetimef 20230411-103723
attr description "Filtering Data Link Activity"
attr experiment Filtering
attr inifile omnetpp.ini
attr iterationvars ""
attr iterationvarsd ""
attr iterationvarsf ""
attr measurement ""
attr network DataLinkVisualizerFilteringShowcase
attr processid 43741
attr repetition 0
attr replication #0
attr resultdir results
attr runnumber 0
attr seedset 0
config image-path /home/levy/workspace/inet/images
config sim-time-limit 500s
config sim-time-limit 500s
config description "Filtering Data Link Activity"
config network DataLinkVisualizerFilteringShowcase
config *.source*.numApps 1
config *.source*.app[0].typename PingApp
config *.source1.app[0].destAddr "\"destination1\""
config *.source1.app[0].startTime 0.8s
config *.source2.app[0].destAddr "\"destination2\""
config *.source2.app[0].startTime 1.3s
config *.visualizer.*.dataLinkVisualizer.displayLinks true
config *.visualizer.*.dataLinkVisualizer.fadeOutMode "\"simulationTime\""
config *.visualizer.*.dataLinkVisualizer.fadeOutTime 1.4s
config *.visualizer.*.dataLinkVisualizer.packetFilter "\"ping*\""
config *.visualizer.*.dataLinkVisualizer.nodeFilter "\"source1 or etherSwitch{1,2,4} or destination1\""

par DataLinkVisualizerFilteringShowcase.etherSwitch1.ethg$o[0].channel typename "\"inet.node.ethernet.Eth100M\""
par DataLinkVisualizerFilteringShowcase.etherSwitch1.ethg$o[0].channel disabled false
attr mutable ""
par DataLinkVisualizerFilteringShowcase.etherSwitch1.ethg$o[0].channel delay 5e-08s
attr mutable ""
attr unit s
par DataLinkVisualizerFilteringShowcase.etherSwitch1.ethg$o[0].channel datarate 1e+08bps
attr mutable ""
attr unit bps
par DataLinkVisualizerFilteringShowcase.etherSwitch1.ethg$o[0].channel ber 0
attr mutable ""
par DataLinkVisualizerFilteringShowcase.etherSwitch1.ethg$o[0].channel per 0
attr mutable ""
par DataLinkVisualizerFilteringShowcase.etherSwitch1.ethg$o[0].channel length 10m
attr unit m
par DataLinkVisualizerFilteringShowcase.source1.ethg$o[0].channel typename "\"inet.node.ethernet.Eth100M\""
par DataLinkVisualizerFilteringShowcase.source1.ethg$o[0].channel disabled false
attr mutable ""
par DataLinkVisualizerFilteringShowcase.source1.ethg$o[0].channel delay 5e-08s
attr mutable ""
attr unit s
par DataLinkVisualizerFilteringShowcase.source1.ethg$o[0].channel datarate 1e+08bps
attr mutable ""
attr unit bps
par DataLinkVisualizerFilteringShowcase.source1.ethg$o[0].channel ber 0
attr mutable ""
par DataLinkVisualizerFilteringShowcase.source1.ethg$o[0].channel per 0
attr mutable ""
par DataLinkVisualizerFilteringShowcase.source1.ethg$o[0].channel length 10m
attr unit m
par DataLinkVisualizerFilteringShowcase.etherSwitch1.ethg$o[1].channel typename "\"inet.node.ethernet.Eth100M\""
par DataLinkVisualizerFilteringShowcase.etherSwitch1.ethg$o[1].channel disabled false
attr mutable ""
par DataLinkVisualizerFilteringShowcase.etherSwitch1.ethg$o[1].channel delay 5e-08s
attr mutable ""
attr unit s
par DataLinkVisualizerFilteringShowcase.etherSwitch1.ethg$o[1].channel datarate 1e+08bps
attr mutable ""
attr unit bps
par DataLinkVisualizerFilteringShowcase.etherSwitch1.ethg$o[1].channel ber 0
attr mutable ""
par DataLinkVisualizerFilteringShowcase.etherSwitch1.ethg$o[1].channel per 0
attr mutable ""
par DataLinkVisualizerFilteringShowcase.etherSwitch1.ethg$o[1].channel length 10m
attr unit m
par DataLinkVisualizerFilteringShowcase.etherSwitch4.ethg$o[0].channel typename "\"inet.node.ethernet.Eth100M\""
par DataLinkVisualizerFilteringShowcase.etherSwitch4.ethg$o[0].channel disabled false
attr mutable ""
par DataLinkVisualizerFilteringShowcase.etherSwitch4.ethg$o[0].channel delay 5e-08s
attr mutable ""
attr unit s
par DataLinkVisualizerFilteringShowcase.etherSwitch4.ethg$o[0].channel datarate 1e+08bps
attr mutable ""
attr unit bps
par DataLinkVisualizerFilteringShowcase.etherSwitch4.ethg$o[0].channel ber 0
attr mutable ""
par DataLinkVisualizerFilteringShowcase.etherSwitch4.ethg$o[0].channel per 0
attr mutable ""
par DataLinkVisualizerFilteringShowcase.etherSwitch4.ethg$o[0].channel length 10m
attr unit m
par DataLinkVisualizerFilteringShowcase.etherSwitch4.ethg$o[1].channel typename "\"inet.node.ethernet.Eth100M\""
par DataLinkVisualizerFilteringShowcase.etherSwitch4.ethg$o[1].channel disabled false
attr mutable ""
par DataLinkVisualizerFilteringShowcase.etherSwitch4.ethg$o[1].channel delay 5e-08s
attr mutable ""
attr unit s
par DataLinkVisualizerFilteringShowcase.etherSwitch4.ethg$o[1].channel datarate 1e+08bps
attr mutable ""
attr unit bps
par DataLinkVisualizerFilteringShowcase.etherSwitch4.ethg$o[1].channel ber 0
attr mutable ""
par DataLinkVisualizerFilteringShowcase.etherSwitch4.ethg$o[1].channel per 0
attr mutable ""
par DataLinkVisualizerFilteringShowcase.etherSwitch4.ethg$o[1].channel length 10m
attr unit m
par DataLinkVisualizerFilteringShowcase.etherSwitch3.ethg$o[0].channel typename "\"inet.node.ethernet.Eth100M\""
par DataLinkVisualizerFilteringShowcase.etherSwitch3.ethg$o[0].channel disabled false
attr mutable ""
par DataLinkVisualizerFilteringShowcase.etherSwitch3.ethg$o[0].channel delay 5e-08s
attr mutable ""
attr unit s
par DataLinkVisualizerFilteringShowcase.etherSwitch3.ethg$o[0].channel datarate 1e+08bps
attr mutable ""
attr unit bps
par DataLinkVisualizerFilteringShowcase.etherSwitch3.ethg$o[0].channel ber 0
attr mutable ""
par DataLinkVisualizerFilteringShowcase.etherSwitch3.ethg$o[0].channel per 0
attr mutable ""
par DataLinkVisualizerFilteringShowcase.etherSwitch3.ethg$o[0].channel length 10m
attr unit m
par DataLinkVisualizerFilteringShowcase.etherSwitch1.ethg$o[2].channel typename "\"inet.node.ethernet.Eth100M\""
par DataLinkVisualizerFilteringShowcase.etherSwitch1.ethg$o[2].channel disabled false
attr mutable ""
par DataLinkVisualizerFilteringShowcase.etherSwitch1.ethg$o[2].channel delay 5e-08s
attr mutable ""
attr unit s
par DataLinkVisualizerFilteringShowcase.etherSwitch1.ethg$o[2].channel datarate 1e+08bps
attr mutable ""
attr unit bps
par DataLinkVisualizerFilteringShowcase.etherSwitch1.ethg$o[2].channel ber 0
attr mutable ""
par DataLinkVisualizerFilteringShowcase.etherSwitch1.ethg$o[2].channel per 0
attr mutable ""
par DataLinkVisualizerFilteringShowcase.etherSwitch1.ethg$o[2].channel length 10m
attr unit m
par DataLinkVisualizerFilteringShowcase.source2.ethg$o[0].channel typename "\"inet.node.ethernet.Eth100M\""
par DataLinkVisualizerFilteringShowcase.source2.ethg$o[0].channel disabled false
attr mutable ""
par DataLinkVisualizerFilteringShowcase.source2.ethg$o[0].channel delay 5e-08s
attr mutable ""
attr unit s
par DataLinkVisualizerFilteringShowcase.source2.ethg$o[0].channel datarate 1e+08bps
attr mutable ""
attr unit bps
par DataLinkVisualizerFilteringShowcase.source2.ethg$o[0].channel ber 0
attr mutable ""
par DataLinkVisualizerFilteringShowcase.source2.ethg$o[0].channel per 0
attr mutable ""
par DataLinkVisualizerFilteringShowcase.source2.ethg$o[0].channel length 10m
attr unit m
par DataLinkVisualizerFilteringShowcase.etherSwitch3.ethg$o[1].channel typename "\"inet.node.ethernet.Eth100M\""
par DataLinkVisualizerFilteringShowcase.etherSwitch3.ethg$o[1].channel disabled false
attr mutable ""
par DataLinkVisualizerFilteringShowcase.etherSwitch3.ethg$o[1].channel delay 5e-08s
attr mutable ""
attr unit s
par DataLinkVisualizerFilteringShowcase.etherSwitch3.ethg$o[1].channel datarate 1e+08bps
attr mutable ""
attr unit bps
par DataLinkVisualizerFilteringShowcase.etherSwitch3.ethg$o[1].channel ber 0
attr mutable ""
par DataLinkVisualizerFilteringShowcase.etherSwitch3.ethg$o[1].channel per 0
attr mutable ""
par DataLinkVisualizerFilteringShowcase.etherSwitch3.ethg$o[1].channel length 10m
attr unit m
par DataLinkVisualizerFilteringShowcase.destination2.ethg$o[0].channel typename "\"inet.node.ethernet.Eth100M\""
par DataLinkVisualizerFilteringShowcase.destination2.ethg$o[0].channel disabled false
attr mutable ""
par DataLinkVisualizerFilteringShowcase.destination2.ethg$o[0].channel delay 5e-08s
attr mutable ""
attr unit s
par DataLinkVisualizerFilteringShowcase.destination2.ethg$o[0].channel datarate 1e+08bps
attr mutable ""
attr unit bps
par DataLinkVisualizerFilteringShowcase.destination2.ethg$o[0].channel ber 0
attr mutable ""
par DataLinkVisualizerFilteringShowcase.destination2.ethg$o[0].channel per 0
attr mutable ""
par DataLinkVisualizerFilteringShowcase.destination2.ethg$o[0].channel length 10m
attr unit m
par DataLinkVisualizerFilteringShowcase.etherSwitch4.ethg$o[2].channel typename "\"inet.node.ethernet.Eth100M\""
par DataLinkVisualizerFilteringShowcase.etherSwitch4.ethg$o[2].channel disabled false
attr mutable ""
par DataLinkVisualizerFilteringShowcase.etherSwitch4.ethg$o[2].channel delay 5e-08s
attr mutable ""
attr unit s
par DataLinkVisualizerFilteringShowcase.etherSwitch4.ethg$o[2].channel datarate 1e+08bps
attr mutable ""
attr unit bps
par DataLinkVisualizerFilteringShowcase.etherSwitch4.ethg$o[2].channel ber 0
attr mutable ""
par DataLinkVisualizerFilteringShowcase.etherSwitch4.ethg$o[2].channel per 0
attr mutable ""
par DataLinkVisualizerFilteringShowcase.etherSwitch4.ethg$o[2].channel length 10m
attr unit m
par DataLinkVisualizerFilteringShowcase.etherSwitch2.ethg$o[0].channel typename "\"inet.node.ethernet.Eth100M\""
par DataLinkVisualizerFilteringShowcase.etherSwitch2.ethg$o[0].channel disabled false
attr mutable ""
par DataLinkVisualizerFilteringShowcase.etherSwitch2.ethg$o[0].channel delay 5e-08s
attr mutable ""
attr unit s
par DataLinkVisualizerFilteringShowcase.etherSwitch2.ethg$o[0].channel datarate 1e+08bps
attr mutable ""
attr unit bps
par DataLinkVisualizerFilteringShowcase.etherSwitch2.ethg$o[0].channel ber 0
attr mutable ""
par DataLinkVisualizerFilteringShowcase.etherSwitch2.ethg$o[0].channel per 0
attr mutable ""
par DataLinkVisualizerFilteringShowcase.etherSwitch2.ethg$o[0].channel length 10m
attr unit m
par DataLinkVisualizerFilteringShowcase.etherSwitch2.ethg$o[1].channel typename "\"inet.node.ethernet.Eth100M\""
par DataLinkVisualizerFilteringShowcase.etherSwitch2.ethg$o[1].channel disabled false
attr mutable ""
par DataLinkVisualizerFilteringShowcase.etherSwitch2.ethg$o[1].channel delay 5e-08s
attr mutable ""
attr unit s
par DataLinkVisualizerFilteringShowcase.etherSwitch2.ethg$o[1].channel datarate 1e+08bps
attr mutable ""
attr unit bps
par DataLinkVisualizerFilteringShowcase.etherSwitch2.ethg$o[1].channel ber 0
attr mutable ""
par DataLinkVisualizerFilteringShowcase.etherSwitch2.ethg$o[1].channel per 0
attr mutable ""
par DataLinkVisualizerFilteringShowcase.etherSwitch2.ethg$o[1].channel length 10m
attr unit m
par DataLinkVisualizerFilteringShowcase.destination1.ethg$o[0].channel typename "\"inet.node.ethernet.Eth100M\""
par DataLinkVisualizerFilteringShowcase.destination1.ethg$o[0].channel disabled false
attr mutable ""
par DataLinkVisualizerFilteringShowcase.destination1.ethg$o[0].channel delay 5e-08s
attr mutable ""
attr unit s
par DataLinkVisualizerFilteringShowcase.destination1.ethg$o[0].channel datarate 1e+08bps
attr mutable ""
attr unit bps
par DataLinkVisualizerFilteringShowcase.destination1.ethg$o[0].channel ber 0
attr mutable ""
par DataLinkVisualizerFilteringShowcase.destination1.ethg$o[0].channel per 0
attr mutable ""
par DataLinkVisualizerFilteringShowcase.destination1.ethg$o[0].channel length 10m
attr unit m
par DataLinkVisualizerFilteringShowcase.etherSwitch3.ethg$o[2].channel typename "\"inet.node.ethernet.Eth100M\""
par DataLinkVisualizerFilteringShowcase.etherSwitch3.ethg$o[2].channel disabled false
attr mutable ""
par DataLinkVisualizerFilteringShowcase.etherSwitch3.ethg$o[2].channel delay 5e-08s
attr mutable ""
attr unit s
par DataLinkVisualizerFilteringShowcase.etherSwitch3.ethg$o[2].channel datarate 1e+08bps
attr mutable ""
attr unit bps
par DataLinkVisualizerFilteringShowcase.etherSwitch3.ethg$o[2].channel ber 0
attr mutable ""
par DataLinkVisualizerFilteringShowcase.etherSwitch3.ethg$o[2].channel per 0
attr mutable ""
par DataLinkVisualizerFilteringShowcase.etherSwitch3.ethg$o[2].channel length 10m
attr unit m
par DataLinkVisualizerFilteringShowcase.host2.ethg$o[0].channel typename "\"inet.node.ethernet.Eth100M\""
par DataLinkVisualizerFilteringShowcase.host2.ethg$o[0].channel disabled false
attr mutable ""
par DataLinkVisualizerFilteringShowcase.host2.ethg$o[0].channel delay 5e-08s
attr mutable ""
attr unit s
par DataLinkVisualizerFilteringShowcase.host2.ethg$o[0].channel datarate 1e+08bps
attr mutable ""
attr unit bps
par DataLinkVisualizerFilteringShowcase.host2.ethg$o[0].channel ber 0
attr mutable ""
par DataLinkVisualizerFilteringShowcase.host2.ethg$o[0].channel per 0
attr mutable ""
par DataLinkVisualizerFilteringShowcase.host2.ethg$o[0].channel length 10m
attr unit m
par DataLinkVisualizerFilteringShowcase.etherSwitch2.ethg$o[2].channel typename "\"inet.node.ethernet.Eth100M\""
par DataLinkVisualizerFilteringShowcase.etherSwitch2.ethg$o[2].channel disabled false
attr mutable ""
par DataLinkVisualizerFilteringShowcase.etherSwitch2.ethg$o[2].channel delay 5e-08s
attr mutable ""
attr unit s
par DataLinkVisualizerFilteringShowcase.etherSwitch2.ethg$o[2].channel datarate 1e+08bps
attr mutable ""
attr unit bps
par DataLinkVisualizerFilteringShowcase.etherSwitch2.ethg$o[2].channel ber 0
attr mutable ""
par DataLinkVisualizerFilteringShowcase.etherSwitch2.ethg$o[2].channel per 0
attr mutable ""
par DataLinkVisualizerFilteringShowcase.etherSwitch2.ethg$o[2].channel length 10m
attr unit m
par DataLinkVisualizerFilteringShowcase.host1.ethg$o[0].channel typename "\"inet.node.ethernet.Eth100M\""
par DataLinkVisualizerFilteringShowcase.host1.ethg$o[0].channel disabled false
attr mutable ""
par DataLinkVisualizerFilteringShowcase.host1.ethg$o[0].channel delay 5e-08s
attr mutable ""
attr unit s
par DataLinkVisualizerFilteringShowcase.host1.ethg$o[0].channel datarate 1e+08bps
attr mutable ""
attr unit bps
par DataLinkVisualizerFilteringShowcase.host1.ethg$o[0].channel ber 0
attr mutable ""
par DataLinkVisualizerFilteringShowcase.host1.ethg$o[0].channel per 0
attr mutable ""
par DataLinkVisualizerFilteringShowcase.host1.ethg$o[0].channel length 10m
attr unit m
par DataLinkVisualizerFilteringShowcase.visualizer.canvasVisualizer.sceneVisualizer typename "\"inet.visualizer.canvas.scene.SceneCanvasVisualizer\""
par DataLinkVisualizerFilteringShowcase.visualizer.canvasVisualizer.sceneVisualizer visualizationTargetModule "\"^.^.^\""
par DataLinkVisualizerFilteringShowcase.visualizer.canvasVisualizer.sceneVisualizer visualizationSubjectModule "\"^.^.^\""
par DataLinkVisualizerFilteringShowcase.visualizer.canvasVisualizer.sceneVisualizer tags "\"\""
par DataLinkVisualizerFilteringShowcase.visualizer.canvasVisualizer.sceneVisualizer physicalEnvironmentModule "\"physicalEnvironment\""
par DataLinkVisualizerFilteringShowcase.visualizer.canvasVisualizer.sceneVisualizer networkNodeVisualizerModule "\"^.networkNodeVisualizer\""
par DataLinkVisualizerFilteringShowcase.visualizer.canvasVisualizer.sceneVisualizer axisLength "nan m"
attr mutable ""
attr unit m
par DataLinkVisualizerFilteringShowcase.visualizer.canvasVisualizer.sceneVisualizer animationSpeed 0
par DataLinkVisualizerFilteringShowcase.visualizer.canvasVisualizer.sceneVisualizer sceneMinX "nan m"
attr unit m
par DataLinkVisualizerFilteringShowcase.visualizer.canvasVisualizer.sceneVisualizer sceneMinY "nan m"
attr unit m
par DataLinkVisualizerFilteringShowcase.visualizer.canvasVisualizer.sceneVisualizer sceneMinZ "nan m"
attr unit m
par DataLinkVisualizerFilteringShowcase.visualizer.canvasVisualizer.sceneVisualizer sceneMaxX "nan m"
attr unit m
par DataLinkVisualizerFilteringShowcase.visualizer.canvasVisualizer.sceneVisualizer sceneMaxY "nan m"
attr unit m
par DataLinkVisualizerFilteringShowcase.visualizer.canvasVisualizer.sceneVisualizer sceneMaxZ "nan m"
attr unit m
par DataLinkVisualizerFilteringShowcase.visualizer.canvasVisualizer.sceneVisualizer zIndex 0
par DataLinkVisualizerFilteringShowcase.visualizer.canvasVisualizer.sceneVisualizer viewAngle "\"x right y down z out\""
attr mutable ""
par DataLinkVisualizerFilteringShowcase.visualizer.canvasVisualizer.sceneVisualizer viewScale "\"1 1\""
attr mutable ""
par DataLinkVisualizerFilteringShowcase.visualizer.canvasVisualizer.sceneVisualizer viewTranslation "\"0 0\""
attr mutable ""
par DataLinkVisualizerFilteringShowcase.visualizer.canvasVisualizer.sceneVisualizer descriptionFigure "\"\""
par DataLinkVisualizerFilteringShowcase.visualizer.canvasVisualizer.physicalEnvironmentVisualizer typename "\"inet.visualizer.canvas.environment.PhysicalEnvironmentCanvasVisualizer\""
par DataLinkVisualizerFilteringShowcase.visualizer.canvasVisualizer.physicalEnvironmentVisualizer visualizationTargetModule "\"^.^.^\""
par DataLinkVisualizerFilteringShowcase.visualizer.canvasVisualizer.physicalEnvironmentVisualizer visualizationSubjectModule "\"^.^.^\""
par DataLinkVisualizerFilteringShowcase.visualizer.canvasVisualizer.physicalEnvironmentVisualizer tags "\"\""
par DataLinkVisualizerFilteringShowcase.visualizer.canvasVisualizer.physicalEnvironmentVisualizer physicalEnvironmentModule "\"physicalEnvironment\""
par DataLinkVisualizerFilteringShowcase.visualizer.canvasVisualizer.physicalEnvironmentVisualizer displayObjects true
par DataLinkVisualizerFilteringShowcase.visualizer.canvasVisualizer.physicalEnvironmentVisualizer zIndex 0
par DataLinkVisualizerFilteringShowcase.visualizer.canvasVisualizer.networkNodeVisualizer typename "\"inet.visualizer.canvas.scene.NetworkNodeCanvasVisualizer\""
par DataLinkVisualizerFilteringShowcase.visualizer.canvasVisualizer.networkNodeVisualizer visualizationTargetModule "\"^.^.^\""
par DataLinkVisualizerFilteringShowcase.visualizer.canvasVisualizer.networkNodeVisualizer visualizationSubjectModule "\"^.^.^\""
par DataLinkVisualizerFilteringShowcase.visualizer.canvasVisualizer.networkNodeVisualizer tags "\"\""
par DataLinkVisualizerFilteringShowcase.visualizer.canvasVisualizer.networkNodeVisualizer nodeFilter "\"*\""
attr mutable ""
par DataLinkVisualizerFilteringShowcase.visualizer.canvasVisualizer.networkNodeVisualizer annotationSpacing 4
par DataLinkVisualizerFilteringShowcase.visualizer.canvasVisualizer.networkNodeVisualizer placementPenalty 10
par DataLinkVisualizerFilteringShowcase.visualizer.canvasVisualizer.networkNodeVisualizer zIndex 0
par DataLinkVisualizerFilteringShowcase.visualizer.canvasVisualizer.networkConnectionVisualizer typename "\"inet.visualizer.canvas.scene.NetworkConnectionCanvasVisualizer\""
par DataLinkVisualizerFilteringShowcase.visualizer.canvasVisualizer.networkConnectionVisualizer visualizationTargetModule "\"^.^.^\""
par DataLinkVisualizerFilteringShowcase.visualizer.canvasVisualizer.networkConnectionVisualizer visualizationSubjectModule "\"^.^.^\""
par DataLinkVisualizerFilteringShowcase.visualizer.canvasVisualizer.networkConnectionVisualizer tags "\"\""
par DataLinkVisualizerFilteringShowcase.visualizer.canvasVisualizer.networkConnectionVisualizer displayNetworkConnections true
par DataLinkVisualizerFilteringShowcase.visualizer.canvasVisualizer.networkConnectionVisualizer nodeFilter "\"\""
attr mutable ""
par DataLinkVisualizerFilteringShowcase.visualizer.canvasVisualizer.networkConnectionVisualizer lineColor "\"black\""
par DataLinkVisualizerFilteringShowcase.visualizer.canvasVisualizer.networkConnectionVisualizer lineStyle "\"solid\""
par DataLinkVisualizerFilteringShowcase.visualizer.canvasVisualizer.networkConnectionVisualizer lineWidth 1
par DataLinkVisualizerFilteringShowcase.visualizer.canvasVisualizer.networkConnectionVisualizer zIndex 0
par DataLinkVisualizerFilteringShowcase.visualizer.canvasVisualizer.mobilityVisualizer typename "\"inet.visualizer.canvas.mobility.MobilityCanvasVisualizer\""
par DataLinkVisualizerFilteringShowcase.visualizer.canvasVisualizer.mobilityVisualizer visualizationTargetModule "\"^.^.^\""
par DataLinkVisualizerFilteringShowcase.visualizer.canvasVisualizer.mobilityVisualizer visualizationSubjectModule "\"^.^.^\""
par DataLinkVisualizerFilteringShowcase.visualizer.canvasVisualizer.mobilityVisualizer tags "\"\""
par DataLinkVisualizerFilteringShowcase.visualizer.canvasVisualizer.mobilityVisualizer networkNodeVisualizerModule "\"^.networkNodeVisualizer\""
par DataLinkVisualizerFilteringShowcase.visualizer.canvasVisualizer.mobilityVisualizer displayMobility true
par DataLinkVisualizerFilteringShowcase.visualizer.canvasVisualizer.mobilityVisualizer animationSpeed 0
par DataLinkVisualizerFilteringShowcase.visualizer.canvasVisualizer.mobilityVisualizer moduleFilter "\"**.mobility\""
attr mutable ""
par DataLinkVisualizerFilteringShowcase.visualizer.canvasVisualizer.mobilityVisualizer displayPositions false
par DataLinkVisualizerFilteringShowcase.visualizer.canvasVisualizer.mobilityVisualizer positionCircleRadius 4
par DataLinkVisualizerFilteringShowcase.visualizer.canvasVisualizer.mobilityVisualizer positionCircleLineWidth 1
par DataLinkVisualizerFilteringShowcase.visualizer.canvasVisualizer.mobilityVisualizer positionCircleLineColor "\"dark\""
attr enum light,dark
par DataLinkVisualizerFilteringShowcase.visualizer.canvasVisualizer.mobilityVisualizer positionCircleFillColor "\"dark\""
attr enum light,dark
par DataLinkVisualizerFilteringShowcase.visualizer.canvasVisualizer.mobilityVisualizer displayOrientations false
par DataLinkVisualizerFilteringShowcase.visualizer.canvasVisualizer.mobilityVisualizer orientationPieRadius 32
par DataLinkVisualizerFilteringShowcase.visualizer.canvasVisualizer.mobilityVisualizer orientationPieSize 0.2
par DataLinkVisualizerFilteringShowcase.visualizer.canvasVisualizer.mobilityVisualizer orientationPieOpacity 0.25
par DataLinkVisualizerFilteringShowcase.visualizer.canvasVisualizer.mobilityVisualizer orientationLineColor "\"black\""
par DataLinkVisualizerFilteringShowcase.visualizer.canvasVisualizer.mobilityVisualizer orientationLineStyle "\"solid\""
par DataLinkVisualizerFilteringShowcase.visualizer.canvasVisualizer.mobilityVisualizer orientationLineWidth 1
par DataLinkVisualizerFilteringShowcase.visualizer.canvasVisualizer.mobilityVisualizer orientationFillColor "\"blue\""
par DataLinkVisualizerFilteringShowcase.visualizer.canvasVisualizer.mobilityVisualizer displayVelocities false
par DataLinkVisualizerFilteringShowcase.visualizer.canvasVisualizer.mobilityVisualizer velocityArrowScale 1
par DataLinkVisualizerFilteringShowcase.visualizer.canvasVisualizer.mobilityVisualizer velocityLineColor "\"black\""
par DataLinkVisualizerFilteringShowcase.visualizer.canvasVisualizer.mobilityVisualizer velocityLineStyle "\"solid\""
par DataLinkVisualizerFilteringShowcase.visualizer.canvasVisualizer.mobilityVisualizer velocityLineWidth 1
par DataLinkVisualizerFilteringShowcase.visualizer.canvasVisualizer.mobilityVisualizer displayMovementTrails false
par DataLinkVisualizerFilteringShowcase.visualizer.canvasVisualizer.mobilityVisualizer movementTrailLineColor "\"dark\""
attr enum light,dark
par DataLinkVisualizerFilteringShowcase.visualizer.canvasVisualizer.mobilityVisualizer movementTrailLineStyle "\"solid\""
par DataLinkVisualizerFilteringShowcase.visualizer.canvasVisualizer.mobilityVisualizer movementTrailLineWidth 1
par DataLinkVisualizerFilteringShowcase.visualizer.canvasVisualizer.mobilityVisualizer trailLength 100
par DataLinkVisualizerFilteringShowcase.visualizer.canvasVisualizer.mobilityVisualizer zIndex 0
par DataLinkVisualizerFilteringShowcase.visualizer.canvasVisualizer.statisticVisualizer typename "\"inet.visualizer.canvas.common.StatisticCanvasVisualizer\""
par DataLinkVisualizerFilteringShowcase.visualizer.canvasVisualizer.statisticVisualizer visualizationTargetModule "\"^.^.^\""
par DataLinkVisualizerFilteringShowcase.visualizer.canvasVisualizer.statisticVisualizer visualizationSubjectModule "\"^.^.^\""
par DataLinkVisualizerFilteringShowcase.visualizer.canvasVisualizer.statisticVisualizer tags "\"\""
par DataLinkVisualizerFilteringShowcase.visualizer.canvasVisualizer.statisticVisualizer networkNodeVisualizerModule "\"^.networkNodeVisualizer\""
par DataLinkVisualizerFilteringShowcase.visualizer.canvasVisualizer.statisticVisualizer displayStatistics true
par DataLinkVisualizerFilteringShowcase.visualizer.canvasVisualizer.statisticVisualizer signalName "\"\""
par DataLinkVisualizerFilteringShowcase.visualizer.canvasVisualizer.statisticVisualizer statisticName "\"\""
par DataLinkVisualizerFilteringShowcase.visualizer.canvasVisualizer.statisticVisualizer statisticUnit "\"\""
par DataLinkVisualizerFilteringShowcase.visualizer.canvasVisualizer.statisticVisualizer statisticExpression "\"\""
par DataLinkVisualizerFilteringShowcase.visualizer.canvasVisualizer.statisticVisualizer sourceFilter "\"**\""
attr mutable ""
par DataLinkVisualizerFilteringShowcase.visualizer.canvasVisualizer.statisticVisualizer format "\"%n: %v %u\""
attr mutable ""
par DataLinkVisualizerFilteringShowcase.visualizer.canvasVisualizer.statisticVisualizer unit "\"\""
par DataLinkVisualizerFilteringShowcase.visualizer.canvasVisualizer.statisticVisualizer font "\"<default>\""
par DataLinkVisualizerFilteringShowcase.visualizer.canvasVisualizer.statisticVisualizer textColor "\"black\""
par DataLinkVisualizerFilteringShowcase.visualizer.canvasVisualizer.statisticVisualizer backgroundColor "\"white\""
par DataLinkVisualizerFilteringShowcase.visualizer.canvasVisualizer.statisticVisualizer opacity 1
par DataLinkVisualizerFilteringShowcase.visualizer.canvasVisualizer.statisticVisualizer placementHint "\"top\""
par DataLinkVisualizerFilteringShowcase.visualizer.canvasVisualizer.statisticVisualizer placementPriority 0
par DataLinkVisualizerFilteringShowcase.visualizer.canvasVisualizer.statisticVisualizer zIndex 10
par DataLinkVisualizerFilteringShowcase.visualizer.canvasVisualizer.statisticVisualizer propertyName "\"\""
par DataLinkVisualizerFilteringShowcase.visualizer.canvasVisualizer.statisticVisualizer propertyIndex "\"\""
par DataLinkVisualizerFilteringShowcase.visualizer.canvasVisualizer.infoVisualizer typename "\"inet.visualizer.canvas.common.InfoCanvasVisualizer\""
par DataLinkVisualizerFilteringShowcase.visualizer.canvasVisualizer.infoVisualizer visualizationTargetModule "\"^.^.^\""
par DataLinkVisualizerFilteringShowcase.visualizer.canvasVisualizer.infoVisualizer visualizationSubjectModule "\"^.^.^\""
par DataLinkVisualizerFilteringShowcase.visualizer.canvasVisualizer.infoVisualizer tags "\"\""
par DataLinkVisualizerFilteringShowcase.visualizer.canvasVisualizer.infoVisualizer networkNodeVisualizerModule "\"^.networkNodeVisualizer\""
par DataLinkVisualizerFilteringShowcase.visualizer.canvasVisualizer.infoVisualizer displayInfos true
par DataLinkVisualizerFilteringShowcase.visualizer.canvasVisualizer.infoVisualizer modules "\"\""
attr mutable ""
par DataLinkVisualizerFilteringShowcase.visualizer.canvasVisualizer.infoVisualizer format "\"%t\""
attr mutable ""
par DataLinkVisualizerFilteringShowcase.visualizer.canvasVisualizer.infoVisualizer font "\"<default>\""
par DataLinkVisualizerFilteringShowcase.visualizer.canvasVisualizer.infoVisualizer textColor "\"black\""
par DataLinkVisualizerFilteringShowcase.visualizer.canvasVisualizer.infoVisualizer backgroundColor "\"white\""
par DataLinkVisualizerFilteringShowcase.visualizer.canvasVisualizer.infoVisualizer opacity 1
par DataLinkVisualizerFilteringShowcase.visualizer.canvasVisualizer.infoVisualizer placementHint "\"top\""
par DataLinkVisualizerFilteringShowcase.visualizer.canvasVisualizer.infoVisualizer placementPriority 0
par DataLinkVisualizerFilteringShowcase.visualizer.canvasVisualizer.infoVisualizer zIndex 10
par DataLinkVisualizerFilteringShowcase.visualizer.canvasVisualizer.energyStorageVisualizer typename "\"inet.visualizer.canvas.power.EnergyStorageCanvasVisualizer\""
par DataLinkVisualizerFilteringShowcase.visualizer.canvasVisualizer.energyStorageVisualizer visualizationTargetModule "\"^.^.^\""
par DataLinkVisualizerFilteringShowcase.visualizer.canvasVisualizer.energyStorageVisualizer visualizationSubjectModule "\"^.^.^\""
par DataLinkVisualizerFilteringShowcase.visualizer.canvasVisualizer.energyStorageVisualizer tags "\"\""
par DataLinkVisualizerFilteringShowcase.visualizer.canvasVisualizer.energyStorageVisualizer networkNodeVisualizerModule "\"^.networkNodeVisualizer\""
par DataLinkVisualizerFilteringShowcase.visualizer.canvasVisualizer.energyStorageVisualizer displayEnergyStorages false
par DataLinkVisualizerFilteringShowcase.visualizer.canvasVisualizer.energyStorageVisualizer energyStorageFilter "\"**\""
par DataLinkVisualizerFilteringShowcase.visualizer.canvasVisualizer.energyStorageVisualizer color "\"green\""
par DataLinkVisualizerFilteringShowcase.visualizer.canvasVisualizer.energyStorageVisualizer width 8
par DataLinkVisualizerFilteringShowcase.visualizer.canvasVisualizer.energyStorageVisualizer height 24
par DataLinkVisualizerFilteringShowcase.visualizer.canvasVisualizer.energyStorageVisualizer spacing 2
par DataLinkVisualizerFilteringShowcase.visualizer.canvasVisualizer.energyStorageVisualizer placementHint "\"right\""
par DataLinkVisualizerFilteringShowcase.visualizer.canvasVisualizer.energyStorageVisualizer placementPriority 0
par DataLinkVisualizerFilteringShowcase.visualizer.canvasVisualizer.energyStorageVisualizer zIndex 10
par DataLinkVisualizerFilteringShowcase.visualizer.canvasVisualizer.mediumVisualizer typename "\"inet.visualizer.canvas.physicallayer.MediumCanvasVisualizer\""
par DataLinkVisualizerFilteringShowcase.visualizer.canvasVisualizer.mediumVisualizer visualizationTargetModule "\"^.^.^\""
par DataLinkVisualizerFilteringShowcase.visualizer.canvasVisualizer.mediumVisualizer visualizationSubjectModule "\"^.^.^\""
par DataLinkVisualizerFilteringShowcase.visualizer.canvasVisualizer.mediumVisualizer tags "\"\""
par DataLinkVisualizerFilteringShowcase.visualizer.canvasVisualizer.mediumVisualizer mediumModule "\"radioMedium\""
par DataLinkVisualizerFilteringShowcase.visualizer.canvasVisualizer.mediumVisualizer networkNodeVisualizerModule "\"^.networkNodeVisualizer\""
par DataLinkVisualizerFilteringShowcase.visualizer.canvasVisualizer.mediumVisualizer nodeFilter "\"*\""
attr mutable ""
par DataLinkVisualizerFilteringShowcase.visualizer.canvasVisualizer.mediumVisualizer interfaceFilter "\"*\""
attr mutable ""
par DataLinkVisualizerFilteringShowcase.visualizer.canvasVisualizer.mediumVisualizer packetFilter "(omnetpp::cValueHolder)holder: \"*\""
attr mutable ""
par DataLinkVisualizerFilteringShowcase.visualizer.canvasVisualizer.mediumVisualizer displaySignals false
par DataLinkVisualizerFilteringShowcase.visualizer.canvasVisualizer.mediumVisualizer signalColor "\"dark\""
attr enum light,dark
par DataLinkVisualizerFilteringShowcase.visualizer.canvasVisualizer.mediumVisualizer signalPropagationAnimationSpeed "nan "
attr mutable ""
par DataLinkVisualizerFilteringShowcase.visualizer.canvasVisualizer.mediumVisualizer signalPropagationAnimationTime 1s
attr unit s
par DataLinkVisualizerFilteringShowcase.visualizer.canvasVisualizer.mediumVisualizer signalPropagationAdditionalTime 0s
attr unit s
par DataLinkVisualizerFilteringShowcase.visualizer.canvasVisualizer.mediumVisualizer signalTransmissionAnimationSpeed "nan "
attr mutable ""
par DataLinkVisualizerFilteringShowcase.visualizer.canvasVisualizer.mediumVisualizer signalTransmissionAnimationTime 1s
attr unit s
par DataLinkVisualizerFilteringShowcase.visualizer.canvasVisualizer.mediumVisualizer signalAnimationSpeedChangeTimeMode "\"realTime\""
attr enum realTime,animationTime,simulationTime
par DataLinkVisualizerFilteringShowcase.visualizer.canvasVisualizer.mediumVisualizer signalAnimationSpeedChangeTime 1s
attr unit s
par DataLinkVisualizerFilteringShowcase.visualizer.canvasVisualizer.mediumVisualizer displaySignalDepartures false
par DataLinkVisualizerFilteringShowcase.visualizer.canvasVisualizer.mediumVisualizer signalDepartureImage "\"misc/signal_departure.png\""
par DataLinkVisualizerFilteringShowcase.visualizer.canvasVisualizer.mediumVisualizer signalDeparturePlacementHint "\"topCenter\""
par DataLinkVisualizerFilteringShowcase.visualizer.canvasVisualizer.mediumVisualizer signalDeparturePlacementPriority 1
par DataLinkVisualizerFilteringShowcase.visualizer.canvasVisualizer.mediumVisualizer displaySignalArrivals false
par DataLinkVisualizerFilteringShowcase.visualizer.canvasVisualizer.mediumVisualizer signalArrivalImage "\"misc/signal_arrival.png\""
par DataLinkVisualizerFilteringShowcase.visualizer.canvasVisualizer.mediumVisualizer signalArrivalPlacementHint "\"topCenter\""
par DataLinkVisualizerFilteringShowcase.visualizer.canvasVisualizer.mediumVisualizer signalArrivalPlacementPriority -1
par DataLinkVisualizerFilteringShowcase.visualizer.canvasVisualizer.mediumVisualizer displayCommunicationRanges false
par DataLinkVisualizerFilteringShowcase.visualizer.canvasVisualizer.mediumVisualizer communicationRangeLineColor "\"blue\""
par DataLinkVisualizerFilteringShowcase.visualizer.canvasVisualizer.mediumVisualizer communicationRangeLineStyle "\"solid\""
par DataLinkVisualizerFilteringShowcase.visualizer.canvasVisualizer.mediumVisualizer communicationRangeLineWidth 1
par DataLinkVisualizerFilteringShowcase.visualizer.canvasVisualizer.mediumVisualizer displayInterferenceRanges false
par DataLinkVisualizerFilteringShowcase.visualizer.canvasVisualizer.mediumVisualizer interferenceRangeLineColor "\"gray\""
par DataLinkVisualizerFilteringShowcase.visualizer.canvasVisualizer.mediumVisualizer interferenceRangeLineStyle "\"solid\""
par DataLinkVisualizerFilteringShowcase.visualizer.canvasVisualizer.mediumVisualizer interferenceRangeLineWidth 1
par DataLinkVisualizerFilteringShowcase.visualizer.canvasVisualizer.mediumVisualizer autoPowerAxis true
par DataLinkVisualizerFilteringShowcase.visualizer.canvasVisualizer.mediumVisualizer signalMinPower "inf dBmW"
attr unit dBmW
par DataLinkVisualizerFilteringShowcase.visualizer.canvasVisualizer.mediumVisualizer signalMaxPower 0dBmW
attr unit dBmW
par DataLinkVisualizerFilteringShowcase.visualizer.canvasVisualizer.mediumVisualizer signalMinPowerDensity "inf dBmWpMHz"
attr unit dBmWpMHz
par DataLinkVisualizerFilteringShowcase.visualizer.canvasVisualizer.mediumVisualizer signalMaxPowerDensity "-inf dBmWpMHz"
attr unit dBmWpMHz
par DataLinkVisualizerFilteringShowcase.visualizer.canvasVisualizer.mediumVisualizer autoTimeAxis true
par DataLinkVisualizerFilteringShowcase.visualizer.canvasVisualizer.mediumVisualizer signalMinTime 0s
attr unit s
par DataLinkVisualizerFilteringShowcase.visualizer.canvasVisualizer.mediumVisualizer signalMaxTime 0s
attr unit s
par DataLinkVisualizerFilteringShowcase.visualizer.canvasVisualizer.mediumVisualizer autoFrequencyAxis true
par DataLinkVisualizerFilteringShowcase.visualizer.canvasVisualizer.mediumVisualizer signalMinFrequency "inf Hz"
attr unit Hz
par DataLinkVisualizerFilteringShowcase.visualizer.canvasVisualizer.mediumVisualizer signalMaxFrequency "-inf Hz"
attr unit Hz
par DataLinkVisualizerFilteringShowcase.visualizer.canvasVisualizer.mediumVisualizer displayMainPowerDensityMap false
par DataLinkVisualizerFilteringShowcase.visualizer.canvasVisualizer.mediumVisualizer mainPowerDensityMapPixmapDensity 1
par DataLinkVisualizerFilteringShowcase.visualizer.canvasVisualizer.mediumVisualizer mainPowerDensityMapMinX 0
par DataLinkVisualizerFilteringShowcase.visualizer.canvasVisualizer.mediumVisualizer mainPowerDensityMapMaxX "nan "
par DataLinkVisualizerFilteringShowcase.visualizer.canvasVisualizer.mediumVisualizer mainPowerDensityMapMinY 0
par DataLinkVisualizerFilteringShowcase.visualizer.canvasVisualizer.mediumVisualizer mainPowerDensityMapMaxY "nan "
par DataLinkVisualizerFilteringShowcase.visualizer.canvasVisualizer.mediumVisualizer mainPowerDensityMapZ 0
par DataLinkVisualizerFilteringShowcase.visualizer.canvasVisualizer.mediumVisualizer mainPowerDensityMapFigureXTickCount 3
par DataLinkVisualizerFilteringShowcase.visualizer.canvasVisualizer.mediumVisualizer mainPowerDensityMapFigureYTickCount 3
par DataLinkVisualizerFilteringShowcase.visualizer.canvasVisualizer.mediumVisualizer displayPowerDensityMaps false
par DataLinkVisualizerFilteringShowcase.visualizer.canvasVisualizer.mediumVisualizer powerDensityMapMode "\"auto\""
attr enum total,signal,auto
par DataLinkVisualizerFilteringShowcase.visualizer.canvasVisualizer.mediumVisualizer powerDensityMapPixelMode "\"mean\""
attr enum sample,partition,mean
par DataLinkVisualizerFilteringShowcase.visualizer.canvasVisualizer.mediumVisualizer powerDensityMapApproximationSize 10
par DataLinkVisualizerFilteringShowcase.visualizer.canvasVisualizer.mediumVisualizer powerDensityMapCenterFrequency "nan Hz"
attr mutable ""
attr unit Hz
par DataLinkVisualizerFilteringShowcase.visualizer.canvasVisualizer.mediumVisualizer powerDensityMapBandwidth 0Hz
attr mutable ""
attr unit Hz
par DataLinkVisualizerFilteringShowcase.visualizer.canvasVisualizer.mediumVisualizer powerDensityMapFigureWidth 200
par DataLinkVisualizerFilteringShowcase.visualizer.canvasVisualizer.mediumVisualizer powerDensityMapFigureHeight 120
par DataLinkVisualizerFilteringShowcase.visualizer.canvasVisualizer.mediumVisualizer powerDensityMapPixmapWidth 200
par DataLinkVisualizerFilteringShowcase.visualizer.canvasVisualizer.mediumVisualizer powerDensityMapPixmapHeight 120
par DataLinkVisualizerFilteringShowcase.visualizer.canvasVisualizer.mediumVisualizer powerDensityMapZ 0
par DataLinkVisualizerFilteringShowcase.visualizer.canvasVisualizer.mediumVisualizer powerDensityMapFigureXTickCount 3
par DataLinkVisualizerFilteringShowcase.visualizer.canvasVisualizer.mediumVisualizer powerDensityMapFigureYTickCount 3
par DataLinkVisualizerFilteringShowcase.visualizer.canvasVisualizer.mediumVisualizer displaySpectrums false
par DataLinkVisualizerFilteringShowcase.visualizer.canvasVisualizer.mediumVisualizer spectrumMode "\"auto\""
attr enum total,signal,auto
par DataLinkVisualizerFilteringShowcase.visualizer.canvasVisualizer.mediumVisualizer spectrumFigureWidth 200
par DataLinkVisualizerFilteringShowcase.visualizer.canvasVisualizer.mediumVisualizer spectrumFigureHeight 120
par DataLinkVisualizerFilteringShowcase.visualizer.canvasVisualizer.mediumVisualizer spectrumFigureXTickCount 3
par DataLinkVisualizerFilteringShowcase.visualizer.canvasVisualizer.mediumVisualizer spectrumFigureYTickCount 5
par DataLinkVisualizerFilteringShowcase.visualizer.canvasVisualizer.mediumVisualizer spectrumFigureInterpolationSize 5
par DataLinkVisualizerFilteringShowcase.visualizer.canvasVisualizer.mediumVisualizer spectrumPlacementHint "\"bottomCenter\""
par DataLinkVisualizerFilteringShowcase.visualizer.canvasVisualizer.mediumVisualizer spectrumPlacementPriority -1
par DataLinkVisualizerFilteringShowcase.visualizer.canvasVisualizer.mediumVisualizer displaySpectrograms false
par DataLinkVisualizerFilteringShowcase.visualizer.canvasVisualizer.mediumVisualizer spectrogramMode "\"auto\""
attr enum total,signal,auto
par DataLinkVisualizerFilteringShowcase.visualizer.canvasVisualizer.mediumVisualizer spectrogramPixelMode "\"mean\""
attr enum sample,partition,mean
par DataLinkVisualizerFilteringShowcase.visualizer.canvasVisualizer.mediumVisualizer spectrogramFigureWidth 200
par DataLinkVisualizerFilteringShowcase.visualizer.canvasVisualizer.mediumVisualizer spectrogramFigureHeight 120
par DataLinkVisualizerFilteringShowcase.visualizer.canvasVisualizer.mediumVisualizer spectrogramPixmapWidth 200
par DataLinkVisualizerFilteringShowcase.visualizer.canvasVisualizer.mediumVisualizer spectrogramPixmapHeight 120
par DataLinkVisualizerFilteringShowcase.visualizer.canvasVisualizer.mediumVisualizer spectrogramFigureXTickCount 3
par DataLinkVisualizerFilteringShowcase.visualizer.canvasVisualizer.mediumVisualizer spectrogramFigureYTickCount 5
par DataLinkVisualizerFilteringShowcase.visualizer.canvasVisualizer.mediumVisualizer spectrogramPlacementHint "\"bottomCenter\""
par DataLinkVisualizerFilteringShowcase.visualizer.canvasVisualizer.mediumVisualizer spectrogramPlacementPriority -1
par DataLinkVisualizerFilteringShowcase.visualizer.canvasVisualizer.mediumVisualizer zIndex 0
par DataLinkVisualizerFilteringShowcase.visualizer.canvasVisualizer.mediumVisualizer signalShape "\"ring\""
attr enum ring,sphere
par DataLinkVisualizerFilteringShowcase.visualizer.canvasVisualizer.mediumVisualizer signalOpacity 0.5
par DataLinkVisualizerFilteringShowcase.visualizer.canvasVisualizer.mediumVisualizer signalRingCount 20
par DataLinkVisualizerFilteringShowcase.visualizer.canvasVisualizer.mediumVisualizer signalRingSize 50m
attr unit m
par DataLinkVisualizerFilteringShowcase.visualizer.canvasVisualizer.mediumVisualizer signalFadingDistance 50m
attr unit m
par DataLinkVisualizerFilteringShowcase.visualizer.canvasVisualizer.mediumVisualizer signalFadingFactor 1.2
par DataLinkVisualizerFilteringShowcase.visualizer.canvasVisualizer.mediumVisualizer signalWaveCount 20
par DataLinkVisualizerFilteringShowcase.visualizer.canvasVisualizer.mediumVisualizer signalWaveLength 50m
attr unit m
par DataLinkVisualizerFilteringShowcase.visualizer.canvasVisualizer.mediumVisualizer signalWaveWidth 10m
attr unit m
par DataLinkVisualizerFilteringShowcase.visualizer.canvasVisualizer.mediumVisualizer signalWaveFadingAnimationSpeedFactor 1
par DataLinkVisualizerFilteringShowcase.visualizer.canvasVisualizer.mediumVisualizer displayCommunicationHeat false
par DataLinkVisualizerFilteringShowcase.visualizer.canvasVisualizer.obstacleLossVisualizer typename "\"inet.visualizer.canvas.physicallayer.TracingObstacleLossCanvasVisualizer\""
par DataLinkVisualizerFilteringShowcase.visualizer.canvasVisualizer.obstacleLossVisualizer visualizationTargetModule "\"^.^.^\""
par DataLinkVisualizerFilteringShowcase.visualizer.canvasVisualizer.obstacleLossVisualizer visualizationSubjectModule "\"^.^.^\""
par DataLinkVisualizerFilteringShowcase.visualizer.canvasVisualizer.obstacleLossVisualizer tags "\"\""
par DataLinkVisualizerFilteringShowcase.visualizer.canvasVisualizer.obstacleLossVisualizer displayIntersections false
par DataLinkVisualizerFilteringShowcase.visualizer.canvasVisualizer.obstacleLossVisualizer intersectionLineColor "\"red\""
par DataLinkVisualizerFilteringShowcase.visualizer.canvasVisualizer.obstacleLossVisualizer intersectionLineStyle "\"solid\""
par DataLinkVisualizerFilteringShowcase.visualizer.canvasVisualizer.obstacleLossVisualizer intersectionLineWidth 1
par DataLinkVisualizerFilteringShowcase.visualizer.canvasVisualizer.obstacleLossVisualizer displayFaceNormalVectors false
par DataLinkVisualizerFilteringShowcase.visualizer.canvasVisualizer.obstacleLossVisualizer faceNormalLineColor "\"grey\""
par DataLinkVisualizerFilteringShowcase.visualizer.canvasVisualizer.obstacleLossVisualizer faceNormalLineStyle "\"solid\""
par DataLinkVisualizerFilteringShowcase.visualizer.canvasVisualizer.obstacleLossVisualizer faceNormalLineWidth 1
par DataLinkVisualizerFilteringShowcase.visualizer.canvasVisualizer.obstacleLossVisualizer fadeOutMode "\"realTime\""
attr enum realTime,animationTime,simulationTime
par DataLinkVisualizerFilteringShowcase.visualizer.canvasVisualizer.obstacleLossVisualizer fadeOutTime 1s
attr unit s
par DataLinkVisualizerFilteringShowcase.visualizer.canvasVisualizer.obstacleLossVisualizer fadeOutAnimationSpeed 0
par DataLinkVisualizerFilteringShowcase.visualizer.canvasVisualizer.obstacleLossVisualizer zIndex 0
par DataLinkVisualizerFilteringShowcase.visualizer.canvasVisualizer.packetDropVisualizer typename "\"inet.visualizer.canvas.common.PacketDropCanvasVisualizer\""
par DataLinkVisualizerFilteringShowcase.visualizer.canvasVisualizer.packetDropVisualizer visualizationTargetModule "\"^.^.^\""
par DataLinkVisualizerFilteringShowcase.visualizer.canvasVisualizer.packetDropVisualizer visualizationSubjectModule "\"^.^.^\""
par DataLinkVisualizerFilteringShowcase.visualizer.canvasVisualizer.packetDropVisualizer tags "\"\""
par DataLinkVisualizerFilteringShowcase.visualizer.canvasVisualizer.packetDropVisualizer displayPacketDrops false
par DataLinkVisualizerFilteringShowcase.visualizer.canvasVisualizer.packetDropVisualizer nodeFilter "\"*\""
attr mutable ""
par DataLinkVisualizerFilteringShowcase.visualizer.canvasVisualizer.packetDropVisualizer interfaceFilter "\"*\""
attr mutable ""
par DataLinkVisualizerFilteringShowcase.visualizer.canvasVisualizer.packetDropVisualizer packetFilter "(omnetpp::cValueHolder)holder: \"*\""
attr mutable ""
par DataLinkVisualizerFilteringShowcase.visualizer.canvasVisualizer.packetDropVisualizer detailsFilter "\"*\""
attr mutable ""
par DataLinkVisualizerFilteringShowcase.visualizer.canvasVisualizer.packetDropVisualizer icon "\"msg/packet_s\""
par DataLinkVisualizerFilteringShowcase.visualizer.canvasVisualizer.packetDropVisualizer iconTintAmount 1
par DataLinkVisualizerFilteringShowcase.visualizer.canvasVisualizer.packetDropVisualizer iconTintColor "\"dark\""
par DataLinkVisualizerFilteringShowcase.visualizer.canvasVisualizer.packetDropVisualizer labelFormat "\"%n\""
attr mutable ""
par DataLinkVisualizerFilteringShowcase.visualizer.canvasVisualizer.packetDropVisualizer labelFont "\"<default>\""
par DataLinkVisualizerFilteringShowcase.visualizer.canvasVisualizer.packetDropVisualizer labelColor "\"black\""
par DataLinkVisualizerFilteringShowcase.visualizer.canvasVisualizer.packetDropVisualizer fadeOutMode "\"realTime\""
attr enum realTime,animationTime,simulationTime
par DataLinkVisualizerFilteringShowcase.visualizer.canvasVisualizer.packetDropVisualizer fadeOutTime 1s
attr unit s
par DataLinkVisualizerFilteringShowcase.visualizer.canvasVisualizer.packetDropVisualizer fadeOutAnimationSpeed 0
par DataLinkVisualizerFilteringShowcase.visualizer.canvasVisualizer.packetDropVisualizer zIndex 10
par DataLinkVisualizerFilteringShowcase.visualizer.canvasVisualizer.packetDropVisualizer dx 32
par DataLinkVisualizerFilteringShowcase.visualizer.canvasVisualizer.packetDropVisualizer dy 64
par DataLinkVisualizerFilteringShowcase.visualizer.canvasVisualizer.packetFlowVisualizer typename "\"inet.visualizer.canvas.flow.PacketFlowCanvasVisualizer\""
par DataLinkVisualizerFilteringShowcase.visualizer.canvasVisualizer.packetFlowVisualizer visualizationTargetModule "\"^.^.^\""
par DataLinkVisualizerFilteringShowcase.visualizer.canvasVisualizer.packetFlowVisualizer visualizationSubjectModule "\"^.^.^\""
par DataLinkVisualizerFilteringShowcase.visualizer.canvasVisualizer.packetFlowVisualizer tags "\"\""
par DataLinkVisualizerFilteringShowcase.visualizer.canvasVisualizer.packetFlowVisualizer displayRoutes false
par DataLinkVisualizerFilteringShowcase.visualizer.canvasVisualizer.packetFlowVisualizer startPathSignal "\"packetFlowStarted\""
par DataLinkVisualizerFilteringShowcase.visualizer.canvasVisualizer.packetFlowVisualizer extendPathSignal "\"packetReceivedFromLower\""
par DataLinkVisualizerFilteringShowcase.visualizer.canvasVisualizer.packetFlowVisualizer endPathSignal "\"packetFlowEnded\""
par DataLinkVisualizerFilteringShowcase.visualizer.canvasVisualizer.packetFlowVisualizer nodeFilter "\"*\""
attr mutable ""
par DataLinkVisualizerFilteringShowcase.visualizer.canvasVisualizer.packetFlowVisualizer packetFilter "(omnetpp::cValueHolder)holder: \"*\""
attr mutable ""
par DataLinkVisualizerFilteringShowcase.visualizer.canvasVisualizer.packetFlowVisualizer lineColor "\"dark\""
attr enum light,dark
par DataLinkVisualizerFilteringShowcase.visualizer.canvasVisualizer.packetFlowVisualizer lineStyle "\"dashed\""
par DataLinkVisualizerFilteringShowcase.visualizer.canvasVisualizer.packetFlowVisualizer lineWidth 3
par DataLinkVisualizerFilteringShowcase.visualizer.canvasVisualizer.packetFlowVisualizer lineSmooth false
par DataLinkVisualizerFilteringShowcase.visualizer.canvasVisualizer.packetFlowVisualizer lineShift 16
par DataLinkVisualizerFilteringShowcase.visualizer.canvasVisualizer.packetFlowVisualizer lineShiftMode "\"normal\""
par DataLinkVisualizerFilteringShowcase.visualizer.canvasVisualizer.packetFlowVisualizer lineContactSpacing 3
par DataLinkVisualizerFilteringShowcase.visualizer.canvasVisualizer.packetFlowVisualizer lineContactMode "\"rectangular\""
attr enum circular,rectangular
par DataLinkVisualizerFilteringShowcase.visualizer.canvasVisualizer.packetFlowVisualizer labelFormat "\"%L %p pk (%l)\""
par DataLinkVisualizerFilteringShowcase.visualizer.canvasVisualizer.packetFlowVisualizer labelFont "\"<default>, 8px\""
par DataLinkVisualizerFilteringShowcase.visualizer.canvasVisualizer.packetFlowVisualizer labelColor "\"\""
par DataLinkVisualizerFilteringShowcase.visualizer.canvasVisualizer.packetFlowVisualizer fadeOutMode "\"realTime\""
attr enum realTime,animationTime,simulationTime
par DataLinkVisualizerFilteringShowcase.visualizer.canvasVisualizer.packetFlowVisualizer fadeOutTime 0s
attr unit s
par DataLinkVisualizerFilteringShowcase.visualizer.canvasVisualizer.packetFlowVisualizer fadeOutAnimationSpeed 0
par DataLinkVisualizerFilteringShowcase.visualizer.canvasVisualizer.packetFlowVisualizer zIndex 4
par DataLinkVisualizerFilteringShowcase.visualizer.canvasVisualizer.queueVisualizer typename "\"inet.visualizer.canvas.common.QueueCanvasVisualizer\""
par DataLinkVisualizerFilteringShowcase.visualizer.canvasVisualizer.queueVisualizer visualizationTargetModule "\"^.^.^\""
par DataLinkVisualizerFilteringShowcase.visualizer.canvasVisualizer.queueVisualizer visualizationSubjectModule "\"^.^.^\""
par DataLinkVisualizerFilteringShowcase.visualizer.canvasVisualizer.queueVisualizer tags "\"\""
par DataLinkVisualizerFilteringShowcase.visualizer.canvasVisualizer.queueVisualizer networkNodeVisualizerModule "\"^.networkNodeVisualizer\""
par DataLinkVisualizerFilteringShowcase.visualizer.canvasVisualizer.queueVisualizer displayQueues false
par DataLinkVisualizerFilteringShowcase.visualizer.canvasVisualizer.queueVisualizer queueFilter "\"**\""
par DataLinkVisualizerFilteringShowcase.visualizer.canvasVisualizer.queueVisualizer color "\"blue\""
par DataLinkVisualizerFilteringShowcase.visualizer.canvasVisualizer.queueVisualizer width 8
par DataLinkVisualizerFilteringShowcase.visualizer.canvasVisualizer.queueVisualizer height 24
par DataLinkVisualizerFilteringShowcase.visualizer.canvasVisualizer.queueVisualizer spacing 2
par DataLinkVisualizerFilteringShowcase.visualizer.canvasVisualizer.queueVisualizer placementHint "\"right\""
par DataLinkVisualizerFilteringShowcase.visualizer.canvasVisualizer.queueVisualizer placementPriority 0
par DataLinkVisualizerFilteringShowcase.visualizer.canvasVisualizer.queueVisualizer zIndex 10
par DataLinkVisualizerFilteringShowcase.visualizer.canvasVisualizer.gateScheduleVisualizer typename "\"inet.visualizer.canvas.common.GateScheduleCanvasVisualizer\""
par DataLinkVisualizerFilteringShowcase.visualizer.canvasVisualizer.gateScheduleVisualizer visualizationTargetModule "\"^.^.^\""
par DataLinkVisualizerFilteringShowcase.visualizer.canvasVisualizer.gateScheduleVisualizer visualizationSubjectModule "\"^.^.^\""
par DataLinkVisualizerFilteringShowcase.visualizer.canvasVisualizer.gateScheduleVisualizer tags "\"\""
par DataLinkVisualizerFilteringShowcase.visualizer.canvasVisualizer.gateScheduleVisualizer networkNodeVisualizerModule "\"^.networkNodeVisualizer\""
par DataLinkVisualizerFilteringShowcase.visualizer.canvasVisualizer.gateScheduleVisualizer displayGateSchedules false
par DataLinkVisualizerFilteringShowcase.visualizer.canvasVisualizer.gateScheduleVisualizer labelFormat "\"%i %D\""
par DataLinkVisualizerFilteringShowcase.visualizer.canvasVisualizer.gateScheduleVisualizer gateFilter "\"**\""
par DataLinkVisualizerFilteringShowcase.visualizer.canvasVisualizer.gateScheduleVisualizer width 100
par DataLinkVisualizerFilteringShowcase.visualizer.canvasVisualizer.gateScheduleVisualizer height 8
par DataLinkVisualizerFilteringShowcase.visualizer.canvasVisualizer.gateScheduleVisualizer spacing 2
par DataLinkVisualizerFilteringShowcase.visualizer.canvasVisualizer.gateScheduleVisualizer placementHint "\"right\""
par DataLinkVisualizerFilteringShowcase.visualizer.canvasVisualizer.gateScheduleVisualizer placementPriority 0
par DataLinkVisualizerFilteringShowcase.visualizer.canvasVisualizer.gateScheduleVisualizer displayDuration 0s
attr mutable ""
attr unit s
par DataLinkVisualizerFilteringShowcase.visualizer.canvasVisualizer.gateScheduleVisualizer currentTimePosition 50
par DataLinkVisualizerFilteringShowcase.visualizer.canvasVisualizer.gateScheduleVisualizer zIndex 10
par DataLinkVisualizerFilteringShowcase.visualizer.canvasVisualizer.radioVisualizer typename "\"inet.visualizer.canvas.physicallayer.RadioCanvasVisualizer\""
par DataLinkVisualizerFilteringShowcase.visualizer.canvasVisualizer.radioVisualizer visualizationTargetModule "\"^.^.^\""
par DataLinkVisualizerFilteringShowcase.visualizer.canvasVisualizer.radioVisualizer visualizationSubjectModule "\"^.^.^\""
par DataLinkVisualizerFilteringShowcase.visualizer.canvasVisualizer.radioVisualizer tags "\"\""
par DataLinkVisualizerFilteringShowcase.visualizer.canvasVisualizer.radioVisualizer networkNodeVisualizerModule "\"^.networkNodeVisualizer\""
par DataLinkVisualizerFilteringShowcase.visualizer.canvasVisualizer.radioVisualizer displayRadios false
par DataLinkVisualizerFilteringShowcase.visualizer.canvasVisualizer.radioVisualizer displayRadioMode true
par DataLinkVisualizerFilteringShowcase.visualizer.canvasVisualizer.radioVisualizer displayReceptionState true
par DataLinkVisualizerFilteringShowcase.visualizer.canvasVisualizer.radioVisualizer displayTransmissionState true
par DataLinkVisualizerFilteringShowcase.visualizer.canvasVisualizer.radioVisualizer displayAntennaLobes false
par DataLinkVisualizerFilteringShowcase.visualizer.canvasVisualizer.radioVisualizer radioFilter "\"**\""
attr mutable ""
par DataLinkVisualizerFilteringShowcase.visualizer.canvasVisualizer.radioVisualizer radioModeImages "\"block/process_vs block/timer_vs block/wrx_vs block/wtx_vs block/wrxtx_vs block/cogwheel_vs\""
par DataLinkVisualizerFilteringShowcase.visualizer.canvasVisualizer.radioVisualizer receptionStateImages "\"- - misc/receiving misc/receiving\""
par DataLinkVisualizerFilteringShowcase.visualizer.canvasVisualizer.radioVisualizer transmissionStateImages "\"- - misc/transmitting\""
par DataLinkVisualizerFilteringShowcase.visualizer.canvasVisualizer.radioVisualizer width 16
par DataLinkVisualizerFilteringShowcase.visualizer.canvasVisualizer.radioVisualizer height 16
par DataLinkVisualizerFilteringShowcase.visualizer.canvasVisualizer.radioVisualizer placementHint "\"bottomRight\""
par DataLinkVisualizerFilteringShowcase.visualizer.canvasVisualizer.radioVisualizer placementPriority 0
par DataLinkVisualizerFilteringShowcase.visualizer.canvasVisualizer.radioVisualizer antennaLobeNormalize false
par DataLinkVisualizerFilteringShowcase.visualizer.canvasVisualizer.radioVisualizer antennaLobeRelativeLabels false
par DataLinkVisualizerFilteringShowcase.visualizer.canvasVisualizer.radioVisualizer antennaLobePlaneGlobal true
par DataLinkVisualizerFilteringShowcase.visualizer.canvasVisualizer.radioVisualizer antennaLobePlane "\"view\""
attr enum view,xy,xz,yz
par DataLinkVisualizerFilteringShowcase.visualizer.canvasVisualizer.radioVisualizer antennaLobeMode "\"logarithmic\""
attr enum logarithmic,linear
par DataLinkVisualizerFilteringShowcase.visualizer.canvasVisualizer.radioVisualizer antennaLobeLogarithmicBase 10
par DataLinkVisualizerFilteringShowcase.visualizer.canvasVisualizer.radioVisualizer antennaLobeLogarithmicScale 100
par DataLinkVisualizerFilteringShowcase.visualizer.canvasVisualizer.radioVisualizer antennaLobeRadius 100
par DataLinkVisualizerFilteringShowcase.visualizer.canvasVisualizer.radioVisualizer antennaLobeStep 10deg
attr unit deg
par DataLinkVisualizerFilteringShowcase.visualizer.canvasVisualizer.radioVisualizer antennaLobeOpacity 0.25
par DataLinkVisualizerFilteringShowcase.visualizer.canvasVisualizer.radioVisualizer antennaLobeLineSmooth true
par DataLinkVisualizerFilteringShowcase.visualizer.canvasVisualizer.radioVisualizer antennaLobeLineColor "\"black\""
par DataLinkVisualizerFilteringShowcase.visualizer.canvasVisualizer.radioVisualizer antennaLobeLineStyle "\"solid\""
par DataLinkVisualizerFilteringShowcase.visualizer.canvasVisualizer.radioVisualizer antennaLobeLineWidth 1
par DataLinkVisualizerFilteringShowcase.visualizer.canvasVisualizer.radioVisualizer antennaLobeFillColor "\"white\""
par DataLinkVisualizerFilteringShowcase.visualizer.canvasVisualizer.radioVisualizer zIndex 10
par DataLinkVisualizerFilteringShowcase.visualizer.canvasVisualizer.physicalLinkVisualizer typename "\"inet.visualizer.canvas.physicallayer.PhysicalLinkCanvasVisualizer\""
par DataLinkVisualizerFilteringShowcase.visualizer.canvasVisualizer.physicalLinkVisualizer visualizationTargetModule "\"^.^.^\""
par DataLinkVisualizerFilteringShowcase.visualizer.canvasVisualizer.physicalLinkVisualizer visualizationSubjectModule "\"^.^.^\""
par DataLinkVisualizerFilteringShowcase.visualizer.canvasVisualizer.physicalLinkVisualizer tags "\"\""
par DataLinkVisualizerFilteringShowcase.visualizer.canvasVisualizer.physicalLinkVisualizer displayLinks false
par DataLinkVisualizerFilteringShowcase.visualizer.canvasVisualizer.physicalLinkVisualizer activityLevel "\"service\""
attr enum service,peer,protocol
par DataLinkVisualizerFilteringShowcase.visualizer.canvasVisualizer.physicalLinkVisualizer nodeFilter "\"*\""
attr mutable ""
par DataLinkVisualizerFilteringShowcase.visualizer.canvasVisualizer.physicalLinkVisualizer interfaceFilter "\"*\""
attr mutable ""
par DataLinkVisualizerFilteringShowcase.visualizer.canvasVisualizer.physicalLinkVisualizer packetFilter "(omnetpp::cValueHolder)holder: \"*\""
attr mutable ""
par DataLinkVisualizerFilteringShowcase.visualizer.canvasVisualizer.physicalLinkVisualizer lineColor "\"olive\""
par DataLinkVisualizerFilteringShowcase.visualizer.canvasVisualizer.physicalLinkVisualizer lineStyle "\"dotted\""
par DataLinkVisualizerFilteringShowcase.visualizer.canvasVisualizer.physicalLinkVisualizer lineWidth 3
par DataLinkVisualizerFilteringShowcase.visualizer.canvasVisualizer.physicalLinkVisualizer lineShift 16
par DataLinkVisualizerFilteringShowcase.visualizer.canvasVisualizer.physicalLinkVisualizer lineShiftMode "\"normal\""
par DataLinkVisualizerFilteringShowcase.visualizer.canvasVisualizer.physicalLinkVisualizer lineContactSpacing 3
par DataLinkVisualizerFilteringShowcase.visualizer.canvasVisualizer.physicalLinkVisualizer lineContactMode "\"rectangular\""
attr enum circular,rectangular
par DataLinkVisualizerFilteringShowcase.visualizer.canvasVisualizer.physicalLinkVisualizer labelFormat "\"%n\""
par DataLinkVisualizerFilteringShowcase.visualizer.canvasVisualizer.physicalLinkVisualizer labelFont "\"<default>, 8px\""
par DataLinkVisualizerFilteringShowcase.visualizer.canvasVisualizer.physicalLinkVisualizer labelColor "\"olive\""
par DataLinkVisualizerFilteringShowcase.visualizer.canvasVisualizer.physicalLinkVisualizer fadeOutMode "\"realTime\""
attr enum realTime,animationTime,simulationTime
par DataLinkVisualizerFilteringShowcase.visualizer.canvasVisualizer.physicalLinkVisualizer fadeOutTime 1s
attr unit s
par DataLinkVisualizerFilteringShowcase.visualizer.canvasVisualizer.physicalLinkVisualizer fadeOutAnimationSpeed 0
par DataLinkVisualizerFilteringShowcase.visualizer.canvasVisualizer.physicalLinkVisualizer holdAnimationTime 0s
attr unit s
par DataLinkVisualizerFilteringShowcase.visualizer.canvasVisualizer.physicalLinkVisualizer zIndex 1
par DataLinkVisualizerFilteringShowcase.visualizer.canvasVisualizer.interfaceTableVisualizer typename "\"inet.visualizer.canvas.linklayer.InterfaceTableCanvasVisualizer\""
par DataLinkVisualizerFilteringShowcase.visualizer.canvasVisualizer.interfaceTableVisualizer visualizationTargetModule "\"^.^.^\""
par DataLinkVisualizerFilteringShowcase.visualizer.canvasVisualizer.interfaceTableVisualizer visualizationSubjectModule "\"^.^.^\""
par DataLinkVisualizerFilteringShowcase.visualizer.canvasVisualizer.interfaceTableVisualizer tags "\"\""
par DataLinkVisualizerFilteringShowcase.visualizer.canvasVisualizer.interfaceTableVisualizer networkNodeVisualizerModule "\"^.networkNodeVisualizer\""
par DataLinkVisualizerFilteringShowcase.visualizer.canvasVisualizer.interfaceTableVisualizer displayInterfaceTables false
par DataLinkVisualizerFilteringShowcase.visualizer.canvasVisualizer.interfaceTableVisualizer displayWiredInterfacesAtConnections true
par DataLinkVisualizerFilteringShowcase.visualizer.canvasVisualizer.interfaceTableVisualizer displayBackground false
par DataLinkVisualizerFilteringShowcase.visualizer.canvasVisualizer.interfaceTableVisualizer nodeFilter "\"*\""
attr mutable ""
par DataLinkVisualizerFilteringShowcase.visualizer.canvasVisualizer.interfaceTableVisualizer interfaceFilter "\"not(lo*)\""
attr mutable ""
par DataLinkVisualizerFilteringShowcase.visualizer.canvasVisualizer.interfaceTableVisualizer format "\"%N %\\\\%a%/%l\""
attr mutable ""
par DataLinkVisualizerFilteringShowcase.visualizer.canvasVisualizer.interfaceTableVisualizer placementHint "\"top\""
par DataLinkVisualizerFilteringShowcase.visualizer.canvasVisualizer.interfaceTableVisualizer placementPriority 0
par DataLinkVisualizerFilteringShowcase.visualizer.canvasVisualizer.interfaceTableVisualizer font "\"<default>\""
par DataLinkVisualizerFilteringShowcase.visualizer.canvasVisualizer.interfaceTableVisualizer textColor "\"#005030\""
par DataLinkVisualizerFilteringShowcase.visualizer.canvasVisualizer.interfaceTableVisualizer backgroundColor "\"white\""
par DataLinkVisualizerFilteringShowcase.visualizer.canvasVisualizer.interfaceTableVisualizer opacity 1
par DataLinkVisualizerFilteringShowcase.visualizer.canvasVisualizer.interfaceTableVisualizer zIndex 10
par DataLinkVisualizerFilteringShowcase.visualizer.canvasVisualizer.dataLinkVisualizer typename "\"inet.visualizer.canvas.linklayer.DataLinkCanvasVisualizer\""
par DataLinkVisualizerFilteringShowcase.visualizer.canvasVisualizer.dataLinkVisualizer visualizationTargetModule "\"^.^.^\""
par DataLinkVisualizerFilteringShowcase.visualizer.canvasVisualizer.dataLinkVisualizer visualizationSubjectModule "\"^.^.^\""
par DataLinkVisualizerFilteringShowcase.visualizer.canvasVisualizer.dataLinkVisualizer tags "\"\""
par DataLinkVisualizerFilteringShowcase.visualizer.canvasVisualizer.dataLinkVisualizer displayLinks true
par DataLinkVisualizerFilteringShowcase.visualizer.canvasVisualizer.dataLinkVisualizer activityLevel "\"service\""
attr enum service,peer,protocol
par DataLinkVisualizerFilteringShowcase.visualizer.canvasVisualizer.dataLinkVisualizer nodeFilter "\"source1 or etherSwitch{1,2,4} or destination1\""
attr mutable ""
par DataLinkVisualizerFilteringShowcase.visualizer.canvasVisualizer.dataLinkVisualizer interfaceFilter "\"*\""
attr mutable ""
par DataLinkVisualizerFilteringShowcase.visualizer.canvasVisualizer.dataLinkVisualizer packetFilter "(omnetpp::cValueHolder)holder: \"ping*\""
attr mutable ""
par DataLinkVisualizerFilteringShowcase.visualizer.canvasVisualizer.dataLinkVisualizer lineColor "\"darkcyan\""
par DataLinkVisualizerFilteringShowcase.visualizer.canvasVisualizer.dataLinkVisualizer lineStyle "\"solid\""
par DataLinkVisualizerFilteringShowcase.visualizer.canvasVisualizer.dataLinkVisualizer lineWidth 3
par DataLinkVisualizerFilteringShowcase.visualizer.canvasVisualizer.dataLinkVisualizer lineShift 16
par DataLinkVisualizerFilteringShowcase.visualizer.canvasVisualizer.dataLinkVisualizer lineShiftMode "\"normal\""
par DataLinkVisualizerFilteringShowcase.visualizer.canvasVisualizer.dataLinkVisualizer lineContactSpacing 3
par DataLinkVisualizerFilteringShowcase.visualizer.canvasVisualizer.dataLinkVisualizer lineContactMode "\"rectangular\""
attr enum circular,rectangular
par DataLinkVisualizerFilteringShowcase.visualizer.canvasVisualizer.dataLinkVisualizer labelFormat "\"%n\""
par DataLinkVisualizerFilteringShowcase.visualizer.canvasVisualizer.dataLinkVisualizer labelFont "\"<default>, 8px\""
par DataLinkVisualizerFilteringShowcase.visualizer.canvasVisualizer.dataLinkVisualizer labelColor "\"darkcyan\""
par DataLinkVisualizerFilteringShowcase.visualizer.canvasVisualizer.dataLinkVisualizer fadeOutMode "\"simulationTime\""
attr enum realTime,animationTime,simulationTime
par DataLinkVisualizerFilteringShowcase.visualizer.canvasVisualizer.dataLinkVisualizer fadeOutTime 1.4s
attr unit s
par DataLinkVisualizerFilteringShowcase.visualizer.canvasVisualizer.dataLinkVisualizer fadeOutAnimationSpeed 0
par DataLinkVisualizerFilteringShowcase.visualizer.canvasVisualizer.dataLinkVisualizer holdAnimationTime 0s
attr unit s
par DataLinkVisualizerFilteringShowcase.visualizer.canvasVisualizer.dataLinkVisualizer zIndex 2
par DataLinkVisualizerFilteringShowcase.visualizer.canvasVisualizer.linkBreakVisualizer typename "\"inet.visualizer.canvas.linklayer.LinkBreakCanvasVisualizer\""
par DataLinkVisualizerFilteringShowcase.visualizer.canvasVisualizer.linkBreakVisualizer visualizationTargetModule "\"^.^.^\""
par DataLinkVisualizerFilteringShowcase.visualizer.canvasVisualizer.linkBreakVisualizer visualizationSubjectModule "\"^.^.^\""
par DataLinkVisualizerFilteringShowcase.visualizer.canvasVisualizer.linkBreakVisualizer tags "\"\""
par DataLinkVisualizerFilteringShowcase.visualizer.canvasVisualizer.linkBreakVisualizer displayLinkBreaks false
par DataLinkVisualizerFilteringShowcase.visualizer.canvasVisualizer.linkBreakVisualizer nodeFilter "\"*\""
attr mutable ""
par DataLinkVisualizerFilteringShowcase.visualizer.canvasVisualizer.linkBreakVisualizer interfaceFilter "\"*\""
attr mutable ""
par DataLinkVisualizerFilteringShowcase.visualizer.canvasVisualizer.linkBreakVisualizer packetFilter "(omnetpp::cValueHolder)holder: \"*\""
attr mutable ""
par DataLinkVisualizerFilteringShowcase.visualizer.canvasVisualizer.linkBreakVisualizer icon "\"status/stop\""
par DataLinkVisualizerFilteringShowcase.visualizer.canvasVisualizer.linkBreakVisualizer iconTintAmount 0
par DataLinkVisualizerFilteringShowcase.visualizer.canvasVisualizer.linkBreakVisualizer iconTintColor "\"\""
par DataLinkVisualizerFilteringShowcase.visualizer.canvasVisualizer.linkBreakVisualizer fadeOutMode "\"realTime\""
attr enum realTime,animationTime,simulationTime
par DataLinkVisualizerFilteringShowcase.visualizer.canvasVisualizer.linkBreakVisualizer fadeOutTime 1s
attr unit s
par DataLinkVisualizerFilteringShowcase.visualizer.canvasVisualizer.linkBreakVisualizer fadeOutAnimationSpeed 0
par DataLinkVisualizerFilteringShowcase.visualizer.canvasVisualizer.linkBreakVisualizer zIndex 2
par DataLinkVisualizerFilteringShowcase.visualizer.canvasVisualizer.ieee80211Visualizer typename "\"inet.visualizer.canvas.linklayer.Ieee80211CanvasVisualizer\""
par DataLinkVisualizerFilteringShowcase.visualizer.canvasVisualizer.ieee80211Visualizer visualizationTargetModule "\"^.^.^\""
par DataLinkVisualizerFilteringShowcase.visualizer.canvasVisualizer.ieee80211Visualizer visualizationSubjectModule "\"^.^.^\""
par DataLinkVisualizerFilteringShowcase.visualizer.canvasVisualizer.ieee80211Visualizer tags "\"\""
par DataLinkVisualizerFilteringShowcase.visualizer.canvasVisualizer.ieee80211Visualizer networkNodeVisualizerModule "\"^.networkNodeVisualizer\""
par DataLinkVisualizerFilteringShowcase.visualizer.canvasVisualizer.ieee80211Visualizer displayAssociations false
par DataLinkVisualizerFilteringShowcase.visualizer.canvasVisualizer.ieee80211Visualizer nodeFilter "\"*\""
attr mutable ""
par DataLinkVisualizerFilteringShowcase.visualizer.canvasVisualizer.ieee80211Visualizer interfaceFilter "\"*\""
attr mutable ""
par DataLinkVisualizerFilteringShowcase.visualizer.canvasVisualizer.ieee80211Visualizer minPower -85dBm
attr unit dBm
par DataLinkVisualizerFilteringShowcase.visualizer.canvasVisualizer.ieee80211Visualizer maxPower -50dBm
attr unit dBm
par DataLinkVisualizerFilteringShowcase.visualizer.canvasVisualizer.ieee80211Visualizer icons "\"misc/signal_power_0 misc/signal_power_1 misc/signal_power_2 misc/signal_power_3\""
par DataLinkVisualizerFilteringShowcase.visualizer.canvasVisualizer.ieee80211Visualizer iconColor "\"dark\""
attr enum light,dark
par DataLinkVisualizerFilteringShowcase.visualizer.canvasVisualizer.ieee80211Visualizer labelFont "\"<default>\""
par DataLinkVisualizerFilteringShowcase.visualizer.canvasVisualizer.ieee80211Visualizer labelColor "\"black\""
par DataLinkVisualizerFilteringShowcase.visualizer.canvasVisualizer.ieee80211Visualizer placementHint "\"top\""
par DataLinkVisualizerFilteringShowcase.visualizer.canvasVisualizer.ieee80211Visualizer placementPriority 0
par DataLinkVisualizerFilteringShowcase.visualizer.canvasVisualizer.ieee80211Visualizer zIndex 2
par DataLinkVisualizerFilteringShowcase.visualizer.canvasVisualizer.networkRouteVisualizer typename "\"inet.visualizer.canvas.networklayer.NetworkRouteCanvasVisualizer\""
par DataLinkVisualizerFilteringShowcase.visualizer.canvasVisualizer.networkRouteVisualizer visualizationTargetModule "\"^.^.^\""
par DataLinkVisualizerFilteringShowcase.visualizer.canvasVisualizer.networkRouteVisualizer visualizationSubjectModule "\"^.^.^\""
par DataLinkVisualizerFilteringShowcase.visualizer.canvasVisualizer.networkRouteVisualizer tags "\"\""
par DataLinkVisualizerFilteringShowcase.visualizer.canvasVisualizer.networkRouteVisualizer displayRoutes false
par DataLinkVisualizerFilteringShowcase.visualizer.canvasVisualizer.networkRouteVisualizer startPathSignal "\"packetReceivedFromUpper\""
par DataLinkVisualizerFilteringShowcase.visualizer.canvasVisualizer.networkRouteVisualizer extendPathSignal "\"packetReceivedFromLower\""
par DataLinkVisualizerFilteringShowcase.visualizer.canvasVisualizer.networkRouteVisualizer endPathSignal "\"packetSentToUpper\""
par DataLinkVisualizerFilteringShowcase.visualizer.canvasVisualizer.networkRouteVisualizer nodeFilter "\"*\""
attr mutable ""
par DataLinkVisualizerFilteringShowcase.visualizer.canvasVisualizer.networkRouteVisualizer packetFilter "(omnetpp::cValueHolder)holder: \"*\""
attr mutable ""
par DataLinkVisualizerFilteringShowcase.visualizer.canvasVisualizer.networkRouteVisualizer lineColor "\"dark\""
attr enum light,dark
par DataLinkVisualizerFilteringShowcase.visualizer.canvasVisualizer.networkRouteVisualizer lineStyle "\"solid\""
par DataLinkVisualizerFilteringShowcase.visualizer.canvasVisualizer.networkRouteVisualizer lineWidth 3
par DataLinkVisualizerFilteringShowcase.visualizer.canvasVisualizer.networkRouteVisualizer lineSmooth false
par DataLinkVisualizerFilteringShowcase.visualizer.canvasVisualizer.networkRouteVisualizer lineShift 16
par DataLinkVisualizerFilteringShowcase.visualizer.canvasVisualizer.networkRouteVisualizer lineShiftMode "\"normal\""
par DataLinkVisualizerFilteringShowcase.visualizer.canvasVisualizer.networkRouteVisualizer lineContactSpacing 3
par DataLinkVisualizerFilteringShowcase.visualizer.canvasVisualizer.networkRouteVisualizer lineContactMode "\"rectangular\""
attr enum circular,rectangular
par DataLinkVisualizerFilteringShowcase.visualizer.canvasVisualizer.networkRouteVisualizer labelFormat "\"%n\""
par DataLinkVisualizerFilteringShowcase.visualizer.canvasVisualizer.networkRouteVisualizer labelFont "\"<default>, 8px\""
par DataLinkVisualizerFilteringShowcase.visualizer.canvasVisualizer.networkRouteVisualizer labelColor "\"\""
par DataLinkVisualizerFilteringShowcase.visualizer.canvasVisualizer.networkRouteVisualizer fadeOutMode "\"realTime\""
attr enum realTime,animationTime,simulationTime
par DataLinkVisualizerFilteringShowcase.visualizer.canvasVisualizer.networkRouteVisualizer fadeOutTime 1s
attr unit s
par DataLinkVisualizerFilteringShowcase.visualizer.canvasVisualizer.networkRouteVisualizer fadeOutAnimationSpeed 0
par DataLinkVisualizerFilteringShowcase.visualizer.canvasVisualizer.networkRouteVisualizer zIndex 3
par DataLinkVisualizerFilteringShowcase.visualizer.canvasVisualizer.routingTableVisualizer typename "\"inet.visualizer.canvas.networklayer.RoutingTableCanvasVisualizer\""
par DataLinkVisualizerFilteringShowcase.visualizer.canvasVisualizer.routingTableVisualizer visualizationTargetModule "\"^.^.^\""
par DataLinkVisualizerFilteringShowcase.visualizer.canvasVisualizer.routingTableVisualizer visualizationSubjectModule "\"^.^.^\""
par DataLinkVisualizerFilteringShowcase.visualizer.canvasVisualizer.routingTableVisualizer tags "\"\""
par DataLinkVisualizerFilteringShowcase.visualizer.canvasVisualizer.routingTableVisualizer displayRoutingTables false
par DataLinkVisualizerFilteringShowcase.visualizer.canvasVisualizer.routingTableVisualizer displayRoutesIndividually true
par DataLinkVisualizerFilteringShowcase.visualizer.canvasVisualizer.routingTableVisualizer displayLabels true
par DataLinkVisualizerFilteringShowcase.visualizer.canvasVisualizer.routingTableVisualizer destinationFilter "\"*\""
attr mutable ""
par DataLinkVisualizerFilteringShowcase.visualizer.canvasVisualizer.routingTableVisualizer nodeFilter "\"*\""
attr mutable ""
par DataLinkVisualizerFilteringShowcase.visualizer.canvasVisualizer.routingTableVisualizer lineColor "\"black\""
par DataLinkVisualizerFilteringShowcase.visualizer.canvasVisualizer.routingTableVisualizer lineStyle "\"solid\""
par DataLinkVisualizerFilteringShowcase.visualizer.canvasVisualizer.routingTableVisualizer lineWidth 2
par DataLinkVisualizerFilteringShowcase.visualizer.canvasVisualizer.routingTableVisualizer lineShift 16
par DataLinkVisualizerFilteringShowcase.visualizer.canvasVisualizer.routingTableVisualizer lineShiftMode "\"normal\""
par DataLinkVisualizerFilteringShowcase.visualizer.canvasVisualizer.routingTableVisualizer lineContactSpacing 3
par DataLinkVisualizerFilteringShowcase.visualizer.canvasVisualizer.routingTableVisualizer lineContactMode "\"rectangular\""
attr enum circular,rectangular
par DataLinkVisualizerFilteringShowcase.visualizer.canvasVisualizer.routingTableVisualizer labelFormat "\"%d/%m -> %g (%n)\""
attr mutable ""
par DataLinkVisualizerFilteringShowcase.visualizer.canvasVisualizer.routingTableVisualizer labelFont "\"<default>, 8px\""
par DataLinkVisualizerFilteringShowcase.visualizer.canvasVisualizer.routingTableVisualizer labelColor "\"black\""
par DataLinkVisualizerFilteringShowcase.visualizer.canvasVisualizer.routingTableVisualizer zIndex 0
par DataLinkVisualizerFilteringShowcase.visualizer.canvasVisualizer.transportRouteVisualizer typename "\"inet.visualizer.canvas.transportlayer.TransportRouteCanvasVisualizer\""
par DataLinkVisualizerFilteringShowcase.visualizer.canvasVisualizer.transportRouteVisualizer visualizationTargetModule "\"^.^.^\""
par DataLinkVisualizerFilteringShowcase.visualizer.canvasVisualizer.transportRouteVisualizer visualizationSubjectModule "\"^.^.^\""
par DataLinkVisualizerFilteringShowcase.visualizer.canvasVisualizer.transportRouteVisualizer tags "\"\""
par DataLinkVisualizerFilteringShowcase.visualizer.canvasVisualizer.transportRouteVisualizer displayRoutes false
par DataLinkVisualizerFilteringShowcase.visualizer.canvasVisualizer.transportRouteVisualizer startPathSignal "\"packetReceivedFromUpper\""
par DataLinkVisualizerFilteringShowcase.visualizer.canvasVisualizer.transportRouteVisualizer extendPathSignal "\"packetReceivedFromLower\""
par DataLinkVisualizerFilteringShowcase.visualizer.canvasVisualizer.transportRouteVisualizer endPathSignal "\"packetSentToUpper\""
par DataLinkVisualizerFilteringShowcase.visualizer.canvasVisualizer.transportRouteVisualizer nodeFilter "\"*\""
attr mutable ""
par DataLinkVisualizerFilteringShowcase.visualizer.canvasVisualizer.transportRouteVisualizer packetFilter "(omnetpp::cValueHolder)holder: \"*\""
attr mutable ""
par DataLinkVisualizerFilteringShowcase.visualizer.canvasVisualizer.transportRouteVisualizer lineColor "\"dark\""
attr enum light,dark
par DataLinkVisualizerFilteringShowcase.visualizer.canvasVisualizer.transportRouteVisualizer lineStyle "\"solid\""
par DataLinkVisualizerFilteringShowcase.visualizer.canvasVisualizer.transportRouteVisualizer lineWidth 3
par DataLinkVisualizerFilteringShowcase.visualizer.canvasVisualizer.transportRouteVisualizer lineSmooth false
par DataLinkVisualizerFilteringShowcase.visualizer.canvasVisualizer.transportRouteVisualizer lineShift 16
par DataLinkVisualizerFilteringShowcase.visualizer.canvasVisualizer.transportRouteVisualizer lineShiftMode "\"normal\""
par DataLinkVisualizerFilteringShowcase.visualizer.canvasVisualizer.transportRouteVisualizer lineContactSpacing 3
par DataLinkVisualizerFilteringShowcase.visualizer.canvasVisualizer.transportRouteVisualizer lineContactMode "\"rectangular\""
attr enum circular,rectangular
par DataLinkVisualizerFilteringShowcase.visualizer.canvasVisualizer.transportRouteVisualizer labelFormat "\"%n\""
par DataLinkVisualizerFilteringShowcase.visualizer.canvasVisualizer.transportRouteVisualizer labelFont "\"<default>, 8px\""
par DataLinkVisualizerFilteringShowcase.visualizer.canvasVisualizer.transportRouteVisualizer labelColor "\"\""
par DataLinkVisualizerFilteringShowcase.visualizer.canvasVisualizer.transportRouteVisualizer fadeOutMode "\"realTime\""
attr enum realTime,animationTime,simulationTime
par DataLinkVisualizerFilteringShowcase.visualizer.canvasVisualizer.transportRouteVisualizer fadeOutTime 1s
attr unit s
par DataLinkVisualizerFilteringShowcase.visualizer.canvasVisualizer.transportRouteVisualizer fadeOutAnimationSpeed 0
par DataLinkVisualizerFilteringShowcase.visualizer.canvasVisualizer.transportRouteVisualizer zIndex 4
par DataLinkVisualizerFilteringShowcase.visualizer.canvasVisualizer.transportConnectionVisualizer typename "\"inet.visualizer.canvas.transportlayer.TransportConnectionCanvasVisualizer\""
par DataLinkVisualizerFilteringShowcase.visualizer.canvasVisualizer.transportConnectionVisualizer visualizationTargetModule "\"^.^.^\""
par DataLinkVisualizerFilteringShowcase.visualizer.canvasVisualizer.transportConnectionVisualizer visualizationSubjectModule "\"^.^.^\""
par DataLinkVisualizerFilteringShowcase.visualizer.canvasVisualizer.transportConnectionVisualizer tags "\"\""
par DataLinkVisualizerFilteringShowcase.visualizer.canvasVisualizer.transportConnectionVisualizer networkNodeVisualizerModule "\"^.networkNodeVisualizer\""
par DataLinkVisualizerFilteringShowcase.visualizer.canvasVisualizer.transportConnectionVisualizer displayTransportConnections false
par DataLinkVisualizerFilteringShowcase.visualizer.canvasVisualizer.transportConnectionVisualizer sourceNodeFilter "\"*\""
attr mutable ""
par DataLinkVisualizerFilteringShowcase.visualizer.canvasVisualizer.transportConnectionVisualizer sourcePortFilter "\"*\""
attr mutable ""
par DataLinkVisualizerFilteringShowcase.visualizer.canvasVisualizer.transportConnectionVisualizer destinationNodeFilter "\"*\""
attr mutable ""
par DataLinkVisualizerFilteringShowcase.visualizer.canvasVisualizer.transportConnectionVisualizer destinationPortFilter "\"*\""
attr mutable ""
par DataLinkVisualizerFilteringShowcase.visualizer.canvasVisualizer.transportConnectionVisualizer icon "\"misc/marker_s\""
par DataLinkVisualizerFilteringShowcase.visualizer.canvasVisualizer.transportConnectionVisualizer iconColor "\"dark\""
attr enum light,dark
par DataLinkVisualizerFilteringShowcase.visualizer.canvasVisualizer.transportConnectionVisualizer labelFont "\"<default>\""
par DataLinkVisualizerFilteringShowcase.visualizer.canvasVisualizer.transportConnectionVisualizer labelColor "\"black\""
par DataLinkVisualizerFilteringShowcase.visualizer.canvasVisualizer.transportConnectionVisualizer placementHint "\"top\""
par DataLinkVisualizerFilteringShowcase.visualizer.canvasVisualizer.transportConnectionVisualizer placementPriority 0
par DataLinkVisualizerFilteringShowcase.visualizer.canvasVisualizer.transportConnectionVisualizer zIndex 4
par DataLinkVisualizerFilteringShowcase.visualizer.canvasVisualizer.failureProtectionConfigurationVisualizer typename "\"inet.visualizer.canvas.configurator.FailureProtectionConfigurationCanvasVisualizer\""
[...]
attr mutable ""
par DataLinkVisualizerFilteringShowcase.host2.eth[0] duplexMode true
par DataLinkVisualizerFilteringShowcase.host2.eth[0] csmacdSupport false
par DataLinkVisualizerFilteringShowcase.host2.eth[0] bitrate 0bps
attr unit bps
par DataLinkVisualizerFilteringShowcase.host2.eth[0] fcsMode "\"declared\""
attr enum declared,computed
scalar DataLinkVisualizerFilteringShowcase.host2.eth[0] packetDropInterfaceDown:count 0
attr interpolationmode none
attr recordingmode count
attr source packetDropReasonIsInterfaceDown(packetDropped)
attr title "packet drops: interface down, count"
scalar DataLinkVisualizerFilteringShowcase.host2.eth[0] packetDropInterfaceDown:sum(packetBytes) 0
attr interpolationmode none
attr recordingmode sum(packetBytes)
attr source packetDropReasonIsInterfaceDown(packetDropped)
attr title "packet drops: interface down, sum(packetBytes)"
scalar DataLinkVisualizerFilteringShowcase.host2.eth[0] packetDropNoCarrier:count 0
attr interpolationmode none
attr recordingmode count
attr source packetDropReasonIsNoCarrier(packetDropped)
attr title "packet drops: no carrier, count"
scalar DataLinkVisualizerFilteringShowcase.host2.eth[0] packetDropNoCarrier:sum(packetBytes) 0
attr interpolationmode none
attr recordingmode sum(packetBytes)
attr source packetDropReasonIsNoCarrier(packetDropped)
attr title "packet drops: no carrier, sum(packetBytes)"
par DataLinkVisualizerFilteringShowcase.host2.ipv4.transportIn.channel typename "\"ned.IdealChannel\""
par DataLinkVisualizerFilteringShowcase.host2.ipv4.up.out[0].channel typename "\"ned.IdealChannel\""
par DataLinkVisualizerFilteringShowcase.host2.ipv4.lp.out[2].channel typename "\"ned.IdealChannel\""
par DataLinkVisualizerFilteringShowcase.host2.ipv4.ifIn.channel typename "\"ned.IdealChannel\""
par DataLinkVisualizerFilteringShowcase.host2.ipv4.configurator typename "\"inet.networklayer.configurator.ipv4.Ipv4NodeConfigurator\""
par DataLinkVisualizerFilteringShowcase.host2.ipv4.configurator interfaceTableModule "\"DataLinkVisualizerFilteringShowcase.host2.interfaceTable\""
par DataLinkVisualizerFilteringShowcase.host2.ipv4.configurator routingTableModule "\"DataLinkVisualizerFilteringShowcase.host2.ipv4.routingTable\""
par DataLinkVisualizerFilteringShowcase.host2.ipv4.configurator networkConfiguratorModule "\"configurator\""
par DataLinkVisualizerFilteringShowcase.host2.ipv4.configurator configureRoutingTable true
par DataLinkVisualizerFilteringShowcase.host2.ipv4.routingTable typename "\"inet.networklayer.ipv4.Ipv4RoutingTable\""
par DataLinkVisualizerFilteringShowcase.host2.ipv4.routingTable interfaceTableModule "\"DataLinkVisualizerFilteringShowcase.host2.interfaceTable\""
par DataLinkVisualizerFilteringShowcase.host2.ipv4.routingTable routerId "\"auto\""
par DataLinkVisualizerFilteringShowcase.host2.ipv4.routingTable netmaskRoutes "\"*\""
par DataLinkVisualizerFilteringShowcase.host2.ipv4.routingTable forwarding false
par DataLinkVisualizerFilteringShowcase.host2.ipv4.routingTable multicastForwarding false
par DataLinkVisualizerFilteringShowcase.host2.ipv4.routingTable useAdminDist false
par DataLinkVisualizerFilteringShowcase.host2.ipv4.routingTable routingFile "\"\""
par DataLinkVisualizerFilteringShowcase.host2.ipv4.natTable typename "\"inet.networklayer.ipv4.Ipv4NatTable\""
par DataLinkVisualizerFilteringShowcase.host2.ipv4.natTable networkProtocolModule "\"^.ip\""
par DataLinkVisualizerFilteringShowcase.host2.ipv4.natTable config "<config/> at content:1"
par DataLinkVisualizerFilteringShowcase.host2.ipv4.up typename "\"inet.common.MessageDispatcher\""
par DataLinkVisualizerFilteringShowcase.host2.ipv4.up displayStringTextFormat "\"processed %p pk (%l)\""
par DataLinkVisualizerFilteringShowcase.host2.ipv4.up forwardServiceRegistration true
par DataLinkVisualizerFilteringShowcase.host2.ipv4.up forwardProtocolRegistration true
par DataLinkVisualizerFilteringShowcase.host2.ipv4.igmp typename "\"inet.networklayer.ipv4.Igmpv2\""
par DataLinkVisualizerFilteringShowcase.host2.ipv4.igmp interfaceTableModule "\"DataLinkVisualizerFilteringShowcase.host2.interfaceTable\""
par DataLinkVisualizerFilteringShowcase.host2.ipv4.igmp routingTableModule "\"DataLinkVisualizerFilteringShowcase.host2.ipv4.routingTable\""
par DataLinkVisualizerFilteringShowcase.host2.ipv4.igmp crcMode "\"declared\""
attr enum declared,computed
par DataLinkVisualizerFilteringShowcase.host2.ipv4.igmp enabled true
par DataLinkVisualizerFilteringShowcase.host2.ipv4.igmp robustnessVariable 2
par DataLinkVisualizerFilteringShowcase.host2.ipv4.igmp queryInterval 125s
attr unit s
par DataLinkVisualizerFilteringShowcase.host2.ipv4.igmp queryResponseInterval 10s
attr unit s
par DataLinkVisualizerFilteringShowcase.host2.ipv4.igmp groupMembershipInterval 260s
attr unit s
par DataLinkVisualizerFilteringShowcase.host2.ipv4.igmp otherQuerierPresentInterval 255s
attr unit s
par DataLinkVisualizerFilteringShowcase.host2.ipv4.igmp startupQueryInterval 31.25s
attr unit s
par DataLinkVisualizerFilteringShowcase.host2.ipv4.igmp startupQueryCount 2
par DataLinkVisualizerFilteringShowcase.host2.ipv4.igmp lastMemberQueryInterval 1s
attr unit s
par DataLinkVisualizerFilteringShowcase.host2.ipv4.igmp lastMemberQueryCount 2
par DataLinkVisualizerFilteringShowcase.host2.ipv4.igmp unsolicitedReportInterval 10s
attr unit s
par DataLinkVisualizerFilteringShowcase.host2.ipv4.icmp typename "\"inet.networklayer.ipv4.Icmp\""
par DataLinkVisualizerFilteringShowcase.host2.ipv4.icmp interfaceTableModule "\"DataLinkVisualizerFilteringShowcase.host2.interfaceTable\""
par DataLinkVisualizerFilteringShowcase.host2.ipv4.icmp routingTableModule "\"DataLinkVisualizerFilteringShowcase.host2.ipv4.routingTable\""
par DataLinkVisualizerFilteringShowcase.host2.ipv4.icmp crcMode "\"declared\""
attr enum declared,computed
attr mutable ""
par DataLinkVisualizerFilteringShowcase.host2.ipv4.icmp quoteLength 8B
attr mutable ""
attr unit B
par DataLinkVisualizerFilteringShowcase.host2.ipv4.mp typename "\"inet.common.MessageDispatcher\""
par DataLinkVisualizerFilteringShowcase.host2.ipv4.mp displayStringTextFormat "\"processed %p pk (%l)\""
par DataLinkVisualizerFilteringShowcase.host2.ipv4.mp forwardServiceRegistration true
par DataLinkVisualizerFilteringShowcase.host2.ipv4.mp forwardProtocolRegistration true
par DataLinkVisualizerFilteringShowcase.host2.ipv4.ip typename "\"inet.networklayer.ipv4.Ipv4\""
par DataLinkVisualizerFilteringShowcase.host2.ipv4.ip interfaceTableModule "\"DataLinkVisualizerFilteringShowcase.host2.interfaceTable\""
par DataLinkVisualizerFilteringShowcase.host2.ipv4.ip routingTableModule "\"DataLinkVisualizerFilteringShowcase.host2.ipv4.routingTable\""
par DataLinkVisualizerFilteringShowcase.host2.ipv4.ip arpModule "\"DataLinkVisualizerFilteringShowcase.host2.ipv4.arp\""
par DataLinkVisualizerFilteringShowcase.host2.ipv4.ip icmpModule "\"DataLinkVisualizerFilteringShowcase.host2.ipv4.icmp\""
par DataLinkVisualizerFilteringShowcase.host2.ipv4.ip crcMode "\"declared\""
attr enum declared,computed
par DataLinkVisualizerFilteringShowcase.host2.ipv4.ip timeToLive 32
par DataLinkVisualizerFilteringShowcase.host2.ipv4.ip multicastTimeToLive 32
par DataLinkVisualizerFilteringShowcase.host2.ipv4.ip fragmentTimeout 60s
attr unit s
par DataLinkVisualizerFilteringShowcase.host2.ipv4.ip limitedBroadcast false
par DataLinkVisualizerFilteringShowcase.host2.ipv4.ip directBroadcastInterfaces "\"\""
scalar DataLinkVisualizerFilteringShowcase.host2.ipv4.ip packetDropAddressResolutionFailed:count 0
attr interpolationmode none
attr recordingmode count
attr source packetDropReasonIsAddressResolutionFailed(packetDropped)
attr title "packet drop: address resolution failed, count"
scalar DataLinkVisualizerFilteringShowcase.host2.ipv4.ip packetDropAddressResolutionFailed:sum(packetBytes) 0
attr interpolationmode none
attr recordingmode sum(packetBytes)
attr source packetDropReasonIsAddressResolutionFailed(packetDropped)
attr title "packet drop: address resolution failed, sum(packetBytes)"
scalar DataLinkVisualizerFilteringShowcase.host2.ipv4.ip packetDropHopLimitReached:count 0
attr interpolationmode none
attr recordingmode count
attr source packetDropReasonIsHopLimitReached(packetDropped)
attr title "packet drop: hop limit reached, count"
scalar DataLinkVisualizerFilteringShowcase.host2.ipv4.ip packetDropHopLimitReached:sum(packetBytes) 0
attr interpolationmode none
attr recordingmode sum(packetBytes)
attr source packetDropReasonIsHopLimitReached(packetDropped)
attr title "packet drop: hop limit reached, sum(packetBytes)"
scalar DataLinkVisualizerFilteringShowcase.host2.ipv4.ip packetDropForwardingDisabled:count 0
attr interpolationmode none
attr recordingmode count
attr source packetDropReasonIsForwardingDisabled(packetDropped)
attr title "packet drop: forwarding disabled, count"
scalar DataLinkVisualizerFilteringShowcase.host2.ipv4.ip packetDropForwardingDisabled:sum(packetBytes) 0
attr interpolationmode none
attr recordingmode sum(packetBytes)
attr source packetDropReasonIsForwardingDisabled(packetDropped)
attr title "packet drop: forwarding disabled, sum(packetBytes)"
scalar DataLinkVisualizerFilteringShowcase.host2.ipv4.ip packetDropNoInterfaceFound:count 0
attr interpolationmode none
attr recordingmode count
attr source packetDropReasonIsNoInterfaceFound(packetDropped)
attr title "packet drop: no interface found, count"
scalar DataLinkVisualizerFilteringShowcase.host2.ipv4.ip packetDropNoInterfaceFound:sum(packetBytes) 0
attr interpolationmode none
attr recordingmode sum(packetBytes)
attr source packetDropReasonIsNoInterfaceFound(packetDropped)
attr title "packet drop: no interface found, sum(packetBytes)"
scalar DataLinkVisualizerFilteringShowcase.host2.ipv4.ip packetDropNoRouteFound:count 0
attr interpolationmode none
attr recordingmode count
attr source packetDropReasonIsNoRouteFound(packetDropped)
attr title "packet drop: no route found, count"
scalar DataLinkVisualizerFilteringShowcase.host2.ipv4.ip packetDropNoRouteFound:sum(packetBytes) 0
attr interpolationmode none
attr recordingmode sum(packetBytes)
attr source packetDropReasonIsNoRouteFound(packetDropped)
attr title "packet drop: no route found, sum(packetBytes)"
scalar DataLinkVisualizerFilteringShowcase.host2.ipv4.ip packetDropUndefined:count 0
attr interpolationmode none
attr recordingmode count
attr source packetDropReasonIsUndefined(packetDropped)
attr title "packet drop: undefined, count"
scalar DataLinkVisualizerFilteringShowcase.host2.ipv4.ip packetDropUndefined:sum(packetBytes) 0
attr interpolationmode none
attr recordingmode sum(packetBytes)
attr source packetDropReasonIsUndefined(packetDropped)
attr title "packet drop: undefined, sum(packetBytes)"
par DataLinkVisualizerFilteringShowcase.host2.ipv4.arp typename "\"inet.networklayer.arp.ipv4.Arp\""
par DataLinkVisualizerFilteringShowcase.host2.ipv4.arp interfaceTableModule "\"DataLinkVisualizerFilteringShowcase.host2.interfaceTable\""
par DataLinkVisualizerFilteringShowcase.host2.ipv4.arp routingTableModule "\"DataLinkVisualizerFilteringShowcase.host2.ipv4.routingTable\""
par DataLinkVisualizerFilteringShowcase.host2.ipv4.arp retryTimeout 1s
attr unit s
par DataLinkVisualizerFilteringShowcase.host2.ipv4.arp retryCount 3
par DataLinkVisualizerFilteringShowcase.host2.ipv4.arp cacheTimeout 120s
attr unit s
par DataLinkVisualizerFilteringShowcase.host2.ipv4.arp proxyArpInterfaces "\"\""
scalar DataLinkVisualizerFilteringShowcase.host2.ipv4.arp arpResolutionFailed:count 0
attr recordingmode count
attr title "ARP failed resolutions, count"
scalar DataLinkVisualizerFilteringShowcase.host2.ipv4.arp arpResolutionCompleted:count 0
attr recordingmode count
attr title "ARP completed resolutions, count"
scalar DataLinkVisualizerFilteringShowcase.host2.ipv4.arp arpResolutionInitiated:count 0
attr recordingmode count
attr title "ARP initiated resolutions, count"
scalar DataLinkVisualizerFilteringShowcase.host2.ipv4.arp arpReplySent:count 0
attr recordingmode count
attr source arpReplySent
attr title "ARP replies sent, count"
scalar DataLinkVisualizerFilteringShowcase.host2.ipv4.arp arpReplySent:sum(packetBytes) 0
attr recordingmode sum(packetBytes)
attr source arpReplySent
attr title "ARP replies sent, sum(packetBytes)"
scalar DataLinkVisualizerFilteringShowcase.host2.ipv4.arp arpRequestSent:count 0
attr recordingmode count
attr source arpRequestSent
attr title "ARP request sent, count"
scalar DataLinkVisualizerFilteringShowcase.host2.ipv4.arp arpRequestSent:sum(packetBytes) 0
attr recordingmode sum(packetBytes)
attr source arpRequestSent
attr title "ARP request sent, sum(packetBytes)"
par DataLinkVisualizerFilteringShowcase.host2.ipv4.lp typename "\"inet.common.MessageDispatcher\""
par DataLinkVisualizerFilteringShowcase.host2.ipv4.lp displayStringTextFormat "\"processed %p pk (%l)\""
par DataLinkVisualizerFilteringShowcase.host2.ipv4.lp forwardServiceRegistration true
par DataLinkVisualizerFilteringShowcase.host2.ipv4.lp forwardProtocolRegistration true
par DataLinkVisualizerFilteringShowcase.host2.ipv4 typename "\"inet.networklayer.ipv4.Ipv4NetworkLayer\""
par DataLinkVisualizerFilteringShowcase.host2.ipv4 forwarding false
par DataLinkVisualizerFilteringShowcase.host2.ipv4 multicastForwarding false
par DataLinkVisualizerFilteringShowcase.host2.ipv4 interfaceTableModule "\"DataLinkVisualizerFilteringShowcase.host2.interfaceTable\""
par DataLinkVisualizerFilteringShowcase.host2.ipv4 displayStringTextFormat "\"%i\""
par DataLinkVisualizerFilteringShowcase.host2.nl typename "\"inet.common.MessageDispatcher\""
par DataLinkVisualizerFilteringShowcase.host2.nl displayStringTextFormat "\"processed %p pk (%l)\""
par DataLinkVisualizerFilteringShowcase.host2.nl forwardServiceRegistration true
par DataLinkVisualizerFilteringShowcase.host2.nl forwardProtocolRegistration true
par DataLinkVisualizerFilteringShowcase.host2.udp typename "\"inet.transportlayer.udp.Udp\""
par DataLinkVisualizerFilteringShowcase.host2.udp interfaceTableModule "\"DataLinkVisualizerFilteringShowcase.host2.interfaceTable\""
par DataLinkVisualizerFilteringShowcase.host2.udp icmpModule "\"^.ipv4.icmp\""
par DataLinkVisualizerFilteringShowcase.host2.udp icmpv6Module "\"^.ipv6.icmpv6\""
par DataLinkVisualizerFilteringShowcase.host2.udp crcMode "\"declared\""
attr enum disabled,declared,computed
par DataLinkVisualizerFilteringShowcase.host2.udp defaultMulticastLoop true
scalar DataLinkVisualizerFilteringShowcase.host2.udp packetReceived:count 0
attr interpolationmode none
attr recordingmode count
attr source packetReceived
attr title "packets received, count"
scalar DataLinkVisualizerFilteringShowcase.host2.udp packetReceived:sum(packetBytes) 0
attr interpolationmode none
attr recordingmode sum(packetBytes)
attr source packetReceived
attr title "packets received, sum(packetBytes)"
scalar DataLinkVisualizerFilteringShowcase.host2.udp packetSent:count 0
attr interpolationmode none
attr recordingmode count
attr source packetSent
attr title "packets sent, count"
scalar DataLinkVisualizerFilteringShowcase.host2.udp packetSent:sum(packetBytes) 0
attr interpolationmode none
attr recordingmode sum(packetBytes)
attr source packetSent
attr title "packets sent, sum(packetBytes)"
scalar DataLinkVisualizerFilteringShowcase.host2.udp passedUpPk:count 0
attr interpolationmode none
attr recordingmode count
attr source packetSentToUpper
attr title "packets passed up, count"
scalar DataLinkVisualizerFilteringShowcase.host2.udp droppedPkWrongPort:count 0
attr interpolationmode none
attr recordingmode count
attr source packetDropReasonIsNoPortFound(packetDropped)
attr title "packets dropped (wrong port), count"
scalar DataLinkVisualizerFilteringShowcase.host2.udp droppedPkBadChecksum:count 0
attr interpolationmode none
attr recordingmode count
attr source packetDropReasonIsIncorrectlyReceived(packetDropped)
attr title "packets dropped (checksum error), count"
par DataLinkVisualizerFilteringShowcase.host2.tcp typename "\"inet.transportlayer.tcp.Tcp\""
par DataLinkVisualizerFilteringShowcase.host2.tcp crcMode "\"declared\""
attr enum declared,computed
par DataLinkVisualizerFilteringShowcase.host2.tcp advertisedWindow 7504
par DataLinkVisualizerFilteringShowcase.host2.tcp delayedAcksEnabled false
par DataLinkVisualizerFilteringShowcase.host2.tcp nagleEnabled true
par DataLinkVisualizerFilteringShowcase.host2.tcp limitedTransmitEnabled false
par DataLinkVisualizerFilteringShowcase.host2.tcp increasedIWEnabled false
par DataLinkVisualizerFilteringShowcase.host2.tcp sackSupport false
par DataLinkVisualizerFilteringShowcase.host2.tcp windowScalingSupport false
par DataLinkVisualizerFilteringShowcase.host2.tcp windowScalingFactor -1
par DataLinkVisualizerFilteringShowcase.host2.tcp timestampSupport false
par DataLinkVisualizerFilteringShowcase.host2.tcp mss 536
par DataLinkVisualizerFilteringShowcase.host2.tcp msl 120s
attr unit s
par DataLinkVisualizerFilteringShowcase.host2.tcp tcpAlgorithmClass "\"TcpReno\""
attr enum TcpVegas,TcpWestwood,TcpNewReno,TcpReno,TcpTahoe,TcpNoCongestionControl
par DataLinkVisualizerFilteringShowcase.host2.tcp useDataNotification false
par DataLinkVisualizerFilteringShowcase.host2.tcp dupthresh 3
par DataLinkVisualizerFilteringShowcase.host2.tcp initialSsthresh 4294967295
par DataLinkVisualizerFilteringShowcase.host2.tcp stopOperationExtraTime 0s
attr unit s
par DataLinkVisualizerFilteringShowcase.host2.tcp stopOperationTimeout 2s
attr unit s
par DataLinkVisualizerFilteringShowcase.host2.tcp ecnWillingness false
par DataLinkVisualizerFilteringShowcase.host2.tcp dctcpGamma 0.0625
par DataLinkVisualizerFilteringShowcase.host2.tn typename "\"inet.common.MessageDispatcher\""
par DataLinkVisualizerFilteringShowcase.host2.tn displayStringTextFormat "\"processed %p pk (%l)\""
par DataLinkVisualizerFilteringShowcase.host2.tn forwardServiceRegistration true
par DataLinkVisualizerFilteringShowcase.host2.tn forwardProtocolRegistration true
par DataLinkVisualizerFilteringShowcase.host2.at typename "\"inet.common.MessageDispatcher\""
par DataLinkVisualizerFilteringShowcase.host2.at displayStringTextFormat "\"processed %p pk (%l)\""
par DataLinkVisualizerFilteringShowcase.host2.at forwardServiceRegistration true
par DataLinkVisualizerFilteringShowcase.host2.at forwardProtocolRegistration true
par DataLinkVisualizerFilteringShowcase.host2 typename "\"inet.node.inet.StandardHost\""
par DataLinkVisualizerFilteringShowcase.host2 hasStatus false
par DataLinkVisualizerFilteringShowcase.host2 osgModel "\"\""
par DataLinkVisualizerFilteringShowcase.host2 osgModelColor "\"\""
par DataLinkVisualizerFilteringShowcase.host2 canvasImage "\"\""
par DataLinkVisualizerFilteringShowcase.host2 canvasImageColor "\"\""
par DataLinkVisualizerFilteringShowcase.host2 recordPcap false
par DataLinkVisualizerFilteringShowcase.host2 numPcapRecorders 0
par DataLinkVisualizerFilteringShowcase.host2 numLoInterfaces 1
par DataLinkVisualizerFilteringShowcase.host2 numWlanInterfaces 0
par DataLinkVisualizerFilteringShowcase.host2 numEthInterfaces 0
par DataLinkVisualizerFilteringShowcase.host2 numPppInterfaces 0
par DataLinkVisualizerFilteringShowcase.host2 numTunInterfaces 0
par DataLinkVisualizerFilteringShowcase.host2 numVirtInterfaces 0
par DataLinkVisualizerFilteringShowcase.host2 fcsMode "\"declared\""
attr enum declared,computed
par DataLinkVisualizerFilteringShowcase.host2 hasIpv4 true
par DataLinkVisualizerFilteringShowcase.host2 hasIpv6 false
par DataLinkVisualizerFilteringShowcase.host2 hasGn false
par DataLinkVisualizerFilteringShowcase.host2 forwarding false
par DataLinkVisualizerFilteringShowcase.host2 multicastForwarding false
par DataLinkVisualizerFilteringShowcase.host2 hasUdp true
par DataLinkVisualizerFilteringShowcase.host2 hasTcp true
par DataLinkVisualizerFilteringShowcase.host2 hasSctp false
par DataLinkVisualizerFilteringShowcase.host2 numApps 0
par DataLinkVisualizerFilteringShowcase typename "\"inet.showcases.visualizer.canvas.datalinkactivity.DataLinkVisualizerFilteringShowcase\""

