version 3
run VoIP_WithPolicing-0-20251118-11:56:13-113153
attr configname VoIP_WithPolicing
attr datetime 20251118-11:56:13
attr datetimef 20251118-115613
attr experiment VoIP_WithPolicing
attr inifile omnetpp.ini
attr iterationvars ""
attr iterationvarsd ""
attr iterationvarsf ""
attr measurement ""
attr network DiffservNetwork
attr processid 113153
attr repetition 0
attr replication #0
attr resultdir results
attr runnumber 0
attr seedset 0
config **.param-recording false
config image-path /home/zoli/Projects/OMNET/inet/images
config output-scalar-file results/omnetpp.ini-VoIP_WithPolicing-#0.sca
config output-scalar-precision 17
config output-vector-file results/omnetpp.ini-VoIP_WithPolicing-#0.vec
config output-vector-precision 17
config record-eventlog false
config sim-time-limit 50s
config description "VoIP application, traffic policing at the router allocates bandwidth for voice packets"
config extends "VoIP, WithPolicing"
config description "voipPhone1 executes a VoIP application"
config **.voipPhone1.numApps 1
config **.voipPhone1.app[0].typename VoipStreamSender
config **.voipPhone1.app[0].packetTimeLength 20ms
config **.voipPhone1.app[0].voipHeaderSize 40B
config **.voipPhone1.app[0].voipSilenceThreshold 100
config **.voipPhone1.app[0].repeatCount 1
config **.voipPhone1.app[0].soundFile "\"bensound-pianomoment.wav\""
config **.voipPhone1.app[0].codec "\"pcm_mulaw\""
config **.voipPhone1.app[0].sampleRate 8000Hz
config **.voipPhone1.app[0].compressedBitRate 64000bps
config **.voipPhone1.app[0].localPort 1000
config **.voipPhone1.app[0].destPort 1000
config **.voipPhone1.app[0].destAddress "\"voipPhone2\""
config **.voipPhone2.numApps 1
config **.voipPhone2.app[0].typename VoipStreamReceiver
config **.voipPhone2.app[0].localPort 1000
config **.voipPhone2.app[0].resultFile "\"results/VoIP_WithPolicing_results.wav\""
config description "Diffserv traffic conditioning is turned on in the ppp[0] interface of the router"
config **.router.ppp[0].egressTC.typename DiffservTrafficConditioner
config **.efMeter.cir "\"70%\""
config **.efMeter.cbs 50KiB
config **.defaultMeter.cir "\"30%\""
config **.defaultMeter.cbs 2KiB
config **.defaultMeter.ebs 4KiB
config network DiffservNetwork
config sim-time-limit 50s
config **.client.numApps 2
config **.client.app[*].typename UdpBasicApp
config **.client.app[*].destAddresses "\"server\""
config **.client.app[*].messageLength 1000B
config **.client.app[*].startTime uniform(0s,0.1s)
config **.client.app[*].sendInterval 100ms
config **.client.app[0].destPort 5001
config **.client.app[1].destPort 5002
config **.server.numApps 2
config **.server.app[0].typename UdpSink
config **.server.app[0].localPort 5001
config **.server.app[1].typename UdpSink
config **.server.app[1].localPort 5002
config **.router.ppp[*].queue.typename DropTailQueue
config **.router.ppp[*].queue.packetCapacity 100
config **.internet.ppp[*].queue.typename DropTailQueue
config **.internet.ppp[*].queue.packetCapacity 100

scalar DiffservNetwork.router.ethernet pauseSent:count 0
scalar DiffservNetwork.router.ethernet pauseSent:sum 0
scalar DiffservNetwork.router.ethernet decapPk:count 2518
scalar DiffservNetwork.router.ethernet decapPk:sum(packetBytes) 1373516
scalar DiffservNetwork.router.ethernet encapPk:count 2
scalar DiffservNetwork.router.ethernet encapPk:sum(packetBytes) 56
scalar DiffservNetwork.router.lo[0].lo rcvdPkFromHl:count 0
scalar DiffservNetwork.router.lo[0].lo rcvdPkFromHl:sum(packetBytes) 0
scalar DiffservNetwork.router.lo[0].lo passedUpPk:count 0
scalar DiffservNetwork.router.lo[0].lo passedUpPk:sum(packetBytes) 0
scalar DiffservNetwork.router.lo[0] packetDropInterfaceDown:count 0
scalar DiffservNetwork.router.lo[0] packetDropInterfaceDown:sum(packetBytes) 0
scalar DiffservNetwork.router.lo[0] packetDropNoCarrier:count 0
scalar DiffservNetwork.router.lo[0] packetDropNoCarrier:sum(packetBytes) 0
scalar DiffservNetwork.router.ppp[0].egressTC.mfClassifier packets:count 0
scalar DiffservNetwork.router.ppp[0].egressTC.mfClassifier packetLengths:sum 0
scalar DiffservNetwork.router.ppp[0].egressTC.mux packets:count 0
scalar DiffservNetwork.router.ppp[0].egressTC.mux packetLengths:sum 0
scalar DiffservNetwork.router.ppp[0].egressTC.efMarker packetMarked:count 1516
scalar DiffservNetwork.router.ppp[0].egressTC.efMarker packetMarked:sum(packetBytes) 345424
scalar DiffservNetwork.router.ppp[0].egressTC.af11Marker packetMarked:count 500
scalar DiffservNetwork.router.ppp[0].egressTC.af11Marker packetMarked:sum(packetBytes) 514000
scalar DiffservNetwork.router.ppp[0].egressTC.af21Marker packetMarked:count 500
scalar DiffservNetwork.router.ppp[0].egressTC.af21Marker packetMarked:sum(packetBytes) 514000
scalar DiffservNetwork.router.ppp[0].egressTC.af13Marker packetMarked:count 1
scalar DiffservNetwork.router.ppp[0].egressTC.af13Marker packetMarked:sum(packetBytes) 1028
scalar DiffservNetwork.router.ppp[0].egressTC.af23Marker packetMarked:count 2
scalar DiffservNetwork.router.ppp[0].egressTC.af23Marker packetMarked:sum(packetBytes) 2056
scalar DiffservNetwork.router.ppp[0].egressTC.join packets:count 0
scalar DiffservNetwork.router.ppp[0].egressTC.join packetLengths:sum 0
scalar DiffservNetwork.router.ppp[0].egressTC.beMarker packetMarked:count 0
scalar DiffservNetwork.router.ppp[0].egressTC.beMarker packetMarked:sum(packetBytes) 0
scalar DiffservNetwork.router.ppp[0].egressTC.baClassifier packets:count 0
scalar DiffservNetwork.router.ppp[0].egressTC.baClassifier packetLengths:sum 0
scalar DiffservNetwork.router.ppp[0].egressTC.af11Marker2 packetMarked:count 0
scalar DiffservNetwork.router.ppp[0].egressTC.af11Marker2 packetMarked:sum(packetBytes) 0
scalar DiffservNetwork.router.ppp[0].egressTC.dropper packets:count 763
scalar DiffservNetwork.router.ppp[0].egressTC.dropper packetLengths:sum 6274912
scalar DiffservNetwork.router.ppp[0].egressTC.dropper droppedPackets:count 763
scalar DiffservNetwork.router.ppp[0].egressTC.dropper droppedPacketLengths:sum 6274912
scalar DiffservNetwork.router.ppp[0].queue queueLength:last 0
scalar DiffservNetwork.router.ppp[0].queue queueLength:max 74
scalar DiffservNetwork.router.ppp[0].queue queueLength:timeavg 27.319257160120646
scalar DiffservNetwork.router.ppp[0].queue queueBitLength:last 0
scalar DiffservNetwork.router.ppp[0].queue queueBitLength:max 177952
scalar DiffservNetwork.router.ppp[0].queue queueBitLength:timeavg 65085.130767874885
scalar DiffservNetwork.router.ppp[0].queue outgoingPackets:count 1753
scalar DiffservNetwork.router.ppp[0].queue outgoingPacketLengths:sum 4712480
scalar DiffservNetwork.router.ppp[0].queue incomingPackets:count 1753
scalar DiffservNetwork.router.ppp[0].queue incomingPacketLengths:sum 4712480
scalar DiffservNetwork.router.ppp[0].queue droppedPacketsQueueOverflow:count 0
scalar DiffservNetwork.router.ppp[0].queue droppedPacketLengthsQueueOverflow:sum 0
scalar DiffservNetwork.router.ppp[0].ppp transmissionState:timeavg 0.75166375000001784
scalar DiffservNetwork.router.ppp[0].ppp rxPkOk:count 0
scalar DiffservNetwork.router.ppp[0].ppp rxPkOk:sum(packetBytes) 0
scalar DiffservNetwork.router.ppp[0].ppp txPk:count 1753
scalar DiffservNetwork.router.ppp[0].ppp txPk:sum(packetBytes) 601331
scalar DiffservNetwork.router.ppp[0].ppp rcvdPkFromHl:count 1753
scalar DiffservNetwork.router.ppp[0].ppp rcvdPkFromHl:sum(packetBytes) 589060
scalar DiffservNetwork.router.ppp[0].ppp passedUpPk:count 0
scalar DiffservNetwork.router.ppp[0].ppp passedUpPk:sum(packetBytes) 0
scalar DiffservNetwork.router.ppp[0].ppp packetDropIncorrectlyReceived:count 0
scalar DiffservNetwork.router.ppp[0].ppp packetDropIncorrectlyReceived:sum(packetBytes) 0
scalar DiffservNetwork.router.ppp[0].ppp packetDropInterfaceDown:count 0
scalar DiffservNetwork.router.ppp[0].ppp packetDropInterfaceDown:sum(packetBytes) 0
scalar DiffservNetwork.router.ppp[0] packetDropInterfaceDown:count 0
scalar DiffservNetwork.router.ppp[0] packetDropInterfaceDown:sum(packetBytes) 0
scalar DiffservNetwork.router.ppp[0] packetDropNoCarrier:count 0
scalar DiffservNetwork.router.ppp[0] packetDropNoCarrier:sum(packetBytes) 0
scalar DiffservNetwork.router.eth[0].queue queueLength:last 0
scalar DiffservNetwork.router.eth[0].queue queueLength:max 0
scalar DiffservNetwork.router.eth[0].queue queueLength:timeavg 0
scalar DiffservNetwork.router.eth[0].queue queueBitLength:last 0
scalar DiffservNetwork.router.eth[0].queue queueBitLength:max 0
scalar DiffservNetwork.router.eth[0].queue queueBitLength:timeavg 0
scalar DiffservNetwork.router.eth[0].queue outgoingPackets:count 2
scalar DiffservNetwork.router.eth[0].queue outgoingPacketLengths:sum 736
scalar DiffservNetwork.router.eth[0].queue incomingPackets:count 2
scalar DiffservNetwork.router.eth[0].queue incomingPacketLengths:sum 736
scalar DiffservNetwork.router.eth[0].queue droppedPacketsQueueOverflow:count 0
scalar DiffservNetwork.router.eth[0].queue droppedPacketLengthsQueueOverflow:sum 0
scalar DiffservNetwork.router.eth[0].mac "simulated time" 50
scalar DiffservNetwork.router.eth[0].mac full-duplex 1
scalar DiffservNetwork.router.eth[0].mac "frames/sec sent" 0.040000000000000001
scalar DiffservNetwork.router.eth[0].mac "frames/sec rcvd" 50.359999999999999
scalar DiffservNetwork.router.eth[0].mac "bits/sec sent" 20.48
scalar DiffservNetwork.router.eth[0].mac "bits/sec rcvd" 227014.39999999999
scalar DiffservNetwork.router.eth[0].mac "rx channel idle (%)" 97.697625600000009
scalar DiffservNetwork.router.eth[0].mac "rx channel utilization (%)" 2.3023743999999997
scalar DiffservNetwork.router.eth[0].mac rxPausePkUnits:count 0
scalar DiffservNetwork.router.eth[0].mac rxPausePkUnits:sum 0
scalar DiffservNetwork.router.eth[0].mac txPausePkUnits:count 0
scalar DiffservNetwork.router.eth[0].mac txPausePkUnits:sum 0
scalar DiffservNetwork.router.eth[0].mac rxPkOk:count 2518
scalar DiffservNetwork.router.eth[0].mac rxPkOk:sum(packetBytes) 1418840
scalar DiffservNetwork.router.eth[0].mac txPk:count 2
scalar DiffservNetwork.router.eth[0].mac txPk:sum(packetBytes) 128
scalar DiffservNetwork.router.eth[0].mac packetReceivedFromUpper:count 2
scalar DiffservNetwork.router.eth[0].mac packetReceivedFromUpper:sum(packetBytes) 92
scalar DiffservNetwork.router.eth[0].mac passedUpPk:count 2518
scalar DiffservNetwork.router.eth[0].mac passedUpPk:sum(packetBytes) 1418840
scalar DiffservNetwork.router.eth[0].mac packetDropIncorrectlyReceived:count 0
scalar DiffservNetwork.router.eth[0].mac packetDropIncorrectlyReceived:sum(packetBytes) 0
scalar DiffservNetwork.router.eth[0].mac packetDropInterfaceDown:count 0
scalar DiffservNetwork.router.eth[0].mac packetDropInterfaceDown:sum(packetBytes) 0
scalar DiffservNetwork.router.eth[0].mac packetDropNotAddressedToUs:count 0
scalar DiffservNetwork.router.eth[0].mac packetDropNotAddressedToUs:sum(packetBytes) 0
scalar DiffservNetwork.router.eth[0] packetDropInterfaceDown:count 0
scalar DiffservNetwork.router.eth[0] packetDropInterfaceDown:sum(packetBytes) 0
scalar DiffservNetwork.router.eth[0] packetDropNoCarrier:count 0
scalar DiffservNetwork.router.eth[0] packetDropNoCarrier:sum(packetBytes) 0
scalar DiffservNetwork.router.ipv4.ip packetDropAddressResolutionFailed:count 0
scalar DiffservNetwork.router.ipv4.ip packetDropAddressResolutionFailed:sum(packetBytes) 0
scalar DiffservNetwork.router.ipv4.ip packetDropHopLimitReached:count 0
scalar DiffservNetwork.router.ipv4.ip packetDropHopLimitReached:sum(packetBytes) 0
scalar DiffservNetwork.router.ipv4.ip packetDropForwardingDisabled:count 0
scalar DiffservNetwork.router.ipv4.ip packetDropForwardingDisabled:sum(packetBytes) 0
scalar DiffservNetwork.router.ipv4.ip packetDropLifetimeExpired:count 0
scalar DiffservNetwork.router.ipv4.ip packetDropLifetimeExpired:sum(packetBytes) 0
scalar DiffservNetwork.router.ipv4.ip packetDropNoInterfaceFound:count 0
scalar DiffservNetwork.router.ipv4.ip packetDropNoInterfaceFound:sum(packetBytes) 0
scalar DiffservNetwork.router.ipv4.ip packetDropNoRouteFound:count 0
scalar DiffservNetwork.router.ipv4.ip packetDropNoRouteFound:sum(packetBytes) 0
scalar DiffservNetwork.router.ipv4.ip packetDropUndefined:count 0
scalar DiffservNetwork.router.ipv4.ip packetDropUndefined:sum(packetBytes) 0
scalar DiffservNetwork.router.ipv4.arp arpResolutionFailed:count 0
scalar DiffservNetwork.router.ipv4.arp arpResolutionCompleted:count 2
scalar DiffservNetwork.router.ipv4.arp arpResolutionInitiated:count 0
scalar DiffservNetwork.router.ipv4.arp arpReplySent:count 2
scalar DiffservNetwork.router.ipv4.arp arpReplySent:sum(packetBytes) 56
scalar DiffservNetwork.router.ipv4.arp arpRequestSent:count 0
scalar DiffservNetwork.router.ipv4.arp arpRequestSent:sum(packetBytes) 0
scalar DiffservNetwork.voipPhone1.ethernet pauseSent:count 0
scalar DiffservNetwork.voipPhone1.ethernet pauseSent:sum 0
scalar DiffservNetwork.voipPhone1.ethernet decapPk:count 2
scalar DiffservNetwork.voipPhone1.ethernet decapPk:sum(packetBytes) 92
scalar DiffservNetwork.voipPhone1.ethernet encapPk:count 1517
scalar DiffservNetwork.voipPhone1.ethernet encapPk:sum(packetBytes) 345452
scalar DiffservNetwork.voipPhone1.lo[0].lo rcvdPkFromHl:count 0
scalar DiffservNetwork.voipPhone1.lo[0].lo rcvdPkFromHl:sum(packetBytes) 0
scalar DiffservNetwork.voipPhone1.lo[0].lo passedUpPk:count 0
scalar DiffservNetwork.voipPhone1.lo[0].lo passedUpPk:sum(packetBytes) 0
scalar DiffservNetwork.voipPhone1.lo[0] packetDropInterfaceDown:count 0
scalar DiffservNetwork.voipPhone1.lo[0] packetDropInterfaceDown:sum(packetBytes) 0
scalar DiffservNetwork.voipPhone1.lo[0] packetDropNoCarrier:count 0
scalar DiffservNetwork.voipPhone1.lo[0] packetDropNoCarrier:sum(packetBytes) 0
scalar DiffservNetwork.voipPhone1.eth[0].queue queueLength:last 0
scalar DiffservNetwork.voipPhone1.eth[0].queue queueLength:max 0
scalar DiffservNetwork.voipPhone1.eth[0].queue queueLength:timeavg 0
scalar DiffservNetwork.voipPhone1.eth[0].queue queueBitLength:last 0
scalar DiffservNetwork.voipPhone1.eth[0].queue queueBitLength:max 0
scalar DiffservNetwork.voipPhone1.eth[0].queue queueBitLength:timeavg 0
scalar DiffservNetwork.voipPhone1.eth[0].queue outgoingPackets:count 1517
scalar DiffservNetwork.voipPhone1.eth[0].queue outgoingPacketLengths:sum 2982064
scalar DiffservNetwork.voipPhone1.eth[0].queue incomingPackets:count 1517
scalar DiffservNetwork.voipPhone1.eth[0].queue incomingPacketLengths:sum 2982064
scalar DiffservNetwork.voipPhone1.eth[0].queue droppedPacketsQueueOverflow:count 0
scalar DiffservNetwork.voipPhone1.eth[0].queue droppedPacketLengthsQueueOverflow:sum 0
scalar DiffservNetwork.voipPhone1.eth[0].mac "simulated time" 50
scalar DiffservNetwork.voipPhone1.eth[0].mac full-duplex 1
scalar DiffservNetwork.voipPhone1.eth[0].mac "frames/sec sent" 30.34
scalar DiffservNetwork.voipPhone1.eth[0].mac "frames/sec rcvd" 0.040000000000000001
scalar DiffservNetwork.voipPhone1.eth[0].mac "bits/sec sent" 59644.160000000003
scalar DiffservNetwork.voipPhone1.eth[0].mac "bits/sec rcvd" 20.48
scalar DiffservNetwork.voipPhone1.eth[0].mac "rx channel idle (%)" 99.999769599999993
scalar DiffservNetwork.voipPhone1.eth[0].mac "rx channel utilization (%)" 0.00023039999999999999
scalar DiffservNetwork.voipPhone1.eth[0].mac rxPausePkUnits:count 0
scalar DiffservNetwork.voipPhone1.eth[0].mac rxPausePkUnits:sum 0
scalar DiffservNetwork.voipPhone1.eth[0].mac txPausePkUnits:count 0
scalar DiffservNetwork.voipPhone1.eth[0].mac txPausePkUnits:sum 0
scalar DiffservNetwork.voipPhone1.eth[0].mac rxPkOk:count 2
scalar DiffservNetwork.voipPhone1.eth[0].mac rxPkOk:sum(packetBytes) 128
scalar DiffservNetwork.voipPhone1.eth[0].mac txPk:count 1517
scalar DiffservNetwork.voipPhone1.eth[0].mac txPk:sum(packetBytes) 372776
scalar DiffservNetwork.voipPhone1.eth[0].mac packetReceivedFromUpper:count 1517
scalar DiffservNetwork.voipPhone1.eth[0].mac packetReceivedFromUpper:sum(packetBytes) 372758
scalar DiffservNetwork.voipPhone1.eth[0].mac passedUpPk:count 2
scalar DiffservNetwork.voipPhone1.eth[0].mac passedUpPk:sum(packetBytes) 128
scalar DiffservNetwork.voipPhone1.eth[0].mac packetDropIncorrectlyReceived:count 0
scalar DiffservNetwork.voipPhone1.eth[0].mac packetDropIncorrectlyReceived:sum(packetBytes) 0
scalar DiffservNetwork.voipPhone1.eth[0].mac packetDropInterfaceDown:count 0
scalar DiffservNetwork.voipPhone1.eth[0].mac packetDropInterfaceDown:sum(packetBytes) 0
scalar DiffservNetwork.voipPhone1.eth[0].mac packetDropNotAddressedToUs:count 0
scalar DiffservNetwork.voipPhone1.eth[0].mac packetDropNotAddressedToUs:sum(packetBytes) 0
scalar DiffservNetwork.voipPhone1.eth[0] packetDropInterfaceDown:count 0
scalar DiffservNetwork.voipPhone1.eth[0] packetDropInterfaceDown:sum(packetBytes) 0
scalar DiffservNetwork.voipPhone1.eth[0] packetDropNoCarrier:count 0
scalar DiffservNetwork.voipPhone1.eth[0] packetDropNoCarrier:sum(packetBytes) 0
scalar DiffservNetwork.voipPhone1.ipv4.ip packetDropAddressResolutionFailed:count 0
scalar DiffservNetwork.voipPhone1.ipv4.ip packetDropAddressResolutionFailed:sum(packetBytes) 0
scalar DiffservNetwork.voipPhone1.ipv4.ip packetDropHopLimitReached:count 0
scalar DiffservNetwork.voipPhone1.ipv4.ip packetDropHopLimitReached:sum(packetBytes) 0
scalar DiffservNetwork.voipPhone1.ipv4.ip packetDropForwardingDisabled:count 0
scalar DiffservNetwork.voipPhone1.ipv4.ip packetDropForwardingDisabled:sum(packetBytes) 0
scalar DiffservNetwork.voipPhone1.ipv4.ip packetDropLifetimeExpired:count 0
scalar DiffservNetwork.voipPhone1.ipv4.ip packetDropLifetimeExpired:sum(packetBytes) 0
scalar DiffservNetwork.voipPhone1.ipv4.ip packetDropNoInterfaceFound:count 0
scalar DiffservNetwork.voipPhone1.ipv4.ip packetDropNoInterfaceFound:sum(packetBytes) 0
scalar DiffservNetwork.voipPhone1.ipv4.ip packetDropNoRouteFound:count 0
scalar DiffservNetwork.voipPhone1.ipv4.ip packetDropNoRouteFound:sum(packetBytes) 0
scalar DiffservNetwork.voipPhone1.ipv4.ip packetDropUndefined:count 0
scalar DiffservNetwork.voipPhone1.ipv4.ip packetDropUndefined:sum(packetBytes) 0
scalar DiffservNetwork.voipPhone1.ipv4.arp arpResolutionFailed:count 0
scalar DiffservNetwork.voipPhone1.ipv4.arp arpResolutionCompleted:count 1
scalar DiffservNetwork.voipPhone1.ipv4.arp arpResolutionInitiated:count 1
scalar DiffservNetwork.voipPhone1.ipv4.arp arpReplySent:count 0
scalar DiffservNetwork.voipPhone1.ipv4.arp arpReplySent:sum(packetBytes) 0
scalar DiffservNetwork.voipPhone1.ipv4.arp arpRequestSent:count 1
scalar DiffservNetwork.voipPhone1.ipv4.arp arpRequestSent:sum(packetBytes) 28
scalar DiffservNetwork.voipPhone1.udp packetReceived:count 0
scalar DiffservNetwork.voipPhone1.udp packetReceived:sum(packetBytes) 0
scalar DiffservNetwork.voipPhone1.udp packetSent:count 1516
scalar DiffservNetwork.voipPhone1.udp packetSent:sum(packetBytes) 315104
scalar DiffservNetwork.voipPhone1.udp passedUpPk:count 0
scalar DiffservNetwork.voipPhone1.udp droppedPkWrongPort:count 0
scalar DiffservNetwork.voipPhone1.udp droppedPkBadChecksum:count 0
scalar DiffservNetwork.voipPhone1.app[0] packetSent:count 1516
scalar DiffservNetwork.voipPhone1.app[0] packetSent:sum(packetBytes) 302976
scalar DiffservNetwork.voipPhone2.lo[0].lo rcvdPkFromHl:count 0
scalar DiffservNetwork.voipPhone2.lo[0].lo rcvdPkFromHl:sum(packetBytes) 0
scalar DiffservNetwork.voipPhone2.lo[0].lo passedUpPk:count 0
scalar DiffservNetwork.voipPhone2.lo[0].lo passedUpPk:sum(packetBytes) 0
scalar DiffservNetwork.voipPhone2.lo[0] packetDropInterfaceDown:count 0
scalar DiffservNetwork.voipPhone2.lo[0] packetDropInterfaceDown:sum(packetBytes) 0
scalar DiffservNetwork.voipPhone2.lo[0] packetDropNoCarrier:count 0
scalar DiffservNetwork.voipPhone2.lo[0] packetDropNoCarrier:sum(packetBytes) 0
scalar DiffservNetwork.voipPhone2.ppp[0].queue queueLength:last 0
scalar DiffservNetwork.voipPhone2.ppp[0].queue queueLength:max 0
scalar DiffservNetwork.voipPhone2.ppp[0].queue queueLength:timeavg 0
scalar DiffservNetwork.voipPhone2.ppp[0].queue queueBitLength:last 0
scalar DiffservNetwork.voipPhone2.ppp[0].queue queueBitLength:max 0
scalar DiffservNetwork.voipPhone2.ppp[0].queue queueBitLength:timeavg 0
scalar DiffservNetwork.voipPhone2.ppp[0].queue outgoingPackets:count 0
scalar DiffservNetwork.voipPhone2.ppp[0].queue outgoingPacketLengths:sum 0
scalar DiffservNetwork.voipPhone2.ppp[0].queue incomingPackets:count 0
scalar DiffservNetwork.voipPhone2.ppp[0].queue incomingPacketLengths:sum 0
scalar DiffservNetwork.voipPhone2.ppp[0].queue droppedPacketsQueueOverflow:count 0
scalar DiffservNetwork.voipPhone2.ppp[0].queue droppedPacketLengthsQueueOverflow:sum 0
scalar DiffservNetwork.voipPhone2.ppp[0].ppp transmissionState:timeavg 0
scalar DiffservNetwork.voipPhone2.ppp[0].ppp rxPkOk:count 1516
scalar DiffservNetwork.voipPhone2.ppp[0].ppp rxPkOk:sum(packetBytes) 356036
scalar DiffservNetwork.voipPhone2.ppp[0].ppp txPk:count 0
scalar DiffservNetwork.voipPhone2.ppp[0].ppp txPk:sum(packetBytes) 0
scalar DiffservNetwork.voipPhone2.ppp[0].ppp rcvdPkFromHl:count 0
scalar DiffservNetwork.voipPhone2.ppp[0].ppp rcvdPkFromHl:sum(packetBytes) 0
scalar DiffservNetwork.voipPhone2.ppp[0].ppp passedUpPk:count 1516
scalar DiffservNetwork.voipPhone2.ppp[0].ppp passedUpPk:sum(packetBytes) 345424
scalar DiffservNetwork.voipPhone2.ppp[0].ppp packetDropIncorrectlyReceived:count 0
scalar DiffservNetwork.voipPhone2.ppp[0].ppp packetDropIncorrectlyReceived:sum(packetBytes) 0
scalar DiffservNetwork.voipPhone2.ppp[0].ppp packetDropInterfaceDown:count 0
scalar DiffservNetwork.voipPhone2.ppp[0].ppp packetDropInterfaceDown:sum(packetBytes) 0
scalar DiffservNetwork.voipPhone2.ppp[0] packetDropInterfaceDown:count 0
scalar DiffservNetwork.voipPhone2.ppp[0] packetDropInterfaceDown:sum(packetBytes) 0
scalar DiffservNetwork.voipPhone2.ppp[0] packetDropNoCarrier:count 0
scalar DiffservNetwork.voipPhone2.ppp[0] packetDropNoCarrier:sum(packetBytes) 0
scalar DiffservNetwork.voipPhone2.ipv4.ip packetDropAddressResolutionFailed:count 0
scalar DiffservNetwork.voipPhone2.ipv4.ip packetDropAddressResolutionFailed:sum(packetBytes) 0
scalar DiffservNetwork.voipPhone2.ipv4.ip packetDropHopLimitReached:count 0
scalar DiffservNetwork.voipPhone2.ipv4.ip packetDropHopLimitReached:sum(packetBytes) 0
scalar DiffservNetwork.voipPhone2.ipv4.ip packetDropForwardingDisabled:count 0
scalar DiffservNetwork.voipPhone2.ipv4.ip packetDropForwardingDisabled:sum(packetBytes) 0
scalar DiffservNetwork.voipPhone2.ipv4.ip packetDropLifetimeExpired:count 0
scalar DiffservNetwork.voipPhone2.ipv4.ip packetDropLifetimeExpired:sum(packetBytes) 0
scalar DiffservNetwork.voipPhone2.ipv4.ip packetDropNoInterfaceFound:count 0
scalar DiffservNetwork.voipPhone2.ipv4.ip packetDropNoInterfaceFound:sum(packetBytes) 0
scalar DiffservNetwork.voipPhone2.ipv4.ip packetDropNoRouteFound:count 0
scalar DiffservNetwork.voipPhone2.ipv4.ip packetDropNoRouteFound:sum(packetBytes) 0
scalar DiffservNetwork.voipPhone2.ipv4.ip packetDropUndefined:count 0
scalar DiffservNetwork.voipPhone2.ipv4.ip packetDropUndefined:sum(packetBytes) 0
scalar DiffservNetwork.voipPhone2.ipv4.arp arpResolutionFailed:count 0
scalar DiffservNetwork.voipPhone2.ipv4.arp arpResolutionCompleted:count 0
scalar DiffservNetwork.voipPhone2.ipv4.arp arpResolutionInitiated:count 0
scalar DiffservNetwork.voipPhone2.ipv4.arp arpReplySent:count 0
scalar DiffservNetwork.voipPhone2.ipv4.arp arpReplySent:sum(packetBytes) 0
scalar DiffservNetwork.voipPhone2.ipv4.arp arpRequestSent:count 0
scalar DiffservNetwork.voipPhone2.ipv4.arp arpRequestSent:sum(packetBytes) 0
scalar DiffservNetwork.voipPhone2.udp packetReceived:count 1516
scalar DiffservNetwork.voipPhone2.udp packetReceived:sum(packetBytes) 315104
scalar DiffservNetwork.voipPhone2.udp packetSent:count 0
scalar DiffservNetwork.voipPhone2.udp packetSent:sum(packetBytes) 0
scalar DiffservNetwork.voipPhone2.udp passedUpPk:count 1516
scalar DiffservNetwork.voipPhone2.udp droppedPkWrongPort:count 0
scalar DiffservNetwork.voipPhone2.udp droppedPkBadChecksum:count 0
scalar DiffservNetwork.voipPhone2.app[0] packetReceived:count 1516
scalar DiffservNetwork.voipPhone2.app[0] packetReceived:sum(packetBytes) 302976
scalar DiffservNetwork.voipPhone2.app[0] dropPk:count 0
scalar DiffservNetwork.voipPhone2.app[0] dropPk:sum(packetBytes) 0
scalar DiffservNetwork.voipPhone2.app[0] numActiveSessions:max 1
scalar DiffservNetwork.voipPhone2.app[0] numActiveSessions:timeavg 0.99930974947527995
scalar DiffservNetwork.voipPhone2.app[0] numSessions:last 1
scalar DiffservNetwork.voipPhone2.app[0] packetHasVoice:mean 0.99934036939313986
scalar DiffservNetwork.client.ethernet pauseSent:count 0
scalar DiffservNetwork.client.ethernet pauseSent:sum 0
scalar DiffservNetwork.client.ethernet decapPk:count 2
scalar DiffservNetwork.client.ethernet decapPk:sum(packetBytes) 92
scalar DiffservNetwork.client.ethernet encapPk:count 1001
scalar DiffservNetwork.client.ethernet encapPk:sum(packetBytes) 1028028
scalar DiffservNetwork.client.lo[0].lo rcvdPkFromHl:count 0
scalar DiffservNetwork.client.lo[0].lo rcvdPkFromHl:sum(packetBytes) 0
scalar DiffservNetwork.client.lo[0].lo passedUpPk:count 0
scalar DiffservNetwork.client.lo[0].lo passedUpPk:sum(packetBytes) 0
scalar DiffservNetwork.client.lo[0] packetDropInterfaceDown:count 0
scalar DiffservNetwork.client.lo[0] packetDropInterfaceDown:sum(packetBytes) 0
scalar DiffservNetwork.client.lo[0] packetDropNoCarrier:count 0
scalar DiffservNetwork.client.lo[0] packetDropNoCarrier:sum(packetBytes) 0
scalar DiffservNetwork.client.eth[0].queue queueLength:last 0
scalar DiffservNetwork.client.eth[0].queue queueLength:max 0
scalar DiffservNetwork.client.eth[0].queue queueLength:timeavg 0
scalar DiffservNetwork.client.eth[0].queue queueBitLength:last 0
scalar DiffservNetwork.client.eth[0].queue queueBitLength:max 0
scalar DiffservNetwork.client.eth[0].queue queueBitLength:timeavg 0
scalar DiffservNetwork.client.eth[0].queue outgoingPackets:count 1001
scalar DiffservNetwork.client.eth[0].queue outgoingPacketLengths:sum 8368368
scalar DiffservNetwork.client.eth[0].queue incomingPackets:count 1001
scalar DiffservNetwork.client.eth[0].queue incomingPacketLengths:sum 8368368
scalar DiffservNetwork.client.eth[0].queue droppedPacketsQueueOverflow:count 0
scalar DiffservNetwork.client.eth[0].queue droppedPacketLengthsQueueOverflow:sum 0
scalar DiffservNetwork.client.eth[0].mac "simulated time" 50
scalar DiffservNetwork.client.eth[0].mac full-duplex 1
scalar DiffservNetwork.client.eth[0].mac "frames/sec sent" 20.02
scalar DiffservNetwork.client.eth[0].mac "frames/sec rcvd" 0.040000000000000001
scalar DiffservNetwork.client.eth[0].mac "bits/sec sent" 167370.23999999999
scalar DiffservNetwork.client.eth[0].mac "bits/sec rcvd" 20.48
scalar DiffservNetwork.client.eth[0].mac "rx channel idle (%)" 99.999769599999993
scalar DiffservNetwork.client.eth[0].mac "rx channel utilization (%)" 0.00023039999999999999
scalar DiffservNetwork.client.eth[0].mac rxPausePkUnits:count 0
scalar DiffservNetwork.client.eth[0].mac rxPausePkUnits:sum 0
scalar DiffservNetwork.client.eth[0].mac txPausePkUnits:count 0
scalar DiffservNetwork.client.eth[0].mac txPausePkUnits:sum 0
scalar DiffservNetwork.client.eth[0].mac rxPkOk:count 2
scalar DiffservNetwork.client.eth[0].mac rxPkOk:sum(packetBytes) 128
scalar DiffservNetwork.client.eth[0].mac txPk:count 1001
scalar DiffservNetwork.client.eth[0].mac txPk:sum(packetBytes) 1046064
scalar DiffservNetwork.client.eth[0].mac packetReceivedFromUpper:count 1001
scalar DiffservNetwork.client.eth[0].mac packetReceivedFromUpper:sum(packetBytes) 1046046
scalar DiffservNetwork.client.eth[0].mac passedUpPk:count 2
scalar DiffservNetwork.client.eth[0].mac passedUpPk:sum(packetBytes) 128
scalar DiffservNetwork.client.eth[0].mac packetDropIncorrectlyReceived:count 0
scalar DiffservNetwork.client.eth[0].mac packetDropIncorrectlyReceived:sum(packetBytes) 0
scalar DiffservNetwork.client.eth[0].mac packetDropInterfaceDown:count 0
scalar DiffservNetwork.client.eth[0].mac packetDropInterfaceDown:sum(packetBytes) 0
scalar DiffservNetwork.client.eth[0].mac packetDropNotAddressedToUs:count 0
scalar DiffservNetwork.client.eth[0].mac packetDropNotAddressedToUs:sum(packetBytes) 0
scalar DiffservNetwork.client.eth[0] packetDropInterfaceDown:count 0
scalar DiffservNetwork.client.eth[0] packetDropInterfaceDown:sum(packetBytes) 0
scalar DiffservNetwork.client.eth[0] packetDropNoCarrier:count 0
scalar DiffservNetwork.client.eth[0] packetDropNoCarrier:sum(packetBytes) 0
scalar DiffservNetwork.client.ipv4.ip packetDropAddressResolutionFailed:count 0
scalar DiffservNetwork.client.ipv4.ip packetDropAddressResolutionFailed:sum(packetBytes) 0
scalar DiffservNetwork.client.ipv4.ip packetDropHopLimitReached:count 0
scalar DiffservNetwork.client.ipv4.ip packetDropHopLimitReached:sum(packetBytes) 0
scalar DiffservNetwork.client.ipv4.ip packetDropForwardingDisabled:count 0
scalar DiffservNetwork.client.ipv4.ip packetDropForwardingDisabled:sum(packetBytes) 0
scalar DiffservNetwork.client.ipv4.ip packetDropLifetimeExpired:count 0
scalar DiffservNetwork.client.ipv4.ip packetDropLifetimeExpired:sum(packetBytes) 0
scalar DiffservNetwork.client.ipv4.ip packetDropNoInterfaceFound:count 0
scalar DiffservNetwork.client.ipv4.ip packetDropNoInterfaceFound:sum(packetBytes) 0
scalar DiffservNetwork.client.ipv4.ip packetDropNoRouteFound:count 0
scalar DiffservNetwork.client.ipv4.ip packetDropNoRouteFound:sum(packetBytes) 0
scalar DiffservNetwork.client.ipv4.ip packetDropUndefined:count 0
scalar DiffservNetwork.client.ipv4.ip packetDropUndefined:sum(packetBytes) 0
scalar DiffservNetwork.client.ipv4.arp arpResolutionFailed:count 0
scalar DiffservNetwork.client.ipv4.arp arpResolutionCompleted:count 1
scalar DiffservNetwork.client.ipv4.arp arpResolutionInitiated:count 1
scalar DiffservNetwork.client.ipv4.arp arpReplySent:count 0
scalar DiffservNetwork.client.ipv4.arp arpReplySent:sum(packetBytes) 0
scalar DiffservNetwork.client.ipv4.arp arpRequestSent:count 1
scalar DiffservNetwork.client.ipv4.arp arpRequestSent:sum(packetBytes) 28
scalar DiffservNetwork.client.udp packetReceived:count 0
scalar DiffservNetwork.client.udp packetReceived:sum(packetBytes) 0
scalar DiffservNetwork.client.udp packetSent:count 1000
scalar DiffservNetwork.client.udp packetSent:sum(packetBytes) 1008000
scalar DiffservNetwork.client.udp passedUpPk:count 0
scalar DiffservNetwork.client.udp droppedPkWrongPort:count 0
scalar DiffservNetwork.client.udp droppedPkBadChecksum:count 0
scalar DiffservNetwork.client.app[0] "packets sent" 500
scalar DiffservNetwork.client.app[0] "packets received" 0
scalar DiffservNetwork.client.app[0] packetReceived:count 0
scalar DiffservNetwork.client.app[0] packetReceived:sum(packetBytes) 0
scalar DiffservNetwork.client.app[0] packetSent:count 500
scalar DiffservNetwork.client.app[0] packetSent:sum(packetBytes) 500000
scalar DiffservNetwork.client.app[1] "packets sent" 500
scalar DiffservNetwork.client.app[1] "packets received" 0
scalar DiffservNetwork.client.app[1] packetReceived:count 0
scalar DiffservNetwork.client.app[1] packetReceived:sum(packetBytes) 0
scalar DiffservNetwork.client.app[1] packetSent:count 500
scalar DiffservNetwork.client.app[1] packetSent:sum(packetBytes) 500000
scalar DiffservNetwork.server.lo[0].lo rcvdPkFromHl:count 0
scalar DiffservNetwork.server.lo[0].lo rcvdPkFromHl:sum(packetBytes) 0
scalar DiffservNetwork.server.lo[0].lo passedUpPk:count 0
scalar DiffservNetwork.server.lo[0].lo passedUpPk:sum(packetBytes) 0
scalar DiffservNetwork.server.lo[0] packetDropInterfaceDown:count 0
scalar DiffservNetwork.server.lo[0] packetDropInterfaceDown:sum(packetBytes) 0
scalar DiffservNetwork.server.lo[0] packetDropNoCarrier:count 0
scalar DiffservNetwork.server.lo[0] packetDropNoCarrier:sum(packetBytes) 0
scalar DiffservNetwork.server.ppp[0].queue queueLength:last 0
scalar DiffservNetwork.server.ppp[0].queue queueLength:max 0
scalar DiffservNetwork.server.ppp[0].queue queueLength:timeavg 0
scalar DiffservNetwork.server.ppp[0].queue queueBitLength:last 0
scalar DiffservNetwork.server.ppp[0].queue queueBitLength:max 0
scalar DiffservNetwork.server.ppp[0].queue queueBitLength:timeavg 0
scalar DiffservNetwork.server.ppp[0].queue outgoingPackets:count 0
scalar DiffservNetwork.server.ppp[0].queue outgoingPacketLengths:sum 0
scalar DiffservNetwork.server.ppp[0].queue incomingPackets:count 0
scalar DiffservNetwork.server.ppp[0].queue incomingPacketLengths:sum 0
scalar DiffservNetwork.server.ppp[0].queue droppedPacketsQueueOverflow:count 0
scalar DiffservNetwork.server.ppp[0].queue droppedPacketLengthsQueueOverflow:sum 0
scalar DiffservNetwork.server.ppp[0].ppp transmissionState:timeavg 0
scalar DiffservNetwork.server.ppp[0].ppp rxPkOk:count 237
scalar DiffservNetwork.server.ppp[0].ppp rxPkOk:sum(packetBytes) 245295
scalar DiffservNetwork.server.ppp[0].ppp txPk:count 0
scalar DiffservNetwork.server.ppp[0].ppp txPk:sum(packetBytes) 0
scalar DiffservNetwork.server.ppp[0].ppp rcvdPkFromHl:count 0
scalar DiffservNetwork.server.ppp[0].ppp rcvdPkFromHl:sum(packetBytes) 0
scalar DiffservNetwork.server.ppp[0].ppp passedUpPk:count 237
scalar DiffservNetwork.server.ppp[0].ppp passedUpPk:sum(packetBytes) 243636
scalar DiffservNetwork.server.ppp[0].ppp packetDropIncorrectlyReceived:count 0
scalar DiffservNetwork.server.ppp[0].ppp packetDropIncorrectlyReceived:sum(packetBytes) 0
scalar DiffservNetwork.server.ppp[0].ppp packetDropInterfaceDown:count 0
scalar DiffservNetwork.server.ppp[0].ppp packetDropInterfaceDown:sum(packetBytes) 0
scalar DiffservNetwork.server.ppp[0] packetDropInterfaceDown:count 0
scalar DiffservNetwork.server.ppp[0] packetDropInterfaceDown:sum(packetBytes) 0
scalar DiffservNetwork.server.ppp[0] packetDropNoCarrier:count 0
scalar DiffservNetwork.server.ppp[0] packetDropNoCarrier:sum(packetBytes) 0
scalar DiffservNetwork.server.ipv4.ip packetDropAddressResolutionFailed:count 0
scalar DiffservNetwork.server.ipv4.ip packetDropAddressResolutionFailed:sum(packetBytes) 0
scalar DiffservNetwork.server.ipv4.ip packetDropHopLimitReached:count 0
scalar DiffservNetwork.server.ipv4.ip packetDropHopLimitReached:sum(packetBytes) 0
scalar DiffservNetwork.server.ipv4.ip packetDropForwardingDisabled:count 0
scalar DiffservNetwork.server.ipv4.ip packetDropForwardingDisabled:sum(packetBytes) 0
scalar DiffservNetwork.server.ipv4.ip packetDropLifetimeExpired:count 0
scalar DiffservNetwork.server.ipv4.ip packetDropLifetimeExpired:sum(packetBytes) 0
scalar DiffservNetwork.server.ipv4.ip packetDropNoInterfaceFound:count 0
scalar DiffservNetwork.server.ipv4.ip packetDropNoInterfaceFound:sum(packetBytes) 0
scalar DiffservNetwork.server.ipv4.ip packetDropNoRouteFound:count 0
scalar DiffservNetwork.server.ipv4.ip packetDropNoRouteFound:sum(packetBytes) 0
scalar DiffservNetwork.server.ipv4.ip packetDropUndefined:count 0
scalar DiffservNetwork.server.ipv4.ip packetDropUndefined:sum(packetBytes) 0
scalar DiffservNetwork.server.ipv4.arp arpResolutionFailed:count 0
scalar DiffservNetwork.server.ipv4.arp arpResolutionCompleted:count 0
scalar DiffservNetwork.server.ipv4.arp arpResolutionInitiated:count 0
scalar DiffservNetwork.server.ipv4.arp arpReplySent:count 0
scalar DiffservNetwork.server.ipv4.arp arpReplySent:sum(packetBytes) 0
scalar DiffservNetwork.server.ipv4.arp arpRequestSent:count 0
scalar DiffservNetwork.server.ipv4.arp arpRequestSent:sum(packetBytes) 0
scalar DiffservNetwork.server.udp packetReceived:count 237
scalar DiffservNetwork.server.udp packetReceived:sum(packetBytes) 238896
scalar DiffservNetwork.server.udp packetSent:count 0
scalar DiffservNetwork.server.udp packetSent:sum(packetBytes) 0
scalar DiffservNetwork.server.udp passedUpPk:count 237
scalar DiffservNetwork.server.udp droppedPkWrongPort:count 0
scalar DiffservNetwork.server.udp droppedPkBadChecksum:count 0
scalar DiffservNetwork.server.app[0] packetReceived:count 35
scalar DiffservNetwork.server.app[0] packetReceived:sum(packetBytes) 35000
scalar DiffservNetwork.server.app[1] packetReceived:count 202
scalar DiffservNetwork.server.app[1] packetReceived:sum(packetBytes) 202000
scalar DiffservNetwork.etherSwitch.bridging "processed frames" 0
scalar DiffservNetwork.etherSwitch.bridging "discarded frames" 0
scalar DiffservNetwork.etherSwitch.bridging "number of received BPDUs from STP module" 0
scalar DiffservNetwork.etherSwitch.bridging "number of received frames from network (including BPDUs)" 2520
scalar DiffservNetwork.etherSwitch.bridging "number of dropped frames (including BPDUs)" 0
scalar DiffservNetwork.etherSwitch.bridging "number of delivered BPDUs to the STP module" 0
scalar DiffservNetwork.etherSwitch.bridging "number of dispatched BPDU frames to the network" 0
scalar DiffservNetwork.etherSwitch.bridging "number of dispatched non-BDPU frames to the network" 0
scalar DiffservNetwork.etherSwitch.bridging packetDropped:count 0
scalar DiffservNetwork.etherSwitch.bridging packetDropped:sum(packetBytes) 0
scalar DiffservNetwork.etherSwitch.ethernet pauseSent:count 0
scalar DiffservNetwork.etherSwitch.ethernet pauseSent:sum 0
scalar DiffservNetwork.etherSwitch.ethernet decapPk:count 2520
scalar DiffservNetwork.etherSwitch.ethernet decapPk:sum(packetBytes) 1373608
scalar DiffservNetwork.etherSwitch.ethernet encapPk:count 2522
scalar DiffservNetwork.etherSwitch.ethernet encapPk:sum(packetBytes) 1373700
scalar DiffservNetwork.etherSwitch.eth[0].queue queueLength:last 0
scalar DiffservNetwork.etherSwitch.eth[0].queue queueLength:max 0
scalar DiffservNetwork.etherSwitch.eth[0].queue queueLength:timeavg 0
scalar DiffservNetwork.etherSwitch.eth[0].queue queueBitLength:last 0
scalar DiffservNetwork.etherSwitch.eth[0].queue queueBitLength:max 0
scalar DiffservNetwork.etherSwitch.eth[0].queue queueBitLength:timeavg 0
scalar DiffservNetwork.etherSwitch.eth[0].queue outgoingPackets:count 2
scalar DiffservNetwork.etherSwitch.eth[0].queue outgoingPacketLengths:sum 1024
scalar DiffservNetwork.etherSwitch.eth[0].queue incomingPackets:count 2
scalar DiffservNetwork.etherSwitch.eth[0].queue incomingPacketLengths:sum 1024
scalar DiffservNetwork.etherSwitch.eth[0].queue droppedPacketsQueueOverflow:count 0
scalar DiffservNetwork.etherSwitch.eth[0].queue droppedPacketLengthsQueueOverflow:sum 0
scalar DiffservNetwork.etherSwitch.eth[0].mac "simulated time" 50
scalar DiffservNetwork.etherSwitch.eth[0].mac full-duplex 1
scalar DiffservNetwork.etherSwitch.eth[0].mac "frames/sec sent" 0.040000000000000001
scalar DiffservNetwork.etherSwitch.eth[0].mac "frames/sec rcvd" 30.34
scalar DiffservNetwork.etherSwitch.eth[0].mac "bits/sec sent" 20.48
scalar DiffservNetwork.etherSwitch.eth[0].mac "bits/sec rcvd" 59644.160000000003
scalar DiffservNetwork.etherSwitch.eth[0].mac "rx channel idle (%)" 99.384140799999997
scalar DiffservNetwork.etherSwitch.eth[0].mac "rx channel utilization (%)" 0.61585920000000005
scalar DiffservNetwork.etherSwitch.eth[0].mac rxPausePkUnits:count 0
scalar DiffservNetwork.etherSwitch.eth[0].mac rxPausePkUnits:sum 0
scalar DiffservNetwork.etherSwitch.eth[0].mac txPausePkUnits:count 0
scalar DiffservNetwork.etherSwitch.eth[0].mac txPausePkUnits:sum 0
scalar DiffservNetwork.etherSwitch.eth[0].mac rxPkOk:count 1517
scalar DiffservNetwork.etherSwitch.eth[0].mac rxPkOk:sum(packetBytes) 372776
scalar DiffservNetwork.etherSwitch.eth[0].mac txPk:count 2
scalar DiffservNetwork.etherSwitch.eth[0].mac txPk:sum(packetBytes) 128
scalar DiffservNetwork.etherSwitch.eth[0].mac packetReceivedFromUpper:count 2
scalar DiffservNetwork.etherSwitch.eth[0].mac packetReceivedFromUpper:sum(packetBytes) 128
scalar DiffservNetwork.etherSwitch.eth[0].mac passedUpPk:count 1517
scalar DiffservNetwork.etherSwitch.eth[0].mac passedUpPk:sum(packetBytes) 372776
scalar DiffservNetwork.etherSwitch.eth[0].mac packetDropIncorrectlyReceived:count 0
scalar DiffservNetwork.etherSwitch.eth[0].mac packetDropIncorrectlyReceived:sum(packetBytes) 0
scalar DiffservNetwork.etherSwitch.eth[0].mac packetDropInterfaceDown:count 0
scalar DiffservNetwork.etherSwitch.eth[0].mac packetDropInterfaceDown:sum(packetBytes) 0
scalar DiffservNetwork.etherSwitch.eth[0].mac packetDropNotAddressedToUs:count 0
scalar DiffservNetwork.etherSwitch.eth[0].mac packetDropNotAddressedToUs:sum(packetBytes) 0
scalar DiffservNetwork.etherSwitch.eth[0] packetDropInterfaceDown:count 0
scalar DiffservNetwork.etherSwitch.eth[0] packetDropInterfaceDown:sum(packetBytes) 0
scalar DiffservNetwork.etherSwitch.eth[0] packetDropNoCarrier:count 0
scalar DiffservNetwork.etherSwitch.eth[0] packetDropNoCarrier:sum(packetBytes) 0
scalar DiffservNetwork.etherSwitch.eth[1].queue queueLength:last 0
scalar DiffservNetwork.etherSwitch.eth[1].queue queueLength:max 0
scalar DiffservNetwork.etherSwitch.eth[1].queue queueLength:timeavg 0
scalar DiffservNetwork.etherSwitch.eth[1].queue queueBitLength:last 0
scalar DiffservNetwork.etherSwitch.eth[1].queue queueBitLength:max 0
scalar DiffservNetwork.etherSwitch.eth[1].queue queueBitLength:timeavg 0
scalar DiffservNetwork.etherSwitch.eth[1].queue outgoingPackets:count 2
scalar DiffservNetwork.etherSwitch.eth[1].queue outgoingPacketLengths:sum 1024
scalar DiffservNetwork.etherSwitch.eth[1].queue incomingPackets:count 2
scalar DiffservNetwork.etherSwitch.eth[1].queue incomingPacketLengths:sum 1024
scalar DiffservNetwork.etherSwitch.eth[1].queue droppedPacketsQueueOverflow:count 0
scalar DiffservNetwork.etherSwitch.eth[1].queue droppedPacketLengthsQueueOverflow:sum 0
scalar DiffservNetwork.etherSwitch.eth[1].mac "simulated time" 50
scalar DiffservNetwork.etherSwitch.eth[1].mac full-duplex 1
scalar DiffservNetwork.etherSwitch.eth[1].mac "frames/sec sent" 0.040000000000000001
scalar DiffservNetwork.etherSwitch.eth[1].mac "frames/sec rcvd" 20.02
scalar DiffservNetwork.etherSwitch.eth[1].mac "bits/sec sent" 20.48
scalar DiffservNetwork.etherSwitch.eth[1].mac "bits/sec rcvd" 167370.23999999999
scalar DiffservNetwork.etherSwitch.eth[1].mac "rx channel idle (%)" 98.313484799999998
scalar DiffservNetwork.etherSwitch.eth[1].mac "rx channel utilization (%)" 1.6865152000000001
scalar DiffservNetwork.etherSwitch.eth[1].mac rxPausePkUnits:count 0
scalar DiffservNetwork.etherSwitch.eth[1].mac rxPausePkUnits:sum 0
scalar DiffservNetwork.etherSwitch.eth[1].mac txPausePkUnits:count 0
scalar DiffservNetwork.etherSwitch.eth[1].mac txPausePkUnits:sum 0
scalar DiffservNetwork.etherSwitch.eth[1].mac rxPkOk:count 1001
scalar DiffservNetwork.etherSwitch.eth[1].mac rxPkOk:sum(packetBytes) 1046064
scalar DiffservNetwork.etherSwitch.eth[1].mac txPk:count 2
scalar DiffservNetwork.etherSwitch.eth[1].mac txPk:sum(packetBytes) 128
scalar DiffservNetwork.etherSwitch.eth[1].mac packetReceivedFromUpper:count 2
scalar DiffservNetwork.etherSwitch.eth[1].mac packetReceivedFromUpper:sum(packetBytes) 128
scalar DiffservNetwork.etherSwitch.eth[1].mac passedUpPk:count 1001
scalar DiffservNetwork.etherSwitch.eth[1].mac passedUpPk:sum(packetBytes) 1046064
scalar DiffservNetwork.etherSwitch.eth[1].mac packetDropIncorrectlyReceived:count 0
scalar DiffservNetwork.etherSwitch.eth[1].mac packetDropIncorrectlyReceived:sum(packetBytes) 0
scalar DiffservNetwork.etherSwitch.eth[1].mac packetDropInterfaceDown:count 0
scalar DiffservNetwork.etherSwitch.eth[1].mac packetDropInterfaceDown:sum(packetBytes) 0
scalar DiffservNetwork.etherSwitch.eth[1].mac packetDropNotAddressedToUs:count 0
scalar DiffservNetwork.etherSwitch.eth[1].mac packetDropNotAddressedToUs:sum(packetBytes) 0
scalar DiffservNetwork.etherSwitch.eth[1] packetDropInterfaceDown:count 0
scalar DiffservNetwork.etherSwitch.eth[1] packetDropInterfaceDown:sum(packetBytes) 0
scalar DiffservNetwork.etherSwitch.eth[1] packetDropNoCarrier:count 0
scalar DiffservNetwork.etherSwitch.eth[1] packetDropNoCarrier:sum(packetBytes) 0
scalar DiffservNetwork.etherSwitch.eth[2].queue queueLength:last 0
scalar DiffservNetwork.etherSwitch.eth[2].queue queueLength:max 0
scalar DiffservNetwork.etherSwitch.eth[2].queue queueLength:timeavg 0
scalar DiffservNetwork.etherSwitch.eth[2].queue queueBitLength:last 0
scalar DiffservNetwork.etherSwitch.eth[2].queue queueBitLength:max 0
scalar DiffservNetwork.etherSwitch.eth[2].queue queueBitLength:timeavg 0
scalar DiffservNetwork.etherSwitch.eth[2].queue outgoingPackets:count 2518
scalar DiffservNetwork.etherSwitch.eth[2].queue outgoingPacketLengths:sum 11350720
scalar DiffservNetwork.etherSwitch.eth[2].queue incomingPackets:count 2518
scalar DiffservNetwork.etherSwitch.eth[2].queue incomingPacketLengths:sum 11350720
scalar DiffservNetwork.etherSwitch.eth[2].queue droppedPacketsQueueOverflow:count 0
scalar DiffservNetwork.etherSwitch.eth[2].queue droppedPacketLengthsQueueOverflow:sum 0
scalar DiffservNetwork.etherSwitch.eth[2].mac "simulated time" 50
scalar DiffservNetwork.etherSwitch.eth[2].mac full-duplex 1
scalar DiffservNetwork.etherSwitch.eth[2].mac "frames/sec sent" 50.359999999999999
scalar DiffservNetwork.etherSwitch.eth[2].mac "frames/sec rcvd" 0.040000000000000001
scalar DiffservNetwork.etherSwitch.eth[2].mac "bits/sec sent" 227014.39999999999
scalar DiffservNetwork.etherSwitch.eth[2].mac "bits/sec rcvd" 20.48
scalar DiffservNetwork.etherSwitch.eth[2].mac "rx channel idle (%)" 99.999769599999993
scalar DiffservNetwork.etherSwitch.eth[2].mac "rx channel utilization (%)" 0.00023039999999999999
scalar DiffservNetwork.etherSwitch.eth[2].mac rxPausePkUnits:count 0
scalar DiffservNetwork.etherSwitch.eth[2].mac rxPausePkUnits:sum 0
scalar DiffservNetwork.etherSwitch.eth[2].mac txPausePkUnits:count 0
scalar DiffservNetwork.etherSwitch.eth[2].mac txPausePkUnits:sum 0
scalar DiffservNetwork.etherSwitch.eth[2].mac rxPkOk:count 2
scalar DiffservNetwork.etherSwitch.eth[2].mac rxPkOk:sum(packetBytes) 128
scalar DiffservNetwork.etherSwitch.eth[2].mac txPk:count 2518
scalar DiffservNetwork.etherSwitch.eth[2].mac txPk:sum(packetBytes) 1418840
scalar DiffservNetwork.etherSwitch.eth[2].mac packetReceivedFromUpper:count 2518
scalar DiffservNetwork.etherSwitch.eth[2].mac packetReceivedFromUpper:sum(packetBytes) 1418840
scalar DiffservNetwork.etherSwitch.eth[2].mac passedUpPk:count 2
scalar DiffservNetwork.etherSwitch.eth[2].mac passedUpPk:sum(packetBytes) 128
scalar DiffservNetwork.etherSwitch.eth[2].mac packetDropIncorrectlyReceived:count 0
scalar DiffservNetwork.etherSwitch.eth[2].mac packetDropIncorrectlyReceived:sum(packetBytes) 0
scalar DiffservNetwork.etherSwitch.eth[2].mac packetDropInterfaceDown:count 0
scalar DiffservNetwork.etherSwitch.eth[2].mac packetDropInterfaceDown:sum(packetBytes) 0
scalar DiffservNetwork.etherSwitch.eth[2].mac packetDropNotAddressedToUs:count 0
scalar DiffservNetwork.etherSwitch.eth[2].mac packetDropNotAddressedToUs:sum(packetBytes) 0
scalar DiffservNetwork.etherSwitch.eth[2] packetDropInterfaceDown:count 0
scalar DiffservNetwork.etherSwitch.eth[2] packetDropInterfaceDown:sum(packetBytes) 0
scalar DiffservNetwork.etherSwitch.eth[2] packetDropNoCarrier:count 0
scalar DiffservNetwork.etherSwitch.eth[2] packetDropNoCarrier:sum(packetBytes) 0
scalar DiffservNetwork.internet.lo[0].lo rcvdPkFromHl:count 0
scalar DiffservNetwork.internet.lo[0].lo rcvdPkFromHl:sum(packetBytes) 0
scalar DiffservNetwork.internet.lo[0].lo passedUpPk:count 0
scalar DiffservNetwork.internet.lo[0].lo passedUpPk:sum(packetBytes) 0
scalar DiffservNetwork.internet.lo[0] packetDropInterfaceDown:count 0
scalar DiffservNetwork.internet.lo[0] packetDropInterfaceDown:sum(packetBytes) 0
scalar DiffservNetwork.internet.lo[0] packetDropNoCarrier:count 0
scalar DiffservNetwork.internet.lo[0] packetDropNoCarrier:sum(packetBytes) 0
scalar DiffservNetwork.internet.ppp[0].queue queueLength:last 0
scalar DiffservNetwork.internet.ppp[0].queue queueLength:max 0
scalar DiffservNetwork.internet.ppp[0].queue queueLength:timeavg 0
scalar DiffservNetwork.internet.ppp[0].queue queueBitLength:last 0
scalar DiffservNetwork.internet.ppp[0].queue queueBitLength:max 0
scalar DiffservNetwork.internet.ppp[0].queue queueBitLength:timeavg 0
scalar DiffservNetwork.internet.ppp[0].queue outgoingPackets:count 0
scalar DiffservNetwork.internet.ppp[0].queue outgoingPacketLengths:sum 0
scalar DiffservNetwork.internet.ppp[0].queue incomingPackets:count 0
scalar DiffservNetwork.internet.ppp[0].queue incomingPacketLengths:sum 0
scalar DiffservNetwork.internet.ppp[0].queue droppedPacketsQueueOverflow:count 0
scalar DiffservNetwork.internet.ppp[0].queue droppedPacketLengthsQueueOverflow:sum 0
scalar DiffservNetwork.internet.ppp[0].ppp transmissionState:timeavg 0
scalar DiffservNetwork.internet.ppp[0].ppp rxPkOk:count 1753
scalar DiffservNetwork.internet.ppp[0].ppp rxPkOk:sum(packetBytes) 601331
scalar DiffservNetwork.internet.ppp[0].ppp txPk:count 0
scalar DiffservNetwork.internet.ppp[0].ppp txPk:sum(packetBytes) 0
scalar DiffservNetwork.internet.ppp[0].ppp rcvdPkFromHl:count 0
scalar DiffservNetwork.internet.ppp[0].ppp rcvdPkFromHl:sum(packetBytes) 0
scalar DiffservNetwork.internet.ppp[0].ppp passedUpPk:count 1753
scalar DiffservNetwork.internet.ppp[0].ppp passedUpPk:sum(packetBytes) 589060
scalar DiffservNetwork.internet.ppp[0].ppp packetDropIncorrectlyReceived:count 0
scalar DiffservNetwork.internet.ppp[0].ppp packetDropIncorrectlyReceived:sum(packetBytes) 0
scalar DiffservNetwork.internet.ppp[0].ppp packetDropInterfaceDown:count 0
scalar DiffservNetwork.internet.ppp[0].ppp packetDropInterfaceDown:sum(packetBytes) 0
scalar DiffservNetwork.internet.ppp[0] packetDropInterfaceDown:count 0
scalar DiffservNetwork.internet.ppp[0] packetDropInterfaceDown:sum(packetBytes) 0
scalar DiffservNetwork.internet.ppp[0] packetDropNoCarrier:count 0
scalar DiffservNetwork.internet.ppp[0] packetDropNoCarrier:sum(packetBytes) 0
scalar DiffservNetwork.internet.ppp[1].queue queueLength:last 0
scalar DiffservNetwork.internet.ppp[1].queue queueLength:max 0
scalar DiffservNetwork.internet.ppp[1].queue queueLength:timeavg 0
scalar DiffservNetwork.internet.ppp[1].queue queueBitLength:last 0
scalar DiffservNetwork.internet.ppp[1].queue queueBitLength:max 0
scalar DiffservNetwork.internet.ppp[1].queue queueBitLength:timeavg 0
scalar DiffservNetwork.internet.ppp[1].queue outgoingPackets:count 237
scalar DiffservNetwork.internet.ppp[1].queue outgoingPacketLengths:sum 1949088
scalar DiffservNetwork.internet.ppp[1].queue incomingPackets:count 237
scalar DiffservNetwork.internet.ppp[1].queue incomingPacketLengths:sum 1949088
scalar DiffservNetwork.internet.ppp[1].queue droppedPacketsQueueOverflow:count 0
scalar DiffservNetwork.internet.ppp[1].queue droppedPacketLengthsQueueOverflow:sum 0
scalar DiffservNetwork.internet.ppp[1].ppp transmissionState:timeavg 0.30661874999999911
scalar DiffservNetwork.internet.ppp[1].ppp rxPkOk:count 0
scalar DiffservNetwork.internet.ppp[1].ppp rxPkOk:sum(packetBytes) 0
scalar DiffservNetwork.internet.ppp[1].ppp txPk:count 237
scalar DiffservNetwork.internet.ppp[1].ppp txPk:sum(packetBytes) 245295
scalar DiffservNetwork.internet.ppp[1].ppp rcvdPkFromHl:count 237
scalar DiffservNetwork.internet.ppp[1].ppp rcvdPkFromHl:sum(packetBytes) 243636
scalar DiffservNetwork.internet.ppp[1].ppp passedUpPk:count 0
scalar DiffservNetwork.internet.ppp[1].ppp passedUpPk:sum(packetBytes) 0
scalar DiffservNetwork.internet.ppp[1].ppp packetDropIncorrectlyReceived:count 0
scalar DiffservNetwork.internet.ppp[1].ppp packetDropIncorrectlyReceived:sum(packetBytes) 0
scalar DiffservNetwork.internet.ppp[1].ppp packetDropInterfaceDown:count 0
scalar DiffservNetwork.internet.ppp[1].ppp packetDropInterfaceDown:sum(packetBytes) 0
scalar DiffservNetwork.internet.ppp[1] packetDropInterfaceDown:count 0
scalar DiffservNetwork.internet.ppp[1] packetDropInterfaceDown:sum(packetBytes) 0
scalar DiffservNetwork.internet.ppp[1] packetDropNoCarrier:count 0
scalar DiffservNetwork.internet.ppp[1] packetDropNoCarrier:sum(packetBytes) 0
scalar DiffservNetwork.internet.ppp[2].queue queueLength:last 0
scalar DiffservNetwork.internet.ppp[2].queue queueLength:max 1
scalar DiffservNetwork.internet.ppp[2].queue queueLength:timeavg 8.0000000000000007e-05
scalar DiffservNetwork.internet.ppp[2].queue queueBitLength:last 0
scalar DiffservNetwork.internet.ppp[2].queue queueBitLength:max 1312
scalar DiffservNetwork.internet.ppp[2].queue queueBitLength:timeavg 0.10496
scalar DiffservNetwork.internet.ppp[2].queue outgoingPackets:count 1516
scalar DiffservNetwork.internet.ppp[2].queue outgoingPacketLengths:sum 2763392
scalar DiffservNetwork.internet.ppp[2].queue incomingPackets:count 1516
scalar DiffservNetwork.internet.ppp[2].queue incomingPacketLengths:sum 2763392
scalar DiffservNetwork.internet.ppp[2].queue droppedPacketsQueueOverflow:count 0
scalar DiffservNetwork.internet.ppp[2].queue droppedPacketLengthsQueueOverflow:sum 0
scalar DiffservNetwork.internet.ppp[2].ppp transmissionState:timeavg 0.44504500000001612
scalar DiffservNetwork.internet.ppp[2].ppp rxPkOk:count 0
scalar DiffservNetwork.internet.ppp[2].ppp rxPkOk:sum(packetBytes) 0
scalar DiffservNetwork.internet.ppp[2].ppp txPk:count 1516
scalar DiffservNetwork.internet.ppp[2].ppp txPk:sum(packetBytes) 356036
scalar DiffservNetwork.internet.ppp[2].ppp rcvdPkFromHl:count 1516
scalar DiffservNetwork.internet.ppp[2].ppp rcvdPkFromHl:sum(packetBytes) 345424
scalar DiffservNetwork.internet.ppp[2].ppp passedUpPk:count 0
scalar DiffservNetwork.internet.ppp[2].ppp passedUpPk:sum(packetBytes) 0
scalar DiffservNetwork.internet.ppp[2].ppp packetDropIncorrectlyReceived:count 0
scalar DiffservNetwork.internet.ppp[2].ppp packetDropIncorrectlyReceived:sum(packetBytes) 0
scalar DiffservNetwork.internet.ppp[2].ppp packetDropInterfaceDown:count 0
scalar DiffservNetwork.internet.ppp[2].ppp packetDropInterfaceDown:sum(packetBytes) 0
scalar DiffservNetwork.internet.ppp[2] packetDropInterfaceDown:count 0
scalar DiffservNetwork.internet.ppp[2] packetDropInterfaceDown:sum(packetBytes) 0
scalar DiffservNetwork.internet.ppp[2] packetDropNoCarrier:count 0
scalar DiffservNetwork.internet.ppp[2] packetDropNoCarrier:sum(packetBytes) 0
scalar DiffservNetwork.internet.ipv4.ip packetDropAddressResolutionFailed:count 0
scalar DiffservNetwork.internet.ipv4.ip packetDropAddressResolutionFailed:sum(packetBytes) 0
scalar DiffservNetwork.internet.ipv4.ip packetDropHopLimitReached:count 0
scalar DiffservNetwork.internet.ipv4.ip packetDropHopLimitReached:sum(packetBytes) 0
scalar DiffservNetwork.internet.ipv4.ip packetDropForwardingDisabled:count 0
scalar DiffservNetwork.internet.ipv4.ip packetDropForwardingDisabled:sum(packetBytes) 0
scalar DiffservNetwork.internet.ipv4.ip packetDropLifetimeExpired:count 0
scalar DiffservNetwork.internet.ipv4.ip packetDropLifetimeExpired:sum(packetBytes) 0
scalar DiffservNetwork.internet.ipv4.ip packetDropNoInterfaceFound:count 0
scalar DiffservNetwork.internet.ipv4.ip packetDropNoInterfaceFound:sum(packetBytes) 0
scalar DiffservNetwork.internet.ipv4.ip packetDropNoRouteFound:count 0
scalar DiffservNetwork.internet.ipv4.ip packetDropNoRouteFound:sum(packetBytes) 0
scalar DiffservNetwork.internet.ipv4.ip packetDropUndefined:count 0
scalar DiffservNetwork.internet.ipv4.ip packetDropUndefined:sum(packetBytes) 0
scalar DiffservNetwork.internet.ipv4.arp arpResolutionFailed:count 0
scalar DiffservNetwork.internet.ipv4.arp arpResolutionCompleted:count 0
scalar DiffservNetwork.internet.ipv4.arp arpResolutionInitiated:count 0
scalar DiffservNetwork.internet.ipv4.arp arpReplySent:count 0
scalar DiffservNetwork.internet.ipv4.arp arpReplySent:sum(packetBytes) 0
scalar DiffservNetwork.internet.ipv4.arp arpRequestSent:count 0
scalar DiffservNetwork.internet.ipv4.arp arpRequestSent:sum(packetBytes) 0
scalar DiffservNetwork.voipPhone2.app[0] lostPackets:stats:count 0
scalar DiffservNetwork.voipPhone2.app[0] lostPackets:stats:sumweights 0
scalar DiffservNetwork.voipPhone2.app[0] lostPackets:stats:mean -nan
scalar DiffservNetwork.voipPhone2.app[0] lostPackets:stats:stddev nan
scalar DiffservNetwork.voipPhone2.app[0] lostPackets:stats:min nan
scalar DiffservNetwork.voipPhone2.app[0] lostPackets:stats:max nan
scalar DiffservNetwork.voipPhone2.app[0] lostPackets:stats:numbins 0
scalar DiffservNetwork.voipPhone2.app[0] lostSamples:stats:count 127
scalar DiffservNetwork.voipPhone2.app[0] lostSamples:stats:sumweights 127
scalar DiffservNetwork.voipPhone2.app[0] lostSamples:stats:mean 88.724409448818903
scalar DiffservNetwork.voipPhone2.app[0] lostSamples:stats:stddev 76.772874380994168
scalar DiffservNetwork.voipPhone2.app[0] lostSamples:stats:min 15
scalar DiffservNetwork.voipPhone2.app[0] lostSamples:stats:max 475
scalar DiffservNetwork.voipPhone2.app[0] lostSamples:stats:numbins 0
scalar DiffservNetwork.client.app[0] rcvdPkLifetime:stats:count 0
scalar DiffservNetwork.client.app[0] rcvdPkLifetime:stats:sumweights 0
scalar DiffservNetwork.client.app[0] rcvdPkLifetime:stats:mean -nan
scalar DiffservNetwork.client.app[0] rcvdPkLifetime:stats:stddev nan
scalar DiffservNetwork.client.app[0] rcvdPkLifetime:stats:min nan
scalar DiffservNetwork.client.app[0] rcvdPkLifetime:stats:max nan
scalar DiffservNetwork.client.app[0] rcvdPkLifetime:stats:numbins 0
scalar DiffservNetwork.client.app[1] rcvdPkLifetime:stats:count 0
scalar DiffservNetwork.client.app[1] rcvdPkLifetime:stats:sumweights 0
scalar DiffservNetwork.client.app[1] rcvdPkLifetime:stats:mean -nan
scalar DiffservNetwork.client.app[1] rcvdPkLifetime:stats:stddev nan
scalar DiffservNetwork.client.app[1] rcvdPkLifetime:stats:min nan
scalar DiffservNetwork.client.app[1] rcvdPkLifetime:stats:max nan
scalar DiffservNetwork.client.app[1] rcvdPkLifetime:stats:numbins 0
scalar DiffservNetwork.router.ppp[0].egressTC.mfClassifier packetLengths:histogram:count 0
scalar DiffservNetwork.router.ppp[0].egressTC.mfClassifier packetLengths:histogram:sumweights 0
scalar DiffservNetwork.router.ppp[0].egressTC.mfClassifier packetLengths:histogram:mean -nan
scalar DiffservNetwork.router.ppp[0].egressTC.mfClassifier packetLengths:histogram:stddev nan
scalar DiffservNetwork.router.ppp[0].egressTC.mfClassifier packetLengths:histogram:min nan
scalar DiffservNetwork.router.ppp[0].egressTC.mfClassifier packetLengths:histogram:max nan
scalar DiffservNetwork.router.ppp[0].egressTC.mfClassifier packetLengths:histogram:numbins 1
scalar DiffservNetwork.router.ppp[0].egressTC.mfClassifier packetLengths:histogram:rangemin 0
scalar DiffservNetwork.router.ppp[0].egressTC.mfClassifier packetLengths:histogram:rangemax 1
scalar DiffservNetwork.router.ppp[0].egressTC.mfClassifier packetLengths:histogram:underflows 0
scalar DiffservNetwork.router.ppp[0].egressTC.mfClassifier packetLengths:histogram:overflows 0
scalar DiffservNetwork.router.ppp[0].egressTC.mux packetLengths:histogram:count 0
scalar DiffservNetwork.router.ppp[0].egressTC.mux packetLengths:histogram:sumweights 0
scalar DiffservNetwork.router.ppp[0].egressTC.mux packetLengths:histogram:mean -nan
scalar DiffservNetwork.router.ppp[0].egressTC.mux packetLengths:histogram:stddev nan
scalar DiffservNetwork.router.ppp[0].egressTC.mux packetLengths:histogram:min nan
scalar DiffservNetwork.router.ppp[0].egressTC.mux packetLengths:histogram:max nan
scalar DiffservNetwork.router.ppp[0].egressTC.mux packetLengths:histogram:numbins 1
scalar DiffservNetwork.router.ppp[0].egressTC.mux packetLengths:histogram:rangemin 0
scalar DiffservNetwork.router.ppp[0].egressTC.mux packetLengths:histogram:rangemax 1
scalar DiffservNetwork.router.ppp[0].egressTC.mux packetLengths:histogram:underflows 0
scalar DiffservNetwork.router.ppp[0].egressTC.mux packetLengths:histogram:overflows 0
scalar DiffservNetwork.router.ppp[0].egressTC.join packetLengths:histogram:count 0
scalar DiffservNetwork.router.ppp[0].egressTC.join packetLengths:histogram:sumweights 0
scalar DiffservNetwork.router.ppp[0].egressTC.join packetLengths:histogram:mean -nan
scalar DiffservNetwork.router.ppp[0].egressTC.join packetLengths:histogram:stddev nan
scalar DiffservNetwork.router.ppp[0].egressTC.join packetLengths:histogram:min nan
scalar DiffservNetwork.router.ppp[0].egressTC.join packetLengths:histogram:max nan
scalar DiffservNetwork.router.ppp[0].egressTC.join packetLengths:histogram:numbins 1
scalar DiffservNetwork.router.ppp[0].egressTC.join packetLengths:histogram:rangemin 0
scalar DiffservNetwork.router.ppp[0].egressTC.join packetLengths:histogram:rangemax 1
scalar DiffservNetwork.router.ppp[0].egressTC.join packetLengths:histogram:underflows 0
scalar DiffservNetwork.router.ppp[0].egressTC.join packetLengths:histogram:overflows 0
scalar DiffservNetwork.router.ppp[0].egressTC.baClassifier packetLengths:histogram:count 0
scalar DiffservNetwork.router.ppp[0].egressTC.baClassifier packetLengths:histogram:sumweights 0
scalar DiffservNetwork.router.ppp[0].egressTC.baClassifier packetLengths:histogram:mean -nan
scalar DiffservNetwork.router.ppp[0].egressTC.baClassifier packetLengths:histogram:stddev nan
scalar DiffservNetwork.router.ppp[0].egressTC.baClassifier packetLengths:histogram:min nan
scalar DiffservNetwork.router.ppp[0].egressTC.baClassifier packetLengths:histogram:max nan
scalar DiffservNetwork.router.ppp[0].egressTC.baClassifier packetLengths:histogram:numbins 1
scalar DiffservNetwork.router.ppp[0].egressTC.baClassifier packetLengths:histogram:rangemin 0
scalar DiffservNetwork.router.ppp[0].egressTC.baClassifier packetLengths:histogram:rangemax 1
scalar DiffservNetwork.router.ppp[0].egressTC.baClassifier packetLengths:histogram:underflows 0
scalar DiffservNetwork.router.ppp[0].egressTC.baClassifier packetLengths:histogram:overflows 0
scalar DiffservNetwork.router.ppp[0].egressTC.dropper packetLengths:histogram:count 763
scalar DiffservNetwork.router.ppp[0].egressTC.dropper packetLengths:histogram:sumweights 763
scalar DiffservNetwork.router.ppp[0].egressTC.dropper packetLengths:histogram:mean 8224
scalar DiffservNetwork.router.ppp[0].egressTC.dropper packetLengths:histogram:stddev 0
scalar DiffservNetwork.router.ppp[0].egressTC.dropper packetLengths:histogram:min 8224
scalar DiffservNetwork.router.ppp[0].egressTC.dropper packetLengths:histogram:max 8224
scalar DiffservNetwork.router.ppp[0].egressTC.dropper packetLengths:histogram:numbins 2
scalar DiffservNetwork.router.ppp[0].egressTC.dropper packetLengths:histogram:rangemin 8223
scalar DiffservNetwork.router.ppp[0].egressTC.dropper packetLengths:histogram:rangemax 8225
scalar DiffservNetwork.router.ppp[0].egressTC.dropper packetLengths:histogram:underflows 0
scalar DiffservNetwork.router.ppp[0].egressTC.dropper packetLengths:histogram:overflows 0
scalar DiffservNetwork.router.ppp[0].egressTC.dropper meanBitLifeTimePerPacket:histogram:count 763
scalar DiffservNetwork.router.ppp[0].egressTC.dropper meanBitLifeTimePerPacket:histogram:sumweights 763
scalar DiffservNetwork.router.ppp[0].egressTC.dropper meanBitLifeTimePerPacket:histogram:mean 0.0016864999999999931
scalar DiffservNetwork.router.ppp[0].egressTC.dropper meanBitLifeTimePerPacket:histogram:stddev 0
scalar DiffservNetwork.router.ppp[0].egressTC.dropper meanBitLifeTimePerPacket:histogram:min 0.0016865000000000001
scalar DiffservNetwork.router.ppp[0].egressTC.dropper meanBitLifeTimePerPacket:histogram:max 0.0016865000000000001
scalar DiffservNetwork.router.ppp[0].egressTC.dropper meanBitLifeTimePerPacket:histogram:numbins 51
scalar DiffservNetwork.router.ppp[0].egressTC.dropper meanBitLifeTimePerPacket:histogram:rangemin 0
scalar DiffservNetwork.router.ppp[0].egressTC.dropper meanBitLifeTimePerPacket:histogram:rangemax 0.51000000000000001
scalar DiffservNetwork.router.ppp[0].egressTC.dropper meanBitLifeTimePerPacket:histogram:underflows 0
scalar DiffservNetwork.router.ppp[0].egressTC.dropper meanBitLifeTimePerPacket:histogram:overflows 0
scalar DiffservNetwork.router.ppp[0].egressTC.dropper packetLifeTime:histogram:count 763
scalar DiffservNetwork.router.ppp[0].egressTC.dropper packetLifeTime:histogram:sumweights 763
scalar DiffservNetwork.router.ppp[0].egressTC.dropper packetLifeTime:histogram:mean 0.0016864999999999931
scalar DiffservNetwork.router.ppp[0].egressTC.dropper packetLifeTime:histogram:stddev 0
scalar DiffservNetwork.router.ppp[0].egressTC.dropper packetLifeTime:histogram:min 0.0016865000000000001
scalar DiffservNetwork.router.ppp[0].egressTC.dropper packetLifeTime:histogram:max 0.0016865000000000001
scalar DiffservNetwork.router.ppp[0].egressTC.dropper packetLifeTime:histogram:numbins 51
scalar DiffservNetwork.router.ppp[0].egressTC.dropper packetLifeTime:histogram:rangemin 0
scalar DiffservNetwork.router.ppp[0].egressTC.dropper packetLifeTime:histogram:rangemax 0.51000000000000001
scalar DiffservNetwork.router.ppp[0].egressTC.dropper packetLifeTime:histogram:underflows 0
scalar DiffservNetwork.router.ppp[0].egressTC.dropper packetLifeTime:histogram:overflows 0
scalar DiffservNetwork.router.ppp[0].egressTC.dropper packetJitter:histogram:count 763
scalar DiffservNetwork.router.ppp[0].egressTC.dropper packetJitter:histogram:sumweights 763
scalar DiffservNetwork.router.ppp[0].egressTC.dropper packetJitter:histogram:mean 2.2103538663171691e-06
scalar DiffservNetwork.router.ppp[0].egressTC.dropper packetJitter:histogram:stddev 6.1055399397136909e-05
scalar DiffservNetwork.router.ppp[0].egressTC.dropper packetJitter:histogram:min 0
scalar DiffservNetwork.router.ppp[0].egressTC.dropper packetJitter:histogram:max 0.0016865000000000001
scalar DiffservNetwork.router.ppp[0].egressTC.dropper packetJitter:histogram:numbins 43
scalar DiffservNetwork.router.ppp[0].egressTC.dropper packetJitter:histogram:rangemin 0
scalar DiffservNetwork.router.ppp[0].egressTC.dropper packetJitter:histogram:rangemax 0.00215
scalar DiffservNetwork.router.ppp[0].egressTC.dropper packetJitter:histogram:underflows 0
scalar DiffservNetwork.router.ppp[0].egressTC.dropper packetJitter:histogram:overflows 0
scalar DiffservNetwork.router.ppp[0].egressTC.dropper packetDelayDifferenceToMean:histogram:count 763
scalar DiffservNetwork.router.ppp[0].egressTC.dropper packetDelayDifferenceToMean:histogram:sumweights 763
scalar DiffservNetwork.router.ppp[0].egressTC.dropper packetDelayDifferenceToMean:histogram:mean 1.2126581048481383e-18
scalar DiffservNetwork.router.ppp[0].egressTC.dropper packetDelayDifferenceToMean:histogram:stddev 6.0299764192082081e-18
scalar DiffservNetwork.router.ppp[0].egressTC.dropper packetDelayDifferenceToMean:histogram:min -9.1072982488782372e-18
scalar DiffservNetwork.router.ppp[0].egressTC.dropper packetDelayDifferenceToMean:histogram:max 1.3010426069826053e-17
scalar DiffservNetwork.router.ppp[0].egressTC.dropper packetDelayDifferenceToMean:histogram:numbins 63
scalar DiffservNetwork.router.ppp[0].egressTC.dropper packetDelayDifferenceToMean:histogram:rangemin -1.2000000000000001e-17
scalar DiffservNetwork.router.ppp[0].egressTC.dropper packetDelayDifferenceToMean:histogram:rangemax 1.3199999999999991e-17
scalar DiffservNetwork.router.ppp[0].egressTC.dropper packetDelayDifferenceToMean:histogram:underflows 0
scalar DiffservNetwork.router.ppp[0].egressTC.dropper packetDelayDifferenceToMean:histogram:overflows 0
scalar DiffservNetwork.router.ppp[0].egressTC.dropper packetDelayVariation:histogram:count 763
scalar DiffservNetwork.router.ppp[0].egressTC.dropper packetDelayVariation:histogram:sumweights 763
scalar DiffservNetwork.router.ppp[0].egressTC.dropper packetDelayVariation:histogram:mean 3.8072196035216696e-11
scalar DiffservNetwork.router.ppp[0].egressTC.dropper packetDelayVariation:histogram:stddev 5.2069685276080784e-11
scalar DiffservNetwork.router.ppp[0].egressTC.dropper packetDelayVariation:histogram:min 0
scalar DiffservNetwork.router.ppp[0].egressTC.dropper packetDelayVariation:histogram:max 1.3554933991906647e-10
scalar DiffservNetwork.router.ppp[0].egressTC.dropper packetDelayVariation:histogram:numbins 78
scalar DiffservNetwork.router.ppp[0].egressTC.dropper packetDelayVariation:histogram:rangemin 0
scalar DiffservNetwork.router.ppp[0].egressTC.dropper packetDelayVariation:histogram:rangemax 1.5600000000000003e-10
scalar DiffservNetwork.router.ppp[0].egressTC.dropper packetDelayVariation:histogram:underflows 0
scalar DiffservNetwork.router.ppp[0].egressTC.dropper packetDelayVariation:histogram:overflows 0
scalar DiffservNetwork.router.ppp[0].egressTC.dropper droppedPacketLengths:histogram:count 763
scalar DiffservNetwork.router.ppp[0].egressTC.dropper droppedPacketLengths:histogram:sumweights 763
scalar DiffservNetwork.router.ppp[0].egressTC.dropper droppedPacketLengths:histogram:mean 8224
scalar DiffservNetwork.router.ppp[0].egressTC.dropper droppedPacketLengths:histogram:stddev 0
scalar DiffservNetwork.router.ppp[0].egressTC.dropper droppedPacketLengths:histogram:min 8224
scalar DiffservNetwork.router.ppp[0].egressTC.dropper droppedPacketLengths:histogram:max 8224
scalar DiffservNetwork.router.ppp[0].egressTC.dropper droppedPacketLengths:histogram:numbins 2
scalar DiffservNetwork.router.ppp[0].egressTC.dropper droppedPacketLengths:histogram:rangemin 8223
scalar DiffservNetwork.router.ppp[0].egressTC.dropper droppedPacketLengths:histogram:rangemax 8225
scalar DiffservNetwork.router.ppp[0].egressTC.dropper droppedPacketLengths:histogram:underflows 0
scalar DiffservNetwork.router.ppp[0].egressTC.dropper droppedPacketLengths:histogram:overflows 0
scalar DiffservNetwork.router.ppp[0].queue queueingTime:histogram:count 1753
scalar DiffservNetwork.router.ppp[0].queue queueingTime:histogram:sumweights 1753
scalar DiffservNetwork.router.ppp[0].queue queueingTime:histogram:mean 0.77921440844611201
scalar DiffservNetwork.router.ppp[0].queue queueingTime:histogram:stddev 0.36036788243362111
scalar DiffservNetwork.router.ppp[0].queue queueingTime:histogram:min 0
scalar DiffservNetwork.router.ppp[0].queue queueingTime:histogram:max 1.408451560526
scalar DiffservNetwork.router.ppp[0].queue queueingTime:histogram:numbins 71
scalar DiffservNetwork.router.ppp[0].queue queueingTime:histogram:rangemin 0
scalar DiffservNetwork.router.ppp[0].queue queueingTime:histogram:rangemax 1.4200000000000002
scalar DiffservNetwork.router.ppp[0].queue queueingTime:histogram:underflows 0
scalar DiffservNetwork.router.ppp[0].queue queueingTime:histogram:overflows 0
scalar DiffservNetwork.router.ppp[0].queue outgoingPacketLengths:histogram:count 1753
scalar DiffservNetwork.router.ppp[0].queue outgoingPacketLengths:histogram:sumweights 1753
scalar DiffservNetwork.router.ppp[0].queue outgoingPacketLengths:histogram:mean 2688.2373074729035
scalar DiffservNetwork.router.ppp[0].queue outgoingPacketLengths:histogram:stddev 2189.6516305768191
scalar DiffservNetwork.router.ppp[0].queue outgoingPacketLengths:histogram:min 544
scalar DiffservNetwork.router.ppp[0].queue outgoingPacketLengths:histogram:max 8224
scalar DiffservNetwork.router.ppp[0].queue outgoingPacketLengths:histogram:numbins 51
scalar DiffservNetwork.router.ppp[0].queue outgoingPacketLengths:histogram:rangemin 0
scalar DiffservNetwork.router.ppp[0].queue outgoingPacketLengths:histogram:rangemax 10200
scalar DiffservNetwork.router.ppp[0].queue outgoingPacketLengths:histogram:underflows 0
scalar DiffservNetwork.router.ppp[0].queue outgoingPacketLengths:histogram:overflows 0
scalar DiffservNetwork.router.ppp[0].queue flowQueueingTime:histogram:count 0
scalar DiffservNetwork.router.ppp[0].queue flowQueueingTime:histogram:sumweights 0
scalar DiffservNetwork.router.ppp[0].queue flowQueueingTime:histogram:mean -nan
scalar DiffservNetwork.router.ppp[0].queue flowQueueingTime:histogram:stddev nan
scalar DiffservNetwork.router.ppp[0].queue flowQueueingTime:histogram:min nan
scalar DiffservNetwork.router.ppp[0].queue flowQueueingTime:histogram:max nan
scalar DiffservNetwork.router.ppp[0].queue flowQueueingTime:histogram:numbins 1
scalar DiffservNetwork.router.ppp[0].queue flowQueueingTime:histogram:rangemin 0
scalar DiffservNetwork.router.ppp[0].queue flowQueueingTime:histogram:rangemax 1
scalar DiffservNetwork.router.ppp[0].queue flowQueueingTime:histogram:underflows 0
scalar DiffservNetwork.router.ppp[0].queue flowQueueingTime:histogram:overflows 0
scalar DiffservNetwork.router.ppp[0].queue incomingPacketLengths:histogram:count 1753
scalar DiffservNetwork.router.ppp[0].queue incomingPacketLengths:histogram:sumweights 1753
scalar DiffservNetwork.router.ppp[0].queue incomingPacketLengths:histogram:mean 2688.2373074729035
scalar DiffservNetwork.router.ppp[0].queue incomingPacketLengths:histogram:stddev 2189.6516305768191
scalar DiffservNetwork.router.ppp[0].queue incomingPacketLengths:histogram:min 544
scalar DiffservNetwork.router.ppp[0].queue incomingPacketLengths:histogram:max 8224
scalar DiffservNetwork.router.ppp[0].queue incomingPacketLengths:histogram:numbins 51
scalar DiffservNetwork.router.ppp[0].queue incomingPacketLengths:histogram:rangemin 0
scalar DiffservNetwork.router.ppp[0].queue incomingPacketLengths:histogram:rangemax 10200
scalar DiffservNetwork.router.ppp[0].queue incomingPacketLengths:histogram:underflows 0
scalar DiffservNetwork.router.ppp[0].queue incomingPacketLengths:histogram:overflows 0
scalar DiffservNetwork.router.eth[0].queue queueingTime:histogram:count 2
scalar DiffservNetwork.router.eth[0].queue queueingTime:histogram:sumweights 2
scalar DiffservNetwork.router.eth[0].queue queueingTime:histogram:mean 0
scalar DiffservNetwork.router.eth[0].queue queueingTime:histogram:stddev 0
scalar DiffservNetwork.router.eth[0].queue queueingTime:histogram:min 0
scalar DiffservNetwork.router.eth[0].queue queueingTime:histogram:max 0
scalar DiffservNetwork.router.eth[0].queue queueingTime:histogram:numbins 50
scalar DiffservNetwork.router.eth[0].queue queueingTime:histogram:rangemin -0.5
scalar DiffservNetwork.router.eth[0].queue queueingTime:histogram:rangemax 0.5
scalar DiffservNetwork.router.eth[0].queue queueingTime:histogram:underflows 0
scalar DiffservNetwork.router.eth[0].queue queueingTime:histogram:overflows 0
scalar DiffservNetwork.router.eth[0].queue outgoingPacketLengths:histogram:count 2
scalar DiffservNetwork.router.eth[0].queue outgoingPacketLengths:histogram:sumweights 2
scalar DiffservNetwork.router.eth[0].queue outgoingPacketLengths:histogram:mean 368
scalar DiffservNetwork.router.eth[0].queue outgoingPacketLengths:histogram:stddev 0
scalar DiffservNetwork.router.eth[0].queue outgoingPacketLengths:histogram:min 368
scalar DiffservNetwork.router.eth[0].queue outgoingPacketLengths:histogram:max 368
scalar DiffservNetwork.router.eth[0].queue outgoingPacketLengths:histogram:numbins 2
scalar DiffservNetwork.router.eth[0].queue outgoingPacketLengths:histogram:rangemin 367
scalar DiffservNetwork.router.eth[0].queue outgoingPacketLengths:histogram:rangemax 369
scalar DiffservNetwork.router.eth[0].queue outgoingPacketLengths:histogram:underflows 0
scalar DiffservNetwork.router.eth[0].queue outgoingPacketLengths:histogram:overflows 0
scalar DiffservNetwork.router.eth[0].queue flowQueueingTime:histogram:count 0
scalar DiffservNetwork.router.eth[0].queue flowQueueingTime:histogram:sumweights 0
scalar DiffservNetwork.router.eth[0].queue flowQueueingTime:histogram:mean -nan
scalar DiffservNetwork.router.eth[0].queue flowQueueingTime:histogram:stddev nan
scalar DiffservNetwork.router.eth[0].queue flowQueueingTime:histogram:min nan
scalar DiffservNetwork.router.eth[0].queue flowQueueingTime:histogram:max nan
scalar DiffservNetwork.router.eth[0].queue flowQueueingTime:histogram:numbins 1
scalar DiffservNetwork.router.eth[0].queue flowQueueingTime:histogram:rangemin 0
scalar DiffservNetwork.router.eth[0].queue flowQueueingTime:histogram:rangemax 1
scalar DiffservNetwork.router.eth[0].queue flowQueueingTime:histogram:underflows 0
scalar DiffservNetwork.router.eth[0].queue flowQueueingTime:histogram:overflows 0
scalar DiffservNetwork.router.eth[0].queue incomingPacketLengths:histogram:count 2
scalar DiffservNetwork.router.eth[0].queue incomingPacketLengths:histogram:sumweights 2
scalar DiffservNetwork.router.eth[0].queue incomingPacketLengths:histogram:mean 368
scalar DiffservNetwork.router.eth[0].queue incomingPacketLengths:histogram:stddev 0
scalar DiffservNetwork.router.eth[0].queue incomingPacketLengths:histogram:min 368
scalar DiffservNetwork.router.eth[0].queue incomingPacketLengths:histogram:max 368
scalar DiffservNetwork.router.eth[0].queue incomingPacketLengths:histogram:numbins 2
scalar DiffservNetwork.router.eth[0].queue incomingPacketLengths:histogram:rangemin 367
scalar DiffservNetwork.router.eth[0].queue incomingPacketLengths:histogram:rangemax 369
scalar DiffservNetwork.router.eth[0].queue incomingPacketLengths:histogram:underflows 0
scalar DiffservNetwork.router.eth[0].queue incomingPacketLengths:histogram:overflows 0
scalar DiffservNetwork.router.eth[0].mac throughput:histogram:count 500
scalar DiffservNetwork.router.eth[0].mac throughput:histogram:sumweights 500
scalar DiffservNetwork.router.eth[0].mac throughput:histogram:mean 23.040000000000003
scalar DiffservNetwork.router.eth[0].mac throughput:histogram:stddev 515.19006201595164
scalar DiffservNetwork.router.eth[0].mac throughput:histogram:min 0
scalar DiffservNetwork.router.eth[0].mac throughput:histogram:max 11520.000000000002
scalar DiffservNetwork.router.eth[0].mac throughput:histogram:numbins 73
scalar DiffservNetwork.router.eth[0].mac throughput:histogram:rangemin 0
scalar DiffservNetwork.router.eth[0].mac throughput:histogram:rangemax 14600
scalar DiffservNetwork.router.eth[0].mac throughput:histogram:underflows 0
scalar DiffservNetwork.router.eth[0].mac throughput:histogram:overflows 0
scalar DiffservNetwork.router.eth[0].mac utilization:histogram:count 500
scalar DiffservNetwork.router.eth[0].mac utilization:histogram:sumweights 500
scalar DiffservNetwork.router.eth[0].mac utilization:histogram:mean 0.00023039999999999999
scalar DiffservNetwork.router.eth[0].mac utilization:histogram:stddev 0.0051519006201595149
scalar DiffservNetwork.router.eth[0].mac utilization:histogram:min 0
scalar DiffservNetwork.router.eth[0].mac utilization:histogram:max 0.1152
scalar DiffservNetwork.router.eth[0].mac utilization:histogram:numbins 72
scalar DiffservNetwork.router.eth[0].mac utilization:histogram:rangemin 0
scalar DiffservNetwork.router.eth[0].mac utilization:histogram:rangemax 0.14400000000000002
scalar DiffservNetwork.router.eth[0].mac utilization:histogram:underflows 0
scalar DiffservNetwork.router.eth[0].mac utilization:histogram:overflows 0
scalar DiffservNetwork.voipPhone1.eth[0].queue queueingTime:histogram:count 1517
scalar DiffservNetwork.voipPhone1.eth[0].queue queueingTime:histogram:sumweights 1517
scalar DiffservNetwork.voipPhone1.eth[0].queue queueingTime:histogram:mean 0
scalar DiffservNetwork.voipPhone1.eth[0].queue queueingTime:histogram:stddev 0
scalar DiffservNetwork.voipPhone1.eth[0].queue queueingTime:histogram:min 0
scalar DiffservNetwork.voipPhone1.eth[0].queue queueingTime:histogram:max 0
scalar DiffservNetwork.voipPhone1.eth[0].queue queueingTime:histogram:numbins 50
scalar DiffservNetwork.voipPhone1.eth[0].queue queueingTime:histogram:rangemin -0.5
scalar DiffservNetwork.voipPhone1.eth[0].queue queueingTime:histogram:rangemax 0.5
scalar DiffservNetwork.voipPhone1.eth[0].queue queueingTime:histogram:underflows 0
scalar DiffservNetwork.voipPhone1.eth[0].queue queueingTime:histogram:overflows 0
scalar DiffservNetwork.voipPhone1.eth[0].queue outgoingPacketLengths:histogram:count 1517
scalar DiffservNetwork.voipPhone1.eth[0].queue outgoingPacketLengths:histogram:sumweights 1517
scalar DiffservNetwork.voipPhone1.eth[0].queue outgoingPacketLengths:histogram:mean 1965.7640079103494
scalar DiffservNetwork.voipPhone1.eth[0].queue outgoingPacketLengths:histogram:stddev 54.196940753995023
scalar DiffservNetwork.voipPhone1.eth[0].queue outgoingPacketLengths:histogram:min 368
scalar DiffservNetwork.voipPhone1.eth[0].queue outgoingPacketLengths:histogram:max 1968
scalar DiffservNetwork.voipPhone1.eth[0].queue outgoingPacketLengths:histogram:numbins 48
scalar DiffservNetwork.voipPhone1.eth[0].queue outgoingPacketLengths:histogram:rangemin 0
scalar DiffservNetwork.voipPhone1.eth[0].queue outgoingPacketLengths:histogram:rangemax 2400
scalar DiffservNetwork.voipPhone1.eth[0].queue outgoingPacketLengths:histogram:underflows 0
scalar DiffservNetwork.voipPhone1.eth[0].queue outgoingPacketLengths:histogram:overflows 0
scalar DiffservNetwork.voipPhone1.eth[0].queue flowQueueingTime:histogram:count 0
scalar DiffservNetwork.voipPhone1.eth[0].queue flowQueueingTime:histogram:sumweights 0
[...]
scalar DiffservNetwork.internet.ppp[2].queue incomingDataRate:vector:min 0
scalar DiffservNetwork.internet.ppp[2].queue incomingDataRate:vector:max 127680.00000000001
scalar DiffservNetwork.internet.ppp[2].queue incomingDataRate:vector:starttime 0.10000000000000001
scalar DiffservNetwork.internet.ppp[2].queue incomingDataRate:vector:endtime 50
scalar DiffservNetwork.internet.ppp[2].queue outgoingPacketLengths:vector:count 1516
scalar DiffservNetwork.internet.ppp[2].queue outgoingPacketLengths:vector:sum 2763392
scalar DiffservNetwork.internet.ppp[2].queue outgoingPacketLengths:vector:sumweights 1516
scalar DiffservNetwork.internet.ppp[2].queue outgoingPacketLengths:vector:mean 1822.8179419525065
scalar DiffservNetwork.internet.ppp[2].queue outgoingPacketLengths:vector:stddev 35.39895909396985
scalar DiffservNetwork.internet.ppp[2].queue outgoingPacketLengths:vector:min 544
scalar DiffservNetwork.internet.ppp[2].queue outgoingPacketLengths:vector:max 1824
scalar DiffservNetwork.internet.ppp[2].queue outgoingPacketLengths:vector:starttime 0.027173217691000003
scalar DiffservNetwork.internet.ppp[2].queue outgoingPacketLengths:vector:endtime 31.729712678217005
scalar DiffservNetwork.internet.ppp[2].queue outgoingDataRate:vector:count 500
scalar DiffservNetwork.internet.ppp[2].queue outgoingDataRate:vector:sum 27633920
scalar DiffservNetwork.internet.ppp[2].queue outgoingDataRate:vector:sumweights 500
scalar DiffservNetwork.internet.ppp[2].queue outgoingDataRate:vector:mean 55267.839999999997
scalar DiffservNetwork.internet.ppp[2].queue outgoingDataRate:vector:stddev 49202.065283794567
scalar DiffservNetwork.internet.ppp[2].queue outgoingDataRate:vector:min 0
scalar DiffservNetwork.internet.ppp[2].queue outgoingDataRate:vector:max 127680.00000000001
scalar DiffservNetwork.internet.ppp[2].queue outgoingDataRate:vector:starttime 0.10000000000000001
scalar DiffservNetwork.internet.ppp[2].queue outgoingDataRate:vector:endtime 50
scalar DiffservNetwork.internet.ppp[2].queue droppedPacketLengthsQueueOverflow:vector:count 0
scalar DiffservNetwork.internet.ppp[2].queue droppedPacketLengthsQueueOverflow:vector:sum 0
scalar DiffservNetwork.internet.ppp[2].queue droppedPacketLengthsQueueOverflow:vector:sumweights 0
scalar DiffservNetwork.internet.ppp[2].queue droppedPacketLengthsQueueOverflow:vector:mean -nan
scalar DiffservNetwork.internet.ppp[2].queue droppedPacketLengthsQueueOverflow:vector:stddev nan
scalar DiffservNetwork.internet.ppp[2].queue droppedPacketLengthsQueueOverflow:vector:min inf
scalar DiffservNetwork.internet.ppp[2].queue droppedPacketLengthsQueueOverflow:vector:max -inf
scalar DiffservNetwork.internet.ppp[2].queue droppedPacketLengthsQueueOverflow:vector:starttime nan
scalar DiffservNetwork.internet.ppp[2].queue droppedPacketLengthsQueueOverflow:vector:endtime nan
scalar DiffservNetwork.internet.ppp[2].queue flowQueueingTime:vector:count 0
scalar DiffservNetwork.internet.ppp[2].queue flowQueueingTime:vector:sum 0
scalar DiffservNetwork.internet.ppp[2].queue flowQueueingTime:vector:sumweights 0
scalar DiffservNetwork.internet.ppp[2].queue flowQueueingTime:vector:mean -nan
scalar DiffservNetwork.internet.ppp[2].queue flowQueueingTime:vector:stddev nan
scalar DiffservNetwork.internet.ppp[2].queue flowQueueingTime:vector:min inf
scalar DiffservNetwork.internet.ppp[2].queue flowQueueingTime:vector:max -inf
scalar DiffservNetwork.internet.ppp[2].queue flowQueueingTime:vector:starttime nan
scalar DiffservNetwork.internet.ppp[2].queue flowQueueingTime:vector:endtime nan
scalar DiffservNetwork.internet.ppp[2].queue flowIncomingDataRate:vector:count 500
scalar DiffservNetwork.internet.ppp[2].queue flowIncomingDataRate:vector:sum 0
scalar DiffservNetwork.internet.ppp[2].queue flowIncomingDataRate:vector:sumweights 500
scalar DiffservNetwork.internet.ppp[2].queue flowIncomingDataRate:vector:mean 0
scalar DiffservNetwork.internet.ppp[2].queue flowIncomingDataRate:vector:stddev 0
scalar DiffservNetwork.internet.ppp[2].queue flowIncomingDataRate:vector:min 0
scalar DiffservNetwork.internet.ppp[2].queue flowIncomingDataRate:vector:max 0
scalar DiffservNetwork.internet.ppp[2].queue flowIncomingDataRate:vector:starttime 0.10000000000000001
scalar DiffservNetwork.internet.ppp[2].queue flowIncomingDataRate:vector:endtime 50
scalar DiffservNetwork.internet.ppp[2].queue flowOutgoingDataRate:vector:count 500
scalar DiffservNetwork.internet.ppp[2].queue flowOutgoingDataRate:vector:sum 0
scalar DiffservNetwork.internet.ppp[2].queue flowOutgoingDataRate:vector:sumweights 500
scalar DiffservNetwork.internet.ppp[2].queue flowOutgoingDataRate:vector:mean 0
scalar DiffservNetwork.internet.ppp[2].queue flowOutgoingDataRate:vector:stddev 0
scalar DiffservNetwork.internet.ppp[2].queue flowOutgoingDataRate:vector:min 0
scalar DiffservNetwork.internet.ppp[2].queue flowOutgoingDataRate:vector:max 0
scalar DiffservNetwork.internet.ppp[2].queue flowOutgoingDataRate:vector:starttime 0.10000000000000001
scalar DiffservNetwork.internet.ppp[2].queue flowOutgoingDataRate:vector:endtime 50
scalar DiffservNetwork.internet.ppp[2].ppp transmissionState:vector:count 3033
scalar DiffservNetwork.internet.ppp[2].ppp transmissionState:vector:sum 1516
scalar DiffservNetwork.internet.ppp[2].ppp transmissionState:vector:sumweights 3033
scalar DiffservNetwork.internet.ppp[2].ppp transmissionState:vector:mean 0.4998351467194197
scalar DiffservNetwork.internet.ppp[2].ppp transmissionState:vector:stddev 0.50008241984725887
scalar DiffservNetwork.internet.ppp[2].ppp transmissionState:vector:min 0
scalar DiffservNetwork.internet.ppp[2].ppp transmissionState:vector:max 1
scalar DiffservNetwork.internet.ppp[2].ppp transmissionState:vector:starttime 0
scalar DiffservNetwork.internet.ppp[2].ppp transmissionState:vector:endtime 31.740400178217005
scalar DiffservNetwork.internet.ppp[2].ppp txPk:vector(packetBytes):count 1516
scalar DiffservNetwork.internet.ppp[2].ppp txPk:vector(packetBytes):sum 356036
scalar DiffservNetwork.internet.ppp[2].ppp txPk:vector(packetBytes):sumweights 1516
scalar DiffservNetwork.internet.ppp[2].ppp txPk:vector(packetBytes):mean 234.85224274406332
scalar DiffservNetwork.internet.ppp[2].ppp txPk:vector(packetBytes):stddev 4.4248698867462313
scalar DiffservNetwork.internet.ppp[2].ppp txPk:vector(packetBytes):min 75
scalar DiffservNetwork.internet.ppp[2].ppp txPk:vector(packetBytes):max 235
scalar DiffservNetwork.internet.ppp[2].ppp txPk:vector(packetBytes):starttime 0.027173217691000003
scalar DiffservNetwork.internet.ppp[2].ppp txPk:vector(packetBytes):endtime 31.729712678217005
scalar DiffservNetwork.internet.ppp[2].ppp rxPkOk:vector(packetBytes):count 0
scalar DiffservNetwork.internet.ppp[2].ppp rxPkOk:vector(packetBytes):sum 0
scalar DiffservNetwork.internet.ppp[2].ppp rxPkOk:vector(packetBytes):sumweights 0
scalar DiffservNetwork.internet.ppp[2].ppp rxPkOk:vector(packetBytes):mean -nan
scalar DiffservNetwork.internet.ppp[2].ppp rxPkOk:vector(packetBytes):stddev nan
scalar DiffservNetwork.internet.ppp[2].ppp rxPkOk:vector(packetBytes):min inf
scalar DiffservNetwork.internet.ppp[2].ppp rxPkOk:vector(packetBytes):max -inf
scalar DiffservNetwork.internet.ppp[2].ppp rxPkOk:vector(packetBytes):starttime nan
scalar DiffservNetwork.internet.ppp[2].ppp rxPkOk:vector(packetBytes):endtime nan
scalar DiffservNetwork.internet.ppp[2].ppp packetDropIncorrectlyReceived:vector(packetBytes):count 0
scalar DiffservNetwork.internet.ppp[2].ppp packetDropIncorrectlyReceived:vector(packetBytes):sum 0
scalar DiffservNetwork.internet.ppp[2].ppp packetDropIncorrectlyReceived:vector(packetBytes):sumweights 0
scalar DiffservNetwork.internet.ppp[2].ppp packetDropIncorrectlyReceived:vector(packetBytes):mean -nan
scalar DiffservNetwork.internet.ppp[2].ppp packetDropIncorrectlyReceived:vector(packetBytes):stddev nan
scalar DiffservNetwork.internet.ppp[2].ppp packetDropIncorrectlyReceived:vector(packetBytes):min inf
scalar DiffservNetwork.internet.ppp[2].ppp packetDropIncorrectlyReceived:vector(packetBytes):max -inf
scalar DiffservNetwork.internet.ppp[2].ppp packetDropIncorrectlyReceived:vector(packetBytes):starttime nan
scalar DiffservNetwork.internet.ppp[2].ppp packetDropIncorrectlyReceived:vector(packetBytes):endtime nan
scalar DiffservNetwork.internet.ppp[2].ppp packetDropInterfaceDown:vector(packetBytes):count 0
scalar DiffservNetwork.internet.ppp[2].ppp packetDropInterfaceDown:vector(packetBytes):sum 0
scalar DiffservNetwork.internet.ppp[2].ppp packetDropInterfaceDown:vector(packetBytes):sumweights 0
scalar DiffservNetwork.internet.ppp[2].ppp packetDropInterfaceDown:vector(packetBytes):mean -nan
scalar DiffservNetwork.internet.ppp[2].ppp packetDropInterfaceDown:vector(packetBytes):stddev nan
scalar DiffservNetwork.internet.ppp[2].ppp packetDropInterfaceDown:vector(packetBytes):min inf
scalar DiffservNetwork.internet.ppp[2].ppp packetDropInterfaceDown:vector(packetBytes):max -inf
scalar DiffservNetwork.internet.ppp[2].ppp packetDropInterfaceDown:vector(packetBytes):starttime nan
scalar DiffservNetwork.internet.ppp[2].ppp packetDropInterfaceDown:vector(packetBytes):endtime nan
scalar DiffservNetwork.internet.ppp[2].ppp rcvdPkFromHl:vector(packetBytes):count 1516
scalar DiffservNetwork.internet.ppp[2].ppp rcvdPkFromHl:vector(packetBytes):sum 345424
scalar DiffservNetwork.internet.ppp[2].ppp rcvdPkFromHl:vector(packetBytes):sumweights 1516
scalar DiffservNetwork.internet.ppp[2].ppp rcvdPkFromHl:vector(packetBytes):mean 227.85224274406332
scalar DiffservNetwork.internet.ppp[2].ppp rcvdPkFromHl:vector(packetBytes):stddev 4.4248698867462313
scalar DiffservNetwork.internet.ppp[2].ppp rcvdPkFromHl:vector(packetBytes):min 68
scalar DiffservNetwork.internet.ppp[2].ppp rcvdPkFromHl:vector(packetBytes):max 228
scalar DiffservNetwork.internet.ppp[2].ppp rcvdPkFromHl:vector(packetBytes):starttime 0.027173217691000003
scalar DiffservNetwork.internet.ppp[2].ppp rcvdPkFromHl:vector(packetBytes):endtime 31.729712678217005
scalar DiffservNetwork.internet.ppp[2].ppp passedUpPk:vector(packetBytes):count 0
scalar DiffservNetwork.internet.ppp[2].ppp passedUpPk:vector(packetBytes):sum 0
scalar DiffservNetwork.internet.ppp[2].ppp passedUpPk:vector(packetBytes):sumweights 0
scalar DiffservNetwork.internet.ppp[2].ppp passedUpPk:vector(packetBytes):mean -nan
scalar DiffservNetwork.internet.ppp[2].ppp passedUpPk:vector(packetBytes):stddev nan
scalar DiffservNetwork.internet.ppp[2].ppp passedUpPk:vector(packetBytes):min inf
scalar DiffservNetwork.internet.ppp[2].ppp passedUpPk:vector(packetBytes):max -inf
scalar DiffservNetwork.internet.ppp[2].ppp passedUpPk:vector(packetBytes):starttime nan
scalar DiffservNetwork.internet.ppp[2].ppp passedUpPk:vector(packetBytes):endtime nan
scalar DiffservNetwork.internet.ppp[2] packetDropInterfaceDown:vector(packetBytes):count 0
scalar DiffservNetwork.internet.ppp[2] packetDropInterfaceDown:vector(packetBytes):sum 0
scalar DiffservNetwork.internet.ppp[2] packetDropInterfaceDown:vector(packetBytes):sumweights 0
scalar DiffservNetwork.internet.ppp[2] packetDropInterfaceDown:vector(packetBytes):mean -nan
scalar DiffservNetwork.internet.ppp[2] packetDropInterfaceDown:vector(packetBytes):stddev nan
scalar DiffservNetwork.internet.ppp[2] packetDropInterfaceDown:vector(packetBytes):min inf
scalar DiffservNetwork.internet.ppp[2] packetDropInterfaceDown:vector(packetBytes):max -inf
scalar DiffservNetwork.internet.ppp[2] packetDropInterfaceDown:vector(packetBytes):starttime nan
scalar DiffservNetwork.internet.ppp[2] packetDropInterfaceDown:vector(packetBytes):endtime nan
scalar DiffservNetwork.internet.ppp[2] packetDropNoCarrier:vector(packetBytes):count 0
scalar DiffservNetwork.internet.ppp[2] packetDropNoCarrier:vector(packetBytes):sum 0
scalar DiffservNetwork.internet.ppp[2] packetDropNoCarrier:vector(packetBytes):sumweights 0
scalar DiffservNetwork.internet.ppp[2] packetDropNoCarrier:vector(packetBytes):mean -nan
scalar DiffservNetwork.internet.ppp[2] packetDropNoCarrier:vector(packetBytes):stddev nan
scalar DiffservNetwork.internet.ppp[2] packetDropNoCarrier:vector(packetBytes):min inf
scalar DiffservNetwork.internet.ppp[2] packetDropNoCarrier:vector(packetBytes):max -inf
scalar DiffservNetwork.internet.ppp[2] packetDropNoCarrier:vector(packetBytes):starttime nan
scalar DiffservNetwork.internet.ppp[2] packetDropNoCarrier:vector(packetBytes):endtime nan
scalar DiffservNetwork.internet.ipv4.ip packetDropAddressResolutionFailed:vector(packetBytes):count 0
scalar DiffservNetwork.internet.ipv4.ip packetDropAddressResolutionFailed:vector(packetBytes):sum 0
scalar DiffservNetwork.internet.ipv4.ip packetDropAddressResolutionFailed:vector(packetBytes):sumweights 0
scalar DiffservNetwork.internet.ipv4.ip packetDropAddressResolutionFailed:vector(packetBytes):mean -nan
scalar DiffservNetwork.internet.ipv4.ip packetDropAddressResolutionFailed:vector(packetBytes):stddev nan
scalar DiffservNetwork.internet.ipv4.ip packetDropAddressResolutionFailed:vector(packetBytes):min inf
scalar DiffservNetwork.internet.ipv4.ip packetDropAddressResolutionFailed:vector(packetBytes):max -inf
scalar DiffservNetwork.internet.ipv4.ip packetDropAddressResolutionFailed:vector(packetBytes):starttime nan
scalar DiffservNetwork.internet.ipv4.ip packetDropAddressResolutionFailed:vector(packetBytes):endtime nan
scalar DiffservNetwork.internet.ipv4.ip packetDropHopLimitReached:vector(packetBytes):count 0
scalar DiffservNetwork.internet.ipv4.ip packetDropHopLimitReached:vector(packetBytes):sum 0
scalar DiffservNetwork.internet.ipv4.ip packetDropHopLimitReached:vector(packetBytes):sumweights 0
scalar DiffservNetwork.internet.ipv4.ip packetDropHopLimitReached:vector(packetBytes):mean -nan
scalar DiffservNetwork.internet.ipv4.ip packetDropHopLimitReached:vector(packetBytes):stddev nan
scalar DiffservNetwork.internet.ipv4.ip packetDropHopLimitReached:vector(packetBytes):min inf
scalar DiffservNetwork.internet.ipv4.ip packetDropHopLimitReached:vector(packetBytes):max -inf
scalar DiffservNetwork.internet.ipv4.ip packetDropHopLimitReached:vector(packetBytes):starttime nan
scalar DiffservNetwork.internet.ipv4.ip packetDropHopLimitReached:vector(packetBytes):endtime nan
scalar DiffservNetwork.internet.ipv4.ip packetDropForwardingDisabled:vector(packetBytes):count 0
scalar DiffservNetwork.internet.ipv4.ip packetDropForwardingDisabled:vector(packetBytes):sum 0
scalar DiffservNetwork.internet.ipv4.ip packetDropForwardingDisabled:vector(packetBytes):sumweights 0
scalar DiffservNetwork.internet.ipv4.ip packetDropForwardingDisabled:vector(packetBytes):mean -nan
scalar DiffservNetwork.internet.ipv4.ip packetDropForwardingDisabled:vector(packetBytes):stddev nan
scalar DiffservNetwork.internet.ipv4.ip packetDropForwardingDisabled:vector(packetBytes):min inf
scalar DiffservNetwork.internet.ipv4.ip packetDropForwardingDisabled:vector(packetBytes):max -inf
scalar DiffservNetwork.internet.ipv4.ip packetDropForwardingDisabled:vector(packetBytes):starttime nan
scalar DiffservNetwork.internet.ipv4.ip packetDropForwardingDisabled:vector(packetBytes):endtime nan
scalar DiffservNetwork.internet.ipv4.ip packetDropLifetimeExpired:vector(packetBytes):count 0
scalar DiffservNetwork.internet.ipv4.ip packetDropLifetimeExpired:vector(packetBytes):sum 0
scalar DiffservNetwork.internet.ipv4.ip packetDropLifetimeExpired:vector(packetBytes):sumweights 0
scalar DiffservNetwork.internet.ipv4.ip packetDropLifetimeExpired:vector(packetBytes):mean -nan
scalar DiffservNetwork.internet.ipv4.ip packetDropLifetimeExpired:vector(packetBytes):stddev nan
scalar DiffservNetwork.internet.ipv4.ip packetDropLifetimeExpired:vector(packetBytes):min inf
scalar DiffservNetwork.internet.ipv4.ip packetDropLifetimeExpired:vector(packetBytes):max -inf
scalar DiffservNetwork.internet.ipv4.ip packetDropLifetimeExpired:vector(packetBytes):starttime nan
scalar DiffservNetwork.internet.ipv4.ip packetDropLifetimeExpired:vector(packetBytes):endtime nan
scalar DiffservNetwork.internet.ipv4.ip packetDropNoInterfaceFound:vector(packetBytes):count 0
scalar DiffservNetwork.internet.ipv4.ip packetDropNoInterfaceFound:vector(packetBytes):sum 0
scalar DiffservNetwork.internet.ipv4.ip packetDropNoInterfaceFound:vector(packetBytes):sumweights 0
scalar DiffservNetwork.internet.ipv4.ip packetDropNoInterfaceFound:vector(packetBytes):mean -nan
scalar DiffservNetwork.internet.ipv4.ip packetDropNoInterfaceFound:vector(packetBytes):stddev nan
scalar DiffservNetwork.internet.ipv4.ip packetDropNoInterfaceFound:vector(packetBytes):min inf
scalar DiffservNetwork.internet.ipv4.ip packetDropNoInterfaceFound:vector(packetBytes):max -inf
scalar DiffservNetwork.internet.ipv4.ip packetDropNoInterfaceFound:vector(packetBytes):starttime nan
scalar DiffservNetwork.internet.ipv4.ip packetDropNoInterfaceFound:vector(packetBytes):endtime nan
scalar DiffservNetwork.internet.ipv4.ip packetDropNoRouteFound:vector(packetBytes):count 0
scalar DiffservNetwork.internet.ipv4.ip packetDropNoRouteFound:vector(packetBytes):sum 0
scalar DiffservNetwork.internet.ipv4.ip packetDropNoRouteFound:vector(packetBytes):sumweights 0
scalar DiffservNetwork.internet.ipv4.ip packetDropNoRouteFound:vector(packetBytes):mean -nan
scalar DiffservNetwork.internet.ipv4.ip packetDropNoRouteFound:vector(packetBytes):stddev nan
scalar DiffservNetwork.internet.ipv4.ip packetDropNoRouteFound:vector(packetBytes):min inf
scalar DiffservNetwork.internet.ipv4.ip packetDropNoRouteFound:vector(packetBytes):max -inf
scalar DiffservNetwork.internet.ipv4.ip packetDropNoRouteFound:vector(packetBytes):starttime nan
scalar DiffservNetwork.internet.ipv4.ip packetDropNoRouteFound:vector(packetBytes):endtime nan
scalar DiffservNetwork.internet.ipv4.ip packetDropUndefined:vector(packetBytes):count 0
scalar DiffservNetwork.internet.ipv4.ip packetDropUndefined:vector(packetBytes):sum 0
scalar DiffservNetwork.internet.ipv4.ip packetDropUndefined:vector(packetBytes):sumweights 0
scalar DiffservNetwork.internet.ipv4.ip packetDropUndefined:vector(packetBytes):mean -nan
scalar DiffservNetwork.internet.ipv4.ip packetDropUndefined:vector(packetBytes):stddev nan
scalar DiffservNetwork.internet.ipv4.ip packetDropUndefined:vector(packetBytes):min inf
scalar DiffservNetwork.internet.ipv4.ip packetDropUndefined:vector(packetBytes):max -inf
scalar DiffservNetwork.internet.ipv4.ip packetDropUndefined:vector(packetBytes):starttime nan
scalar DiffservNetwork.internet.ipv4.ip packetDropUndefined:vector(packetBytes):endtime nan
scalar DiffservNetwork.internet.ipv4.arp arpRequestSent:vector(packetBytes):count 0
scalar DiffservNetwork.internet.ipv4.arp arpRequestSent:vector(packetBytes):sum 0
scalar DiffservNetwork.internet.ipv4.arp arpRequestSent:vector(packetBytes):sumweights 0
scalar DiffservNetwork.internet.ipv4.arp arpRequestSent:vector(packetBytes):mean -nan
scalar DiffservNetwork.internet.ipv4.arp arpRequestSent:vector(packetBytes):stddev nan
scalar DiffservNetwork.internet.ipv4.arp arpRequestSent:vector(packetBytes):min inf
scalar DiffservNetwork.internet.ipv4.arp arpRequestSent:vector(packetBytes):max -inf
scalar DiffservNetwork.internet.ipv4.arp arpRequestSent:vector(packetBytes):starttime nan
scalar DiffservNetwork.internet.ipv4.arp arpRequestSent:vector(packetBytes):endtime nan
scalar DiffservNetwork.internet.ipv4.arp arpReplySent:vector(packetBytes):count 0
scalar DiffservNetwork.internet.ipv4.arp arpReplySent:vector(packetBytes):sum 0
scalar DiffservNetwork.internet.ipv4.arp arpReplySent:vector(packetBytes):sumweights 0
scalar DiffservNetwork.internet.ipv4.arp arpReplySent:vector(packetBytes):mean -nan
scalar DiffservNetwork.internet.ipv4.arp arpReplySent:vector(packetBytes):stddev nan
scalar DiffservNetwork.internet.ipv4.arp arpReplySent:vector(packetBytes):min inf
scalar DiffservNetwork.internet.ipv4.arp arpReplySent:vector(packetBytes):max -inf
scalar DiffservNetwork.internet.ipv4.arp arpReplySent:vector(packetBytes):starttime nan
scalar DiffservNetwork.internet.ipv4.arp arpReplySent:vector(packetBytes):endtime nan

