version 3
run LayeredCompliant80211Ping-0-20260206-21:59:45-3562696
attr configname LayeredCompliant80211Ping
attr datetime 20260206-21:59:45
attr datetimef 20260206-215945
attr experiment LayeredCompliant80211Ping
attr inifile omnetpp.ini
attr iterationvars ""
attr iterationvarsd ""
attr iterationvarsf ""
attr measurement ""
attr network Layered80211
attr processid 3562696
attr repetition 0
attr replication #0
attr resultdir results
attr runnumber 0
attr seedset 0
config **.param-recording false
config image-path /home/attila/projects/inet/images
config output-scalar-file results/omnetpp.ini-LayeredCompliant80211Ping-#0.sca
config output-scalar-precision 17
config output-vector-file results/omnetpp.ini-LayeredCompliant80211Ping-#0.vec
config output-vector-precision 17
config record-eventlog false
config sim-time-limit 5s
config description "host1 pinging host0"
config *.numHosts 2
config **.levelOfDetail "\"symbol\""
config **.isCompliant true
config **.wlan[*].radio.transmitter.typename Ieee80211LayeredOfdmTransmitter
config **.wlan[*].radio.receiver.errorModel.typename Ieee80211OfdmErrorModel
config **.wlan[*].radio.receiver.typename Ieee80211LayeredOfdmReceiver
config network Layered80211
config num-rngs 3
config sim-time-limit 5s
config **.vector-recording false
config **.checksumMode "\"computed\""
config **.fcsMode "\"computed\""
config **.mobility.rng-0 1
config **.wlan[*].mac.rng-0 2
config **.constraintAreaMinX 0m
config **.constraintAreaMinY 0m
config **.constraintAreaMinZ 0m
config **.constraintAreaMaxX 600m
config **.constraintAreaMaxY 400m
config **.constraintAreaMaxZ 0m
config **.arp.typename GlobalArp
config **.host*.mobility.typename StationaryMobility
config **.host*.mobility.initFromDisplayString false
config **.host[0].mobility.initialX 10m
config **.host[0].mobility.initialY 20m
config **.host[1].mobility.initialX 50m
config **.host[1].mobility.initialY 20m
config **.host[*].mobility.initialZ 0m
config *.host[0].numApps 0
config *.host[*].numApps 1
config *.host[*].app[0].typename PingApp
config *.host[*].app[*].destAddr "\"host[0]\""
config **.app[*].printPing true
config **.wlan[*].mac.dcf.channelAccess.cwMin 7
config **.wlan[*].radio.transmitter.power 0.1mW
config **.wlan[*].radio.receiver.sensitivity -100dBm
config **.wlan[*].radio.receiver.snirThreshold 4dB
config **.wlan[*].typename Ieee80211Interface
config **.wlan[*].radio.typename Ieee80211OfdmRadio
config **.wlan[*].radio.centerFrequency 2.4GHz
config **.wlan[*].radio.receiver.energyDetection -90dBm
config **.wlan[*].radio.receiver.channelSpacing 20MHz
config **.wlan[*].radio.bandwidth 20MHz
config **.wlan[*].mac.*.rateSelection.dataFrameBitrate 36Mbps
config **.wlan[*].mac.*.rateSelection.multicastFrameBitrate 24Mbps
config **.wlan[*].mac.*.rateSelection.responseAckFrameBitrate 6Mbps
config **.wlan[*].mac.*.rateSelection.mgmtFrameBitrate 6Mbps
config **.wlan[*].mac.*.rateSelection.controlFrameBitrate 6Mbps

scalar Layered80211.radioMedium.propagation "Arrival computation count" 20
scalar Layered80211.radioMedium "transmission count" 20
scalar Layered80211.radioMedium "signal send count" 20
scalar Layered80211.radioMedium "reception computation count" 20
scalar Layered80211.radioMedium "interference computation count" 84
scalar Layered80211.radioMedium "reception decision computation count" 20
scalar Layered80211.radioMedium "listening decision computation count" 44
scalar Layered80211.radioMedium "reception cache hit" 85.714285714285708
scalar Layered80211.radioMedium "interference cache hit" 66.666666666666671
scalar Layered80211.radioMedium "noise cache hit" 0
scalar Layered80211.radioMedium "snir cache hit" 50
scalar Layered80211.radioMedium "reception decision cache hit" 50
scalar Layered80211.radioMedium "reception result cache hit" 0
scalar Layered80211.host[0].lo[0].lo rcvdPkFromHl:count 0
scalar Layered80211.host[0].lo[0].lo rcvdPkFromHl:sum(packetBytes) 0
scalar Layered80211.host[0].lo[0].lo passedUpPk:count 0
scalar Layered80211.host[0].lo[0].lo passedUpPk:sum(packetBytes) 0
scalar Layered80211.host[0].lo[0] packetDropInterfaceDown:count 0
scalar Layered80211.host[0].lo[0] packetDropInterfaceDown:sum(packetBytes) 0
scalar Layered80211.host[0].lo[0] packetDropNoCarrier:count 0
scalar Layered80211.host[0].lo[0] packetDropNoCarrier:sum(packetBytes) 0
scalar Layered80211.host[0].wlan[0].mac.dcf.channelAccess.pendingQueue queueLength:last 0
scalar Layered80211.host[0].wlan[0].mac.dcf.channelAccess.pendingQueue queueLength:max 1
scalar Layered80211.host[0].wlan[0].mac.dcf.channelAccess.pendingQueue queueLength:timeavg 0.000156
scalar Layered80211.host[0].wlan[0].mac.dcf.channelAccess.pendingQueue queueBitLength:last 0
scalar Layered80211.host[0].wlan[0].mac.dcf.channelAccess.pendingQueue queueBitLength:max 960
scalar Layered80211.host[0].wlan[0].mac.dcf.channelAccess.pendingQueue queueBitLength:timeavg 0.14976
scalar Layered80211.host[0].wlan[0].mac.dcf.channelAccess.pendingQueue outgoingPackets:count 5
scalar Layered80211.host[0].wlan[0].mac.dcf.channelAccess.pendingQueue outgoingPacketLengths:sum 4800
scalar Layered80211.host[0].wlan[0].mac.dcf.channelAccess.pendingQueue incomingPackets:count 5
scalar Layered80211.host[0].wlan[0].mac.dcf.channelAccess.pendingQueue incomingPacketLengths:sum 4800
scalar Layered80211.host[0].wlan[0].mac.dcf.channelAccess.pendingQueue droppedPacketsQueueOverflow:count 0
scalar Layered80211.host[0].wlan[0].mac.dcf.channelAccess.pendingQueue droppedPacketLengthsQueueOverflow:sum 0
scalar Layered80211.host[0].wlan[0].mac.dcf.channelAccess.inProgressFrames queueLength:max 1
scalar Layered80211.host[0].wlan[0].mac.dcf.channelAccess.inProgressFrames queueLength:timeavg 0.00010226685199999998
scalar Layered80211.host[0].wlan[0].mac.dcf.channelAccess.contention channelAccessGranted:count 5
scalar Layered80211.host[0].wlan[0].mac.dcf.channelAccess.contention stateChanged:count 82
scalar Layered80211.host[0].wlan[0].mac.dcf.channelAccess channelOwnershipChanged:count 10
scalar Layered80211.host[0].wlan[0].mac.dcf.originatorMacDataService packetAggregated:count 0
scalar Layered80211.host[0].wlan[0].mac.dcf.originatorMacDataService packetFragmented:count 0
scalar Layered80211.host[0].wlan[0].mac.dcf.recipientMacDataService packetDeaggregated:count 0
scalar Layered80211.host[0].wlan[0].mac.dcf.recipientMacDataService packetDefragmented:count 5
scalar Layered80211.host[0].wlan[0].mac.dcf.recipientMacDataService packetDropDuplicateDetected:count 0
scalar Layered80211.host[0].wlan[0].mac.dcf.recipientMacDataService packetDropDuplicateDetected:sum(packetBytes) 0
scalar Layered80211.host[0].wlan[0].mac.dcf.recoveryProcedure retryLimitReached:count 0
scalar Layered80211.host[0].wlan[0].mac.dcf frameSequenceFinished:count 5
scalar Layered80211.host[0].wlan[0].mac.dcf packetReceivedFromPeer:count 10
scalar Layered80211.host[0].wlan[0].mac.dcf packetReceivedFromPeer:sum(packetBytes) 670
scalar Layered80211.host[0].wlan[0].mac.dcf packetReceivedFromPeerUnicast:count 10
scalar Layered80211.host[0].wlan[0].mac.dcf packetReceivedFromPeerUnicast:sum(packetBytes) 670
scalar Layered80211.host[0].wlan[0].mac.dcf packetReceivedFromPeerMulticast:count 0
scalar Layered80211.host[0].wlan[0].mac.dcf packetReceivedFromPeerMulticast:sum(packetBytes) 0
scalar Layered80211.host[0].wlan[0].mac.dcf packetReceivedFromPeerBroadcast:count 0
scalar Layered80211.host[0].wlan[0].mac.dcf packetReceivedFromPeerBroadcast:sum(packetBytes) 0
scalar Layered80211.host[0].wlan[0].mac.dcf packetReceivedFromPeerWithRetry:count 0
scalar Layered80211.host[0].wlan[0].mac.dcf packetReceivedFromPeerWithRetry:sum(packetBytes) 0
scalar Layered80211.host[0].wlan[0].mac.dcf packetReceivedFromPeerWithoutRetry:count 10
scalar Layered80211.host[0].wlan[0].mac.dcf packetReceivedFromPeerWithoutRetry:sum(packetBytes) 670
scalar Layered80211.host[0].wlan[0].mac.dcf packetSentToPeer:count 10
scalar Layered80211.host[0].wlan[0].mac.dcf packetSentToPeer:sum(packetBytes) 670
scalar Layered80211.host[0].wlan[0].mac.dcf packetSentToPeerUnicast:count 10
scalar Layered80211.host[0].wlan[0].mac.dcf packetSentToPeerUnicast:sum(packetBytes) 670
scalar Layered80211.host[0].wlan[0].mac.dcf packetSentToPeerMulticast:count 0
scalar Layered80211.host[0].wlan[0].mac.dcf packetSentToPeerMulticast:sum(packetBytes) 0
scalar Layered80211.host[0].wlan[0].mac.dcf packetSentToPeerBroadcast:count 0
scalar Layered80211.host[0].wlan[0].mac.dcf packetSentToPeerBroadcast:sum(packetBytes) 0
scalar Layered80211.host[0].wlan[0].mac.dcf packetSentToPeerWithRetry:count 0
scalar Layered80211.host[0].wlan[0].mac.dcf packetSentToPeerWithRetry:sum(packetBytes) 0
scalar Layered80211.host[0].wlan[0].mac.dcf packetSentToPeerWithoutRetry:count 10
scalar Layered80211.host[0].wlan[0].mac.dcf packetSentToPeerWithoutRetry:sum(packetBytes) 670
scalar Layered80211.host[0].wlan[0].mac.dcf packetDrop:count 0
scalar Layered80211.host[0].wlan[0].mac.dcf packetDrop:sum(packetBytes) 0
scalar Layered80211.host[0].wlan[0].mac.dcf packetDropNotAddressedToUs:count 0
scalar Layered80211.host[0].wlan[0].mac.dcf packetDropNotAddressedToUs:sum(packetBytes) 0
scalar Layered80211.host[0].wlan[0].mac.dcf packetDropQueueOverflow:count 0
scalar Layered80211.host[0].wlan[0].mac.dcf packetDropQueueOverflow:sum(packetBytes) 0
scalar Layered80211.host[0].wlan[0].mac.dcf packetDropRetryLimitReached:count 0
scalar Layered80211.host[0].wlan[0].mac.dcf packetDropRetryLimitReached:sum(packetBytes) 0
scalar Layered80211.host[0].wlan[0].mac.dcf linkBroken:count 0
scalar Layered80211.host[0].wlan[0].mac packetReceivedFromLower:count 10
scalar Layered80211.host[0].wlan[0].mac packetReceivedFromLower:sum(packetBytes) 670
scalar Layered80211.host[0].wlan[0].mac packetSentToLower:count 10
scalar Layered80211.host[0].wlan[0].mac packetSentToLower:sum(packetBytes) 670
scalar Layered80211.host[0].wlan[0].mac packetReceivedFromUpper:count 5
scalar Layered80211.host[0].wlan[0].mac packetReceivedFromUpper:sum(packetBytes) 460
scalar Layered80211.host[0].wlan[0].mac packetSentToUpper:count 5
scalar Layered80211.host[0].wlan[0].mac packetSentToUpper:sum(packetBytes) 460
scalar Layered80211.host[0].wlan[0].mac packetDrop:count 0
scalar Layered80211.host[0].wlan[0].mac packetDrop:sum(packetBytes) 0
scalar Layered80211.host[0].wlan[0].mac packetDropIncorrectlyReceived:count 0
scalar Layered80211.host[0].wlan[0].mac packetDropIncorrectlyReceived:sum(packetBytes) 0
scalar Layered80211.host[0].wlan[0].mac packetDropNotAddressedToUs:count 0
scalar Layered80211.host[0].wlan[0].mac packetDropNotAddressedToUs:sum(packetBytes) 0
scalar Layered80211.host[0].wlan[0].mac packetDropQueueOverflow:count 0
scalar Layered80211.host[0].wlan[0].mac packetDropQueueOverflow:sum(packetBytes) 0
scalar Layered80211.host[0].wlan[0].mac packetDropRetryLimitReached:count 0
scalar Layered80211.host[0].wlan[0].mac packetDropRetryLimitReached:sum(packetBytes) 0
scalar Layered80211.host[0].wlan[0].mac packetDropDuplicateDetected:count 0
scalar Layered80211.host[0].wlan[0].mac packetDropDuplicateDetected:sum(packetBytes) 0
scalar Layered80211.host[0].wlan[0].mac packetDropOther:count 0
scalar Layered80211.host[0].wlan[0].mac packetDropOther:sum(packetBytes) 0
scalar Layered80211.host[0].wlan[0].mac linkBroken:count 0
scalar Layered80211.host[0].wlan[0].radio radioMode:count 23
scalar Layered80211.host[0].wlan[0].radio receptionState:count 41
scalar Layered80211.host[0].wlan[0].radio transmissionState:count 40
scalar Layered80211.host[0].wlan[0] packetDropInterfaceDown:count 0
scalar Layered80211.host[0].wlan[0] packetDropInterfaceDown:sum(packetBytes) 0
scalar Layered80211.host[0].wlan[0] packetDropNoCarrier:count 0
scalar Layered80211.host[0].wlan[0] packetDropNoCarrier:sum(packetBytes) 0
scalar Layered80211.host[0].ipv4.ip packetDropAddressResolutionFailed:count 0
scalar Layered80211.host[0].ipv4.ip packetDropAddressResolutionFailed:sum(packetBytes) 0
scalar Layered80211.host[0].ipv4.ip packetDropHopLimitReached:count 0
scalar Layered80211.host[0].ipv4.ip packetDropHopLimitReached:sum(packetBytes) 0
scalar Layered80211.host[0].ipv4.ip packetDropForwardingDisabled:count 0
scalar Layered80211.host[0].ipv4.ip packetDropForwardingDisabled:sum(packetBytes) 0
scalar Layered80211.host[0].ipv4.ip packetDropLifetimeExpired:count 0
scalar Layered80211.host[0].ipv4.ip packetDropLifetimeExpired:sum(packetBytes) 0
scalar Layered80211.host[0].ipv4.ip packetDropNoInterfaceFound:count 0
scalar Layered80211.host[0].ipv4.ip packetDropNoInterfaceFound:sum(packetBytes) 0
scalar Layered80211.host[0].ipv4.ip packetDropNoRouteFound:count 0
scalar Layered80211.host[0].ipv4.ip packetDropNoRouteFound:sum(packetBytes) 0
scalar Layered80211.host[0].ipv4.ip packetDropUndefined:count 0
scalar Layered80211.host[0].ipv4.ip packetDropUndefined:sum(packetBytes) 0
scalar Layered80211.host[0].udp packetReceived:count 0
scalar Layered80211.host[0].udp packetReceived:sum(packetBytes) 0
scalar Layered80211.host[0].udp packetSent:count 0
scalar Layered80211.host[0].udp packetSent:sum(packetBytes) 0
scalar Layered80211.host[0].udp passedUpPk:count 0
scalar Layered80211.host[0].udp droppedPkWrongPort:count 0
scalar Layered80211.host[0].udp droppedPkBadChecksum:count 0
scalar Layered80211.host[1].lo[0].lo rcvdPkFromHl:count 0
scalar Layered80211.host[1].lo[0].lo rcvdPkFromHl:sum(packetBytes) 0
scalar Layered80211.host[1].lo[0].lo passedUpPk:count 0
scalar Layered80211.host[1].lo[0].lo passedUpPk:sum(packetBytes) 0
scalar Layered80211.host[1].lo[0] packetDropInterfaceDown:count 0
scalar Layered80211.host[1].lo[0] packetDropInterfaceDown:sum(packetBytes) 0
scalar Layered80211.host[1].lo[0] packetDropNoCarrier:count 0
scalar Layered80211.host[1].lo[0] packetDropNoCarrier:sum(packetBytes) 0
scalar Layered80211.host[1].wlan[0].mac.dcf.channelAccess.pendingQueue queueLength:last 0
scalar Layered80211.host[1].wlan[0].mac.dcf.channelAccess.pendingQueue queueLength:max 1
scalar Layered80211.host[1].wlan[0].mac.dcf.channelAccess.pendingQueue queueLength:timeavg 0
scalar Layered80211.host[1].wlan[0].mac.dcf.channelAccess.pendingQueue queueBitLength:last 0
scalar Layered80211.host[1].wlan[0].mac.dcf.channelAccess.pendingQueue queueBitLength:max 960
scalar Layered80211.host[1].wlan[0].mac.dcf.channelAccess.pendingQueue queueBitLength:timeavg 0
scalar Layered80211.host[1].wlan[0].mac.dcf.channelAccess.pendingQueue outgoingPackets:count 5
scalar Layered80211.host[1].wlan[0].mac.dcf.channelAccess.pendingQueue outgoingPacketLengths:sum 4800
scalar Layered80211.host[1].wlan[0].mac.dcf.channelAccess.pendingQueue incomingPackets:count 5
scalar Layered80211.host[1].wlan[0].mac.dcf.channelAccess.pendingQueue incomingPacketLengths:sum 4800
scalar Layered80211.host[1].wlan[0].mac.dcf.channelAccess.pendingQueue droppedPacketsQueueOverflow:count 0
scalar Layered80211.host[1].wlan[0].mac.dcf.channelAccess.pendingQueue droppedPacketLengthsQueueOverflow:sum 0
scalar Layered80211.host[1].wlan[0].mac.dcf.channelAccess.inProgressFrames queueLength:max 1
scalar Layered80211.host[1].wlan[0].mac.dcf.channelAccess.inProgressFrames queueLength:timeavg 0.00010226685199999998
scalar Layered80211.host[1].wlan[0].mac.dcf.channelAccess.contention channelAccessGranted:count 5
scalar Layered80211.host[1].wlan[0].mac.dcf.channelAccess.contention stateChanged:count 82
scalar Layered80211.host[1].wlan[0].mac.dcf.channelAccess channelOwnershipChanged:count 10
scalar Layered80211.host[1].wlan[0].mac.dcf.originatorMacDataService packetAggregated:count 0
scalar Layered80211.host[1].wlan[0].mac.dcf.originatorMacDataService packetFragmented:count 0
scalar Layered80211.host[1].wlan[0].mac.dcf.recipientMacDataService packetDeaggregated:count 0
scalar Layered80211.host[1].wlan[0].mac.dcf.recipientMacDataService packetDefragmented:count 5
scalar Layered80211.host[1].wlan[0].mac.dcf.recipientMacDataService packetDropDuplicateDetected:count 0
scalar Layered80211.host[1].wlan[0].mac.dcf.recipientMacDataService packetDropDuplicateDetected:sum(packetBytes) 0
scalar Layered80211.host[1].wlan[0].mac.dcf.recoveryProcedure retryLimitReached:count 0
scalar Layered80211.host[1].wlan[0].mac.dcf frameSequenceFinished:count 5
scalar Layered80211.host[1].wlan[0].mac.dcf packetReceivedFromPeer:count 10
scalar Layered80211.host[1].wlan[0].mac.dcf packetReceivedFromPeer:sum(packetBytes) 670
scalar Layered80211.host[1].wlan[0].mac.dcf packetReceivedFromPeerUnicast:count 10
scalar Layered80211.host[1].wlan[0].mac.dcf packetReceivedFromPeerUnicast:sum(packetBytes) 670
scalar Layered80211.host[1].wlan[0].mac.dcf packetReceivedFromPeerMulticast:count 0
scalar Layered80211.host[1].wlan[0].mac.dcf packetReceivedFromPeerMulticast:sum(packetBytes) 0
scalar Layered80211.host[1].wlan[0].mac.dcf packetReceivedFromPeerBroadcast:count 0
scalar Layered80211.host[1].wlan[0].mac.dcf packetReceivedFromPeerBroadcast:sum(packetBytes) 0
scalar Layered80211.host[1].wlan[0].mac.dcf packetReceivedFromPeerWithRetry:count 0
scalar Layered80211.host[1].wlan[0].mac.dcf packetReceivedFromPeerWithRetry:sum(packetBytes) 0
scalar Layered80211.host[1].wlan[0].mac.dcf packetReceivedFromPeerWithoutRetry:count 10
scalar Layered80211.host[1].wlan[0].mac.dcf packetReceivedFromPeerWithoutRetry:sum(packetBytes) 670
scalar Layered80211.host[1].wlan[0].mac.dcf packetSentToPeer:count 10
scalar Layered80211.host[1].wlan[0].mac.dcf packetSentToPeer:sum(packetBytes) 670
scalar Layered80211.host[1].wlan[0].mac.dcf packetSentToPeerUnicast:count 10
scalar Layered80211.host[1].wlan[0].mac.dcf packetSentToPeerUnicast:sum(packetBytes) 670
scalar Layered80211.host[1].wlan[0].mac.dcf packetSentToPeerMulticast:count 0
scalar Layered80211.host[1].wlan[0].mac.dcf packetSentToPeerMulticast:sum(packetBytes) 0
scalar Layered80211.host[1].wlan[0].mac.dcf packetSentToPeerBroadcast:count 0
scalar Layered80211.host[1].wlan[0].mac.dcf packetSentToPeerBroadcast:sum(packetBytes) 0
scalar Layered80211.host[1].wlan[0].mac.dcf packetSentToPeerWithRetry:count 0
scalar Layered80211.host[1].wlan[0].mac.dcf packetSentToPeerWithRetry:sum(packetBytes) 0
scalar Layered80211.host[1].wlan[0].mac.dcf packetSentToPeerWithoutRetry:count 10
scalar Layered80211.host[1].wlan[0].mac.dcf packetSentToPeerWithoutRetry:sum(packetBytes) 670
scalar Layered80211.host[1].wlan[0].mac.dcf packetDrop:count 0
scalar Layered80211.host[1].wlan[0].mac.dcf packetDrop:sum(packetBytes) 0
scalar Layered80211.host[1].wlan[0].mac.dcf packetDropNotAddressedToUs:count 0
scalar Layered80211.host[1].wlan[0].mac.dcf packetDropNotAddressedToUs:sum(packetBytes) 0
scalar Layered80211.host[1].wlan[0].mac.dcf packetDropQueueOverflow:count 0
scalar Layered80211.host[1].wlan[0].mac.dcf packetDropQueueOverflow:sum(packetBytes) 0
scalar Layered80211.host[1].wlan[0].mac.dcf packetDropRetryLimitReached:count 0
scalar Layered80211.host[1].wlan[0].mac.dcf packetDropRetryLimitReached:sum(packetBytes) 0
scalar Layered80211.host[1].wlan[0].mac.dcf linkBroken:count 0
scalar Layered80211.host[1].wlan[0].mac packetReceivedFromLower:count 10
scalar Layered80211.host[1].wlan[0].mac packetReceivedFromLower:sum(packetBytes) 670
scalar Layered80211.host[1].wlan[0].mac packetSentToLower:count 10
scalar Layered80211.host[1].wlan[0].mac packetSentToLower:sum(packetBytes) 670
scalar Layered80211.host[1].wlan[0].mac packetReceivedFromUpper:count 5
scalar Layered80211.host[1].wlan[0].mac packetReceivedFromUpper:sum(packetBytes) 460
scalar Layered80211.host[1].wlan[0].mac packetSentToUpper:count 5
scalar Layered80211.host[1].wlan[0].mac packetSentToUpper:sum(packetBytes) 460
scalar Layered80211.host[1].wlan[0].mac packetDrop:count 0
scalar Layered80211.host[1].wlan[0].mac packetDrop:sum(packetBytes) 0
scalar Layered80211.host[1].wlan[0].mac packetDropIncorrectlyReceived:count 0
scalar Layered80211.host[1].wlan[0].mac packetDropIncorrectlyReceived:sum(packetBytes) 0
scalar Layered80211.host[1].wlan[0].mac packetDropNotAddressedToUs:count 0
scalar Layered80211.host[1].wlan[0].mac packetDropNotAddressedToUs:sum(packetBytes) 0
scalar Layered80211.host[1].wlan[0].mac packetDropQueueOverflow:count 0
scalar Layered80211.host[1].wlan[0].mac packetDropQueueOverflow:sum(packetBytes) 0
scalar Layered80211.host[1].wlan[0].mac packetDropRetryLimitReached:count 0
scalar Layered80211.host[1].wlan[0].mac packetDropRetryLimitReached:sum(packetBytes) 0
scalar Layered80211.host[1].wlan[0].mac packetDropDuplicateDetected:count 0
scalar Layered80211.host[1].wlan[0].mac packetDropDuplicateDetected:sum(packetBytes) 0
scalar Layered80211.host[1].wlan[0].mac packetDropOther:count 0
scalar Layered80211.host[1].wlan[0].mac packetDropOther:sum(packetBytes) 0
scalar Layered80211.host[1].wlan[0].mac linkBroken:count 0
scalar Layered80211.host[1].wlan[0].radio radioMode:count 23
scalar Layered80211.host[1].wlan[0].radio receptionState:count 41
scalar Layered80211.host[1].wlan[0].radio transmissionState:count 40
scalar Layered80211.host[1].wlan[0] packetDropInterfaceDown:count 0
scalar Layered80211.host[1].wlan[0] packetDropInterfaceDown:sum(packetBytes) 0
scalar Layered80211.host[1].wlan[0] packetDropNoCarrier:count 0
scalar Layered80211.host[1].wlan[0] packetDropNoCarrier:sum(packetBytes) 0
scalar Layered80211.host[1].ipv4.ip packetDropAddressResolutionFailed:count 0
scalar Layered80211.host[1].ipv4.ip packetDropAddressResolutionFailed:sum(packetBytes) 0
scalar Layered80211.host[1].ipv4.ip packetDropHopLimitReached:count 0
scalar Layered80211.host[1].ipv4.ip packetDropHopLimitReached:sum(packetBytes) 0
scalar Layered80211.host[1].ipv4.ip packetDropForwardingDisabled:count 0
scalar Layered80211.host[1].ipv4.ip packetDropForwardingDisabled:sum(packetBytes) 0
scalar Layered80211.host[1].ipv4.ip packetDropLifetimeExpired:count 0
scalar Layered80211.host[1].ipv4.ip packetDropLifetimeExpired:sum(packetBytes) 0
scalar Layered80211.host[1].ipv4.ip packetDropNoInterfaceFound:count 0
scalar Layered80211.host[1].ipv4.ip packetDropNoInterfaceFound:sum(packetBytes) 0
scalar Layered80211.host[1].ipv4.ip packetDropNoRouteFound:count 0
scalar Layered80211.host[1].ipv4.ip packetDropNoRouteFound:sum(packetBytes) 0
scalar Layered80211.host[1].ipv4.ip packetDropUndefined:count 0
scalar Layered80211.host[1].ipv4.ip packetDropUndefined:sum(packetBytes) 0
scalar Layered80211.host[1].udp packetReceived:count 0
scalar Layered80211.host[1].udp packetReceived:sum(packetBytes) 0
scalar Layered80211.host[1].udp packetSent:count 0
scalar Layered80211.host[1].udp packetSent:sum(packetBytes) 0
scalar Layered80211.host[1].udp passedUpPk:count 0
scalar Layered80211.host[1].udp droppedPkWrongPort:count 0
scalar Layered80211.host[1].udp droppedPkBadChecksum:count 0
scalar Layered80211.host[1].app[0] "Pings sent" 5
scalar Layered80211.host[1].app[0] "ping loss rate (%)" 0
scalar Layered80211.host[1].app[0] "ping out-of-order rate (%)" 0
scalar Layered80211.host[1].app[0] pingRxSeq:count 5
scalar Layered80211.host[1].app[0] pingTxSeq:count 5
scalar Layered80211.host[1].app[0] numOutOfOrderArrivals:last nan
scalar Layered80211.host[1].app[0] numLost:last nan
scalar Layered80211.host[0].wlan[0].mac.dcf.channelAccess.pendingQueue queueingTime:histogram:count 5
scalar Layered80211.host[0].wlan[0].mac.dcf.channelAccess.pendingQueue queueingTime:histogram:sumweights 5
scalar Layered80211.host[0].wlan[0].mac.dcf.channelAccess.pendingQueue queueingTime:histogram:mean 0.000156
scalar Layered80211.host[0].wlan[0].mac.dcf.channelAccess.pendingQueue queueingTime:histogram:stddev 2.280350850198292e-05
scalar Layered80211.host[0].wlan[0].mac.dcf.channelAccess.pendingQueue queueingTime:histogram:min 0.00012400000000000001
scalar Layered80211.host[0].wlan[0].mac.dcf.channelAccess.pendingQueue queueingTime:histogram:max 0.000184
scalar Layered80211.host[0].wlan[0].mac.dcf.channelAccess.pendingQueue queueingTime:histogram:numbins 91
scalar Layered80211.host[0].wlan[0].mac.dcf.channelAccess.pendingQueue queueingTime:histogram:rangemin 0.00010800000000000002
scalar Layered80211.host[0].wlan[0].mac.dcf.channelAccess.pendingQueue queueingTime:histogram:rangemax 0.00019900000000000004
scalar Layered80211.host[0].wlan[0].mac.dcf.channelAccess.pendingQueue queueingTime:histogram:underflows 0
scalar Layered80211.host[0].wlan[0].mac.dcf.channelAccess.pendingQueue queueingTime:histogram:overflows 0
scalar Layered80211.host[0].wlan[0].mac.dcf.channelAccess.pendingQueue outgoingPacketLengths:histogram:count 5
scalar Layered80211.host[0].wlan[0].mac.dcf.channelAccess.pendingQueue outgoingPacketLengths:histogram:sumweights 5
scalar Layered80211.host[0].wlan[0].mac.dcf.channelAccess.pendingQueue outgoingPacketLengths:histogram:mean 960
scalar Layered80211.host[0].wlan[0].mac.dcf.channelAccess.pendingQueue outgoingPacketLengths:histogram:stddev 0
scalar Layered80211.host[0].wlan[0].mac.dcf.channelAccess.pendingQueue outgoingPacketLengths:histogram:min 960
scalar Layered80211.host[0].wlan[0].mac.dcf.channelAccess.pendingQueue outgoingPacketLengths:histogram:max 960
scalar Layered80211.host[0].wlan[0].mac.dcf.channelAccess.pendingQueue outgoingPacketLengths:histogram:numbins 2
scalar Layered80211.host[0].wlan[0].mac.dcf.channelAccess.pendingQueue outgoingPacketLengths:histogram:rangemin 959
scalar Layered80211.host[0].wlan[0].mac.dcf.channelAccess.pendingQueue outgoingPacketLengths:histogram:rangemax 961
scalar Layered80211.host[0].wlan[0].mac.dcf.channelAccess.pendingQueue outgoingPacketLengths:histogram:underflows 0
scalar Layered80211.host[0].wlan[0].mac.dcf.channelAccess.pendingQueue outgoingPacketLengths:histogram:overflows 0
scalar Layered80211.host[0].wlan[0].mac.dcf.channelAccess.pendingQueue flowQueueingTime:histogram:count 0
scalar Layered80211.host[0].wlan[0].mac.dcf.channelAccess.pendingQueue flowQueueingTime:histogram:sumweights 0
scalar Layered80211.host[0].wlan[0].mac.dcf.channelAccess.pendingQueue flowQueueingTime:histogram:mean -nan
scalar Layered80211.host[0].wlan[0].mac.dcf.channelAccess.pendingQueue flowQueueingTime:histogram:stddev nan
scalar Layered80211.host[0].wlan[0].mac.dcf.channelAccess.pendingQueue flowQueueingTime:histogram:min nan
scalar Layered80211.host[0].wlan[0].mac.dcf.channelAccess.pendingQueue flowQueueingTime:histogram:max nan
scalar Layered80211.host[0].wlan[0].mac.dcf.channelAccess.pendingQueue flowQueueingTime:histogram:numbins 1
scalar Layered80211.host[0].wlan[0].mac.dcf.channelAccess.pendingQueue flowQueueingTime:histogram:rangemin 0
scalar Layered80211.host[0].wlan[0].mac.dcf.channelAccess.pendingQueue flowQueueingTime:histogram:rangemax 1
scalar Layered80211.host[0].wlan[0].mac.dcf.channelAccess.pendingQueue flowQueueingTime:histogram:underflows 0
scalar Layered80211.host[0].wlan[0].mac.dcf.channelAccess.pendingQueue flowQueueingTime:histogram:overflows 0
scalar Layered80211.host[0].wlan[0].mac.dcf.channelAccess.pendingQueue incomingPacketLengths:histogram:count 5
scalar Layered80211.host[0].wlan[0].mac.dcf.channelAccess.pendingQueue incomingPacketLengths:histogram:sumweights 5
scalar Layered80211.host[0].wlan[0].mac.dcf.channelAccess.pendingQueue incomingPacketLengths:histogram:mean 960
scalar Layered80211.host[0].wlan[0].mac.dcf.channelAccess.pendingQueue incomingPacketLengths:histogram:stddev 0
scalar Layered80211.host[0].wlan[0].mac.dcf.channelAccess.pendingQueue incomingPacketLengths:histogram:min 960
scalar Layered80211.host[0].wlan[0].mac.dcf.channelAccess.pendingQueue incomingPacketLengths:histogram:max 960
scalar Layered80211.host[0].wlan[0].mac.dcf.channelAccess.pendingQueue incomingPacketLengths:histogram:numbins 2
scalar Layered80211.host[0].wlan[0].mac.dcf.channelAccess.pendingQueue incomingPacketLengths:histogram:rangemin 959
scalar Layered80211.host[0].wlan[0].mac.dcf.channelAccess.pendingQueue incomingPacketLengths:histogram:rangemax 961
scalar Layered80211.host[0].wlan[0].mac.dcf.channelAccess.pendingQueue incomingPacketLengths:histogram:underflows 0
scalar Layered80211.host[0].wlan[0].mac.dcf.channelAccess.pendingQueue incomingPacketLengths:histogram:overflows 0
scalar Layered80211.host[0].wlan[0].mac.dcf.channelAccess.inProgressFrames queueingTime:histogram:count 5
scalar Layered80211.host[0].wlan[0].mac.dcf.channelAccess.inProgressFrames queueingTime:histogram:sumweights 5
scalar Layered80211.host[0].wlan[0].mac.dcf.channelAccess.inProgressFrames queueingTime:histogram:mean 0.00010226685199999998
scalar Layered80211.host[0].wlan[0].mac.dcf.channelAccess.inProgressFrames queueingTime:histogram:stddev 0
scalar Layered80211.host[0].wlan[0].mac.dcf.channelAccess.inProgressFrames queueingTime:histogram:min 0.000102266852
scalar Layered80211.host[0].wlan[0].mac.dcf.channelAccess.inProgressFrames queueingTime:histogram:max 0.000102266852
scalar Layered80211.host[0].wlan[0].mac.dcf.channelAccess.inProgressFrames queueingTime:histogram:numbins 51
scalar Layered80211.host[0].wlan[0].mac.dcf.channelAccess.inProgressFrames queueingTime:histogram:rangemin 0
scalar Layered80211.host[0].wlan[0].mac.dcf.channelAccess.inProgressFrames queueingTime:histogram:rangemax 0.51000000000000001
scalar Layered80211.host[0].wlan[0].mac.dcf.channelAccess.inProgressFrames queueingTime:histogram:underflows 0
scalar Layered80211.host[0].wlan[0].mac.dcf.channelAccess.inProgressFrames queueingTime:histogram:overflows 0
scalar Layered80211.host[0].wlan[0].mac.dcf frameSequenceDuration:histogram:count 5
scalar Layered80211.host[0].wlan[0].mac.dcf frameSequenceDuration:histogram:sumweights 5
scalar Layered80211.host[0].wlan[0].mac.dcf frameSequenceDuration:histogram:mean 0.00010226685199999998
scalar Layered80211.host[0].wlan[0].mac.dcf frameSequenceDuration:histogram:stddev 0
scalar Layered80211.host[0].wlan[0].mac.dcf frameSequenceDuration:histogram:min 0.000102266852
scalar Layered80211.host[0].wlan[0].mac.dcf frameSequenceDuration:histogram:max 0.000102266852
scalar Layered80211.host[0].wlan[0].mac.dcf frameSequenceDuration:histogram:numbins 51
scalar Layered80211.host[0].wlan[0].mac.dcf frameSequenceDuration:histogram:rangemin 0
scalar Layered80211.host[0].wlan[0].mac.dcf frameSequenceDuration:histogram:rangemax 0.51000000000000001
scalar Layered80211.host[0].wlan[0].mac.dcf frameSequenceDuration:histogram:underflows 0
scalar Layered80211.host[0].wlan[0].mac.dcf frameSequenceDuration:histogram:overflows 0
scalar Layered80211.host[0].wlan[0].mac.dcf frameSequenceNumPackets:histogram:count 5
scalar Layered80211.host[0].wlan[0].mac.dcf frameSequenceNumPackets:histogram:sumweights 5
scalar Layered80211.host[0].wlan[0].mac.dcf frameSequenceNumPackets:histogram:mean 2
scalar Layered80211.host[0].wlan[0].mac.dcf frameSequenceNumPackets:histogram:stddev 0
scalar Layered80211.host[0].wlan[0].mac.dcf frameSequenceNumPackets:histogram:min 2
scalar Layered80211.host[0].wlan[0].mac.dcf frameSequenceNumPackets:histogram:max 2
scalar Layered80211.host[0].wlan[0].mac.dcf frameSequenceNumPackets:histogram:numbins 2
scalar Layered80211.host[0].wlan[0].mac.dcf frameSequenceNumPackets:histogram:rangemin 1
scalar Layered80211.host[0].wlan[0].mac.dcf frameSequenceNumPackets:histogram:rangemax 3
scalar Layered80211.host[0].wlan[0].mac.dcf frameSequenceNumPackets:histogram:underflows 0
scalar Layered80211.host[0].wlan[0].mac.dcf frameSequenceNumPackets:histogram:overflows 0
scalar Layered80211.host[0].wlan[0].radio minSnir:histogram:count 10
scalar Layered80211.host[0].wlan[0].radio minSnir:histogram:sumweights 10
scalar Layered80211.host[0].wlan[0].radio minSnir:histogram:mean 617.56007564490574
scalar Layered80211.host[0].wlan[0].radio minSnir:histogram:stddev 0
scalar Layered80211.host[0].wlan[0].radio minSnir:histogram:min 617.56007564490574
scalar Layered80211.host[0].wlan[0].radio minSnir:histogram:max 617.56007564490574
scalar Layered80211.host[0].wlan[0].radio minSnir:histogram:numbins 51
scalar Layered80211.host[0].wlan[0].radio minSnir:histogram:rangemin 617.06000000000006
scalar Layered80211.host[0].wlan[0].radio minSnir:histogram:rangemax 618.08000000000004
scalar Layered80211.host[0].wlan[0].radio minSnir:histogram:underflows 0
scalar Layered80211.host[0].wlan[0].radio minSnir:histogram:overflows 0
scalar Layered80211.host[0].wlan[0].radio packetErrorRate:histogram:count 0
scalar Layered80211.host[0].wlan[0].radio packetErrorRate:histogram:sumweights 0
scalar Layered80211.host[0].wlan[0].radio packetErrorRate:histogram:mean -nan
scalar Layered80211.host[0].wlan[0].radio packetErrorRate:histogram:stddev nan
scalar Layered80211.host[0].wlan[0].radio packetErrorRate:histogram:min nan
scalar Layered80211.host[0].wlan[0].radio packetErrorRate:histogram:max nan
scalar Layered80211.host[0].wlan[0].radio packetErrorRate:histogram:numbins 1
scalar Layered80211.host[0].wlan[0].radio packetErrorRate:histogram:rangemin 0
scalar Layered80211.host[0].wlan[0].radio packetErrorRate:histogram:rangemax 1
scalar Layered80211.host[0].wlan[0].radio packetErrorRate:histogram:underflows 0
scalar Layered80211.host[0].wlan[0].radio packetErrorRate:histogram:overflows 0
scalar Layered80211.host[0].wlan[0].radio bitErrorRate:histogram:count 0
scalar Layered80211.host[0].wlan[0].radio bitErrorRate:histogram:sumweights 0
scalar Layered80211.host[0].wlan[0].radio bitErrorRate:histogram:mean -nan
scalar Layered80211.host[0].wlan[0].radio bitErrorRate:histogram:stddev nan
scalar Layered80211.host[0].wlan[0].radio bitErrorRate:histogram:min nan
scalar Layered80211.host[0].wlan[0].radio bitErrorRate:histogram:max nan
scalar Layered80211.host[0].wlan[0].radio bitErrorRate:histogram:numbins 1
scalar Layered80211.host[0].wlan[0].radio bitErrorRate:histogram:rangemin 0
scalar Layered80211.host[0].wlan[0].radio bitErrorRate:histogram:rangemax 1
scalar Layered80211.host[0].wlan[0].radio bitErrorRate:histogram:underflows 0
scalar Layered80211.host[0].wlan[0].radio bitErrorRate:histogram:overflows 0
scalar Layered80211.host[0].wlan[0].radio symbolErrorRate:histogram:count 0
scalar Layered80211.host[0].wlan[0].radio symbolErrorRate:histogram:sumweights 0
scalar Layered80211.host[0].wlan[0].radio symbolErrorRate:histogram:mean -nan
scalar Layered80211.host[0].wlan[0].radio symbolErrorRate:histogram:stddev nan
scalar Layered80211.host[0].wlan[0].radio symbolErrorRate:histogram:min nan
scalar Layered80211.host[0].wlan[0].radio symbolErrorRate:histogram:max nan
scalar Layered80211.host[0].wlan[0].radio symbolErrorRate:histogram:numbins 1
scalar Layered80211.host[0].wlan[0].radio symbolErrorRate:histogram:rangemin 0
scalar Layered80211.host[0].wlan[0].radio symbolErrorRate:histogram:rangemax 1
scalar Layered80211.host[0].wlan[0].radio symbolErrorRate:histogram:underflows 0
scalar Layered80211.host[0].wlan[0].radio symbolErrorRate:histogram:overflows 0
scalar Layered80211.host[1].wlan[0].mac.dcf.channelAccess.pendingQueue queueingTime:histogram:count 5
scalar Layered80211.host[1].wlan[0].mac.dcf.channelAccess.pendingQueue queueingTime:histogram:sumweights 5
scalar Layered80211.host[1].wlan[0].mac.dcf.channelAccess.pendingQueue queueingTime:histogram:mean 0
scalar Layered80211.host[1].wlan[0].mac.dcf.channelAccess.pendingQueue queueingTime:histogram:stddev 0
scalar Layered80211.host[1].wlan[0].mac.dcf.channelAccess.pendingQueue queueingTime:histogram:min 0
scalar Layered80211.host[1].wlan[0].mac.dcf.channelAccess.pendingQueue queueingTime:histogram:max 0
scalar Layered80211.host[1].wlan[0].mac.dcf.channelAccess.pendingQueue queueingTime:histogram:numbins 50
scalar Layered80211.host[1].wlan[0].mac.dcf.channelAccess.pendingQueue queueingTime:histogram:rangemin -0.5
scalar Layered80211.host[1].wlan[0].mac.dcf.channelAccess.pendingQueue queueingTime:histogram:rangemax 0.5
scalar Layered80211.host[1].wlan[0].mac.dcf.channelAccess.pendingQueue queueingTime:histogram:underflows 0
scalar Layered80211.host[1].wlan[0].mac.dcf.channelAccess.pendingQueue queueingTime:histogram:overflows 0
scalar Layered80211.host[1].wlan[0].mac.dcf.channelAccess.pendingQueue outgoingPacketLengths:histogram:count 5
scalar Layered80211.host[1].wlan[0].mac.dcf.channelAccess.pendingQueue outgoingPacketLengths:histogram:sumweights 5
scalar Layered80211.host[1].wlan[0].mac.dcf.channelAccess.pendingQueue outgoingPacketLengths:histogram:mean 960
scalar Layered80211.host[1].wlan[0].mac.dcf.channelAccess.pendingQueue outgoingPacketLengths:histogram:stddev 0
scalar Layered80211.host[1].wlan[0].mac.dcf.channelAccess.pendingQueue outgoingPacketLengths:histogram:min 960
scalar Layered80211.host[1].wlan[0].mac.dcf.channelAccess.pendingQueue outgoingPacketLengths:histogram:max 960
scalar Layered80211.host[1].wlan[0].mac.dcf.channelAccess.pendingQueue outgoingPacketLengths:histogram:numbins 2
scalar Layered80211.host[1].wlan[0].mac.dcf.channelAccess.pendingQueue outgoingPacketLengths:histogram:rangemin 959
scalar Layered80211.host[1].wlan[0].mac.dcf.channelAccess.pendingQueue outgoingPacketLengths:histogram:rangemax 961
scalar Layered80211.host[1].wlan[0].mac.dcf.channelAccess.pendingQueue outgoingPacketLengths:histogram:underflows 0
scalar Layered80211.host[1].wlan[0].mac.dcf.channelAccess.pendingQueue outgoingPacketLengths:histogram:overflows 0
scalar Layered80211.host[1].wlan[0].mac.dcf.channelAccess.pendingQueue flowQueueingTime:histogram:count 0
scalar Layered80211.host[1].wlan[0].mac.dcf.channelAccess.pendingQueue flowQueueingTime:histogram:sumweights 0
scalar Layered80211.host[1].wlan[0].mac.dcf.channelAccess.pendingQueue flowQueueingTime:histogram:mean -nan
scalar Layered80211.host[1].wlan[0].mac.dcf.channelAccess.pendingQueue flowQueueingTime:histogram:stddev nan
scalar Layered80211.host[1].wlan[0].mac.dcf.channelAccess.pendingQueue flowQueueingTime:histogram:min nan
scalar Layered80211.host[1].wlan[0].mac.dcf.channelAccess.pendingQueue flowQueueingTime:histogram:max nan
scalar Layered80211.host[1].wlan[0].mac.dcf.channelAccess.pendingQueue flowQueueingTime:histogram:numbins 1
scalar Layered80211.host[1].wlan[0].mac.dcf.channelAccess.pendingQueue flowQueueingTime:histogram:rangemin 0
scalar Layered80211.host[1].wlan[0].mac.dcf.channelAccess.pendingQueue flowQueueingTime:histogram:rangemax 1
scalar Layered80211.host[1].wlan[0].mac.dcf.channelAccess.pendingQueue flowQueueingTime:histogram:underflows 0
scalar Layered80211.host[1].wlan[0].mac.dcf.channelAccess.pendingQueue flowQueueingTime:histogram:overflows 0
scalar Layered80211.host[1].wlan[0].mac.dcf.channelAccess.pendingQueue incomingPacketLengths:histogram:count 5
scalar Layered80211.host[1].wlan[0].mac.dcf.channelAccess.pendingQueue incomingPacketLengths:histogram:sumweights 5
scalar Layered80211.host[1].wlan[0].mac.dcf.channelAccess.pendingQueue incomingPacketLengths:histogram:mean 960
scalar Layered80211.host[1].wlan[0].mac.dcf.channelAccess.pendingQueue incomingPacketLengths:histogram:stddev 0
scalar Layered80211.host[1].wlan[0].mac.dcf.channelAccess.pendingQueue incomingPacketLengths:histogram:min 960
scalar Layered80211.host[1].wlan[0].mac.dcf.channelAccess.pendingQueue incomingPacketLengths:histogram:max 960
scalar Layered80211.host[1].wlan[0].mac.dcf.channelAccess.pendingQueue incomingPacketLengths:histogram:numbins 2
scalar Layered80211.host[1].wlan[0].mac.dcf.channelAccess.pendingQueue incomingPacketLengths:histogram:rangemin 959
scalar Layered80211.host[1].wlan[0].mac.dcf.channelAccess.pendingQueue incomingPacketLengths:histogram:rangemax 961
scalar Layered80211.host[1].wlan[0].mac.dcf.channelAccess.pendingQueue incomingPacketLengths:histogram:underflows 0
scalar Layered80211.host[1].wlan[0].mac.dcf.channelAccess.pendingQueue incomingPacketLengths:histogram:overflows 0
scalar Layered80211.host[1].wlan[0].mac.dcf.channelAccess.inProgressFrames queueingTime:histogram:count 5
scalar Layered80211.host[1].wlan[0].mac.dcf.channelAccess.inProgressFrames queueingTime:histogram:sumweights 5
scalar Layered80211.host[1].wlan[0].mac.dcf.channelAccess.inProgressFrames queueingTime:histogram:mean 0.00010226685199999998
scalar Layered80211.host[1].wlan[0].mac.dcf.channelAccess.inProgressFrames queueingTime:histogram:stddev 0
scalar Layered80211.host[1].wlan[0].mac.dcf.channelAccess.inProgressFrames queueingTime:histogram:min 0.000102266852
scalar Layered80211.host[1].wlan[0].mac.dcf.channelAccess.inProgressFrames queueingTime:histogram:max 0.000102266852
scalar Layered80211.host[1].wlan[0].mac.dcf.channelAccess.inProgressFrames queueingTime:histogram:numbins 51
scalar Layered80211.host[1].wlan[0].mac.dcf.channelAccess.inProgressFrames queueingTime:histogram:rangemin 0
scalar Layered80211.host[1].wlan[0].mac.dcf.channelAccess.inProgressFrames queueingTime:histogram:rangemax 0.51000000000000001
scalar Layered80211.host[1].wlan[0].mac.dcf.channelAccess.inProgressFrames queueingTime:histogram:underflows 0
scalar Layered80211.host[1].wlan[0].mac.dcf.channelAccess.inProgressFrames queueingTime:histogram:overflows 0
scalar Layered80211.host[1].wlan[0].mac.dcf frameSequenceDuration:histogram:count 5
scalar Layered80211.host[1].wlan[0].mac.dcf frameSequenceDuration:histogram:sumweights 5
scalar Layered80211.host[1].wlan[0].mac.dcf frameSequenceDuration:histogram:mean 0.00010226685199999998
scalar Layered80211.host[1].wlan[0].mac.dcf frameSequenceDuration:histogram:stddev 0
scalar Layered80211.host[1].wlan[0].mac.dcf frameSequenceDuration:histogram:min 0.000102266852
scalar Layered80211.host[1].wlan[0].mac.dcf frameSequenceDuration:histogram:max 0.000102266852
scalar Layered80211.host[1].wlan[0].mac.dcf frameSequenceDuration:histogram:numbins 51
scalar Layered80211.host[1].wlan[0].mac.dcf frameSequenceDuration:histogram:rangemin 0
scalar Layered80211.host[1].wlan[0].mac.dcf frameSequenceDuration:histogram:rangemax 0.51000000000000001
scalar Layered80211.host[1].wlan[0].mac.dcf frameSequenceDuration:histogram:underflows 0
scalar Layered80211.host[1].wlan[0].mac.dcf frameSequenceDuration:histogram:overflows 0
scalar Layered80211.host[1].wlan[0].mac.dcf frameSequenceNumPackets:histogram:count 5
scalar Layered80211.host[1].wlan[0].mac.dcf frameSequenceNumPackets:histogram:sumweights 5
scalar Layered80211.host[1].wlan[0].mac.dcf frameSequenceNumPackets:histogram:mean 2
scalar Layered80211.host[1].wlan[0].mac.dcf frameSequenceNumPackets:histogram:stddev 0
scalar Layered80211.host[1].wlan[0].mac.dcf frameSequenceNumPackets:histogram:min 2
scalar Layered80211.host[1].wlan[0].mac.dcf frameSequenceNumPackets:histogram:max 2
scalar Layered80211.host[1].wlan[0].mac.dcf frameSequenceNumPackets:histogram:numbins 2
scalar Layered80211.host[1].wlan[0].mac.dcf frameSequenceNumPackets:histogram:rangemin 1
scalar Layered80211.host[1].wlan[0].mac.dcf frameSequenceNumPackets:histogram:rangemax 3
scalar Layered80211.host[1].wlan[0].mac.dcf frameSequenceNumPackets:histogram:underflows 0
scalar Layered80211.host[1].wlan[0].mac.dcf frameSequenceNumPackets:histogram:overflows 0
scalar Layered80211.host[1].wlan[0].radio minSnir:histogram:count 10
scalar Layered80211.host[1].wlan[0].radio minSnir:histogram:sumweights 10
scalar Layered80211.host[1].wlan[0].radio minSnir:histogram:mean 617.56007564490574
scalar Layered80211.host[1].wlan[0].radio minSnir:histogram:stddev 0
scalar Layered80211.host[1].wlan[0].radio minSnir:histogram:min 617.56007564490574
scalar Layered80211.host[1].wlan[0].radio minSnir:histogram:max 617.56007564490574
scalar Layered80211.host[1].wlan[0].radio minSnir:histogram:numbins 51
scalar Layered80211.host[1].wlan[0].radio minSnir:histogram:rangemin 617.06000000000006
scalar Layered80211.host[1].wlan[0].radio minSnir:histogram:rangemax 618.08000000000004
scalar Layered80211.host[1].wlan[0].radio minSnir:histogram:underflows 0
scalar Layered80211.host[1].wlan[0].radio minSnir:histogram:overflows 0
scalar Layered80211.host[1].wlan[0].radio packetErrorRate:histogram:count 0
scalar Layered80211.host[1].wlan[0].radio packetErrorRate:histogram:sumweights 0
scalar Layered80211.host[1].wlan[0].radio packetErrorRate:histogram:mean -nan
scalar Layered80211.host[1].wlan[0].radio packetErrorRate:histogram:stddev nan
scalar Layered80211.host[1].wlan[0].radio packetErrorRate:histogram:min nan
scalar Layered80211.host[1].wlan[0].radio packetErrorRate:histogram:max nan
scalar Layered80211.host[1].wlan[0].radio packetErrorRate:histogram:numbins 1
scalar Layered80211.host[1].wlan[0].radio packetErrorRate:histogram:rangemin 0
scalar Layered80211.host[1].wlan[0].radio packetErrorRate:histogram:rangemax 1
scalar Layered80211.host[1].wlan[0].radio packetErrorRate:histogram:underflows 0
scalar Layered80211.host[1].wlan[0].radio packetErrorRate:histogram:overflows 0
scalar Layered80211.host[1].wlan[0].radio bitErrorRate:histogram:count 0
scalar Layered80211.host[1].wlan[0].radio bitErrorRate:histogram:sumweights 0
scalar Layered80211.host[1].wlan[0].radio bitErrorRate:histogram:mean -nan
scalar Layered80211.host[1].wlan[0].radio bitErrorRate:histogram:stddev nan
scalar Layered80211.host[1].wlan[0].radio bitErrorRate:histogram:min nan
scalar Layered80211.host[1].wlan[0].radio bitErrorRate:histogram:max nan
scalar Layered80211.host[1].wlan[0].radio bitErrorRate:histogram:numbins 1
scalar Layered80211.host[1].wlan[0].radio bitErrorRate:histogram:rangemin 0
scalar Layered80211.host[1].wlan[0].radio bitErrorRate:histogram:rangemax 1
scalar Layered80211.host[1].wlan[0].radio bitErrorRate:histogram:underflows 0
scalar Layered80211.host[1].wlan[0].radio bitErrorRate:histogram:overflows 0
scalar Layered80211.host[1].wlan[0].radio symbolErrorRate:histogram:count 0
scalar Layered80211.host[1].wlan[0].radio symbolErrorRate:histogram:sumweights 0
scalar Layered80211.host[1].wlan[0].radio symbolErrorRate:histogram:mean -nan
scalar Layered80211.host[1].wlan[0].radio symbolErrorRate:histogram:stddev nan
scalar Layered80211.host[1].wlan[0].radio symbolErrorRate:histogram:min nan
scalar Layered80211.host[1].wlan[0].radio symbolErrorRate:histogram:max nan
scalar Layered80211.host[1].wlan[0].radio symbolErrorRate:histogram:numbins 1
scalar Layered80211.host[1].wlan[0].radio symbolErrorRate:histogram:rangemin 0
scalar Layered80211.host[1].wlan[0].radio symbolErrorRate:histogram:rangemax 1
scalar Layered80211.host[1].wlan[0].radio symbolErrorRate:histogram:underflows 0
scalar Layered80211.host[1].wlan[0].radio symbolErrorRate:histogram:overflows 0
scalar Layered80211.host[1].app[0] rtt:histogram:count 5
scalar Layered80211.host[1].app[0] rtt:histogram:sumweights 5
scalar Layered80211.host[1].app[0] rtt:histogram:mean 0.00025226685200000002
scalar Layered80211.host[1].app[0] rtt:histogram:stddev 2.2803508501982338e-05
scalar Layered80211.host[1].app[0] rtt:histogram:min 0.00022026685200000001
scalar Layered80211.host[1].app[0] rtt:histogram:max 0.000280266852
scalar Layered80211.host[1].app[0] rtt:histogram:numbins 91
scalar Layered80211.host[1].app[0] rtt:histogram:rangemin 0.00020500000000000002
scalar Layered80211.host[1].app[0] rtt:histogram:rangemax 0.00029600000000000004
scalar Layered80211.host[1].app[0] rtt:histogram:underflows 0
scalar Layered80211.host[1].app[0] rtt:histogram:overflows 0
statistic Layered80211.host[0].wlan[0].mac.dcf.channelAccess.pendingQueue queueingTime:histogram
field count 5
field mean 0.000156
field stddev 2.280350850198292e-05
field min 0.00012400000000000001
field max 0.000184
field sum 0.00077999999999999999
field sqrsum 1.2376000000000002e-07
bin	-inf	0
bin	0.00010800000000000002	0
bin	0.00010900000000000002	0
bin	0.00011000000000000002	0
bin	0.00011100000000000003	0
bin	0.00011200000000000003	0
bin	0.00011300000000000002	0
bin	0.00011400000000000002	0
bin	0.00011500000000000003	0
bin	0.00011600000000000003	0
bin	0.00011700000000000002	0
bin	0.00011800000000000002	0
bin	0.00011900000000000002	0
bin	0.00012000000000000003	0
bin	0.00012100000000000003	0
bin	0.00012200000000000002	0
bin	0.00012300000000000004	1
bin	0.00012400000000000003	0
bin	0.00012500000000000003	0
bin	0.00012600000000000003	0
bin	0.00012700000000000002	0
bin	0.00012800000000000002	0
bin	0.00012900000000000002	0
bin	0.00013000000000000002	0
bin	0.00013100000000000004	0
bin	0.00013200000000000004	0
bin	0.00013300000000000003	0
bin	0.00013400000000000003	0
bin	0.00013500000000000003	0
bin	0.00013600000000000003	0
bin	0.00013700000000000002	0
bin	0.00013800000000000002	0
bin	0.00013900000000000002	0
bin	0.00014000000000000004	0
bin	0.00014100000000000001	0
bin	0.00014200000000000004	0
bin	0.00014300000000000003	1
bin	0.00014400000000000003	0
bin	0.00014500000000000003	0
bin	0.00014600000000000003	0
bin	0.00014700000000000002	0
bin	0.00014800000000000002	0
bin	0.00014900000000000004	0
bin	0.00015000000000000001	0
bin	0.00015100000000000004	0
bin	0.00015200000000000004	0
bin	0.00015300000000000003	0
bin	0.00015400000000000003	0
bin	0.00015500000000000003	0
bin	0.00015600000000000002	0
bin	0.00015700000000000002	0
bin	0.00015800000000000005	0
bin	0.00015900000000000002	0
bin	0.00016000000000000004	0
bin	0.00016100000000000004	0
bin	0.00016200000000000003	0
bin	0.00016300000000000003	2
bin	0.00016400000000000003	0
bin	0.00016500000000000003	0
bin	0.00016600000000000002	0
bin	0.00016700000000000005	0
bin	0.00016800000000000002	0
bin	0.00016900000000000004	0
bin	0.00017000000000000004	0
bin	0.00017100000000000004	0
bin	0.00017200000000000003	0
bin	0.00017300000000000003	0
bin	0.00017400000000000003	0
bin	0.00017500000000000003	0
bin	0.00017600000000000005	0
bin	0.00017700000000000002	0
bin	0.00017800000000000004	0
bin	0.00017900000000000004	0
bin	0.00018000000000000004	0
bin	0.00018100000000000004	0
bin	0.00018200000000000003	0
bin	0.00018300000000000003	1
bin	0.00018400000000000003	0
bin	0.00018500000000000005	0
bin	0.00018600000000000002	0
bin	0.00018700000000000005	0
bin	0.00018800000000000004	0
bin	0.00018900000000000004	0
bin	0.00019000000000000004	0
bin	0.00019100000000000003	0
bin	0.00019200000000000003	0
bin	0.00019300000000000003	0
bin	0.00019400000000000005	0
bin	0.00019500000000000002	0
bin	0.00019600000000000005	0
bin	0.00019700000000000002	0
bin	0.00019800000000000004	0
bin	0.00019900000000000004	0
statistic Layered80211.host[0].wlan[0].mac.dcf.channelAccess.pendingQueue outgoingPacketLengths:histogram
field count 5
field mean 960
field stddev 0
field min 960
field max 960
field sum 4800
field sqrsum 4608000
bin	-inf	0
bin	959	0
bin	960	5
bin	961	0
statistic Layered80211.host[0].wlan[0].mac.dcf.channelAccess.pendingQueue flowQueueingTime:histogram
field count 0
field mean -nan
field stddev nan
field min nan
field max nan
field sum 0
field sqrsum 0
bin	-inf	0
bin	0	0
bin	1	0
statistic Layered80211.host[0].wlan[0].mac.dcf.channelAccess.pendingQueue incomingPacketLengths:histogram
field count 5
field mean 960
field stddev 0
field min 960
field max 960
field sum 4800
field sqrsum 4608000
bin	-inf	0
bin	959	0
bin	960	5
bin	961	0
statistic Layered80211.host[0].wlan[0].mac.dcf.channelAccess.inProgressFrames queueingTime:histogram
field count 5
field mean 0.00010226685199999998
field stddev 0
field min 0.000102266852
field max 0.000102266852
field sum 0.00051133425999999994
field sqrsum 5.2292545089949513e-08
bin	-inf	0
bin	0	5
bin	0.01	0
bin	0.02	0
bin	0.029999999999999999	0
bin	0.040000000000000001	0
bin	0.050000000000000003	0
bin	0.059999999999999998	0
bin	0.070000000000000007	0
bin	0.080000000000000002	0
bin	0.089999999999999997	0
bin	0.10000000000000001	0
bin	0.11	0
bin	0.12	0
bin	0.13	0
bin	0.14000000000000001	0
bin	0.14999999999999999	0
bin	0.16	0
bin	0.17000000000000001	0
bin	0.17999999999999999	0
bin	0.19	0
bin	0.20000000000000001	0
bin	0.20999999999999999	0
bin	0.22	0
bin	0.23000000000000001	0
bin	0.23999999999999999	0
bin	0.25	0
bin	0.26000000000000001	0
bin	0.27000000000000002	0
bin	0.28000000000000003	0
bin	0.28999999999999998	0
bin	0.29999999999999999	0
bin	0.31	0
bin	0.32000000000000001	0
bin	0.33000000000000002	0
bin	0.34000000000000002	0
bin	0.35000000000000003	0
bin	0.35999999999999999	0
bin	0.37	0
bin	0.38	0
bin	0.39000000000000001	0
bin	0.40000000000000002	0
bin	0.41000000000000003	0
bin	0.41999999999999998	0
bin	0.42999999999999999	0
bin	0.44	0
bin	0.45000000000000001	0
bin	0.46000000000000002	0
bin	0.47000000000000003	0
bin	0.47999999999999998	0
bin	0.48999999999999999	0
bin	0.5	0
bin	0.51000000000000001	0
statistic Layered80211.host[0].wlan[0].mac.dcf frameSequenceDuration:histogram
field count 5
field mean 0.00010226685199999998
field stddev 0
field min 0.000102266852
field max 0.000102266852
field sum 0.00051133425999999994
field sqrsum 5.2292545089949513e-08
bin	-inf	0
bin	0	5
bin	0.01	0
bin	0.02	0
bin	0.029999999999999999	0
bin	0.040000000000000001	0
bin	0.050000000000000003	0
bin	0.059999999999999998	0
bin	0.070000000000000007	0
bin	0.080000000000000002	0
bin	0.089999999999999997	0
bin	0.10000000000000001	0
bin	0.11	0
bin	0.12	0
bin	0.13	0
bin	0.14000000000000001	0
bin	0.14999999999999999	0
bin	0.16	0
bin	0.17000000000000001	0
bin	0.17999999999999999	0
bin	0.19	0
bin	0.20000000000000001	0
bin	0.20999999999999999	0
bin	0.22	0
bin	0.23000000000000001	0
bin	0.23999999999999999	0
bin	0.25	0
bin	0.26000000000000001	0
bin	0.27000000000000002	0
bin	0.28000000000000003	0
bin	0.28999999999999998	0
bin	0.29999999999999999	0
bin	0.31	0
bin	0.32000000000000001	0
bin	0.33000000000000002	0
bin	0.34000000000000002	0
bin	0.35000000000000003	0
bin	0.35999999999999999	0
bin	0.37	0
bin	0.38	0
bin	0.39000000000000001	0
bin	0.40000000000000002	0
bin	0.41000000000000003	0
bin	0.41999999999999998	0
bin	0.42999999999999999	0
bin	0.44	0
bin	0.45000000000000001	0
bin	0.46000000000000002	0
bin	0.47000000000000003	0
bin	0.47999999999999998	0
bin	0.48999999999999999	0
bin	0.5	0
bin	0.51000000000000001	0
statistic Layered80211.host[0].wlan[0].mac.dcf frameSequenceNumPackets:histogram
field count 5
field mean 2
field stddev 0
field min 2
field max 2
field sum 10
field sqrsum 20
bin	-inf	0
bin	1	0
bin	2	5
bin	3	0
statistic Layered80211.host[0].wlan[0].radio minSnir:histogram
field count 10
field mean 617.56007564490574
field stddev 0
field min 617.56007564490574
field max 617.56007564490574
field sum 6175.6007564490574
field sqrsum 3813804.4703054167
bin	-inf	0
bin	617.06000000000006	0
bin	617.08000000000004	0
bin	617.10000000000002	0
bin	617.12	0
bin	617.1400000000001	0
bin	617.16000000000008	0
bin	617.18000000000006	0
bin	617.20000000000005	0
bin	617.22000000000003	0
bin	617.24000000000001	0
bin	617.2600000000001	0
bin	617.28000000000009	0
bin	617.30000000000007	0
bin	617.32000000000005	0
bin	617.34000000000003	0
bin	617.36000000000001	0
bin	617.38000000000011	0
bin	617.40000000000009	0
bin	617.42000000000007	0
bin	617.44000000000005	0
bin	617.46000000000004	0
bin	617.48000000000002	0
bin	617.50000000000011	0
bin	617.5200000000001	0
bin	617.54000000000008	0
bin	617.56000000000006	10
bin	617.58000000000004	0
bin	617.60000000000002	0
bin	617.62	0
bin	617.6400000000001	0
bin	617.66000000000008	0
bin	617.68000000000006	0
bin	617.70000000000005	0
bin	617.72000000000003	0
bin	617.74000000000001	0
bin	617.7600000000001	0
bin	617.78000000000009	0
bin	617.80000000000007	0
bin	617.82000000000005	0
bin	617.84000000000003	0
bin	617.86000000000001	0
bin	617.88000000000011	0
bin	617.90000000000009	0
bin	617.92000000000007	0
bin	617.94000000000005	0
bin	617.96000000000004	0
bin	617.98000000000002	0
bin	618.00000000000011	0
bin	618.0200000000001	0
bin	618.04000000000008	0
bin	618.06000000000006	0
bin	618.08000000000004	0
statistic Layered80211.host[0].wlan[0].radio packetErrorRate:histogram
field count 0
field mean -nan
field stddev nan
field min nan
field max nan
field sum 0
field sqrsum 0
bin	-inf	0
bin	0	0
bin	1	0
statistic Layered80211.host[0].wlan[0].radio bitErrorRate:histogram
field count 0
field mean -nan
field stddev nan
field min nan
field max nan
field sum 0
field sqrsum 0
bin	-inf	0
bin	0	0
bin	1	0
statistic Layered80211.host[0].wlan[0].radio symbolErrorRate:histogram
field count 0
field mean -nan
field stddev nan
field min nan
field max nan
field sum 0
field sqrsum 0
bin	-inf	0
bin	0	0
bin	1	0
statistic Layered80211.host[1].wlan[0].mac.dcf.channelAccess.pendingQueue queueingTime:histogram
field count 5
field mean 0
field stddev 0
field min 0
field max 0
field sum 0
field sqrsum 0
bin	-inf	0
bin	-0.5	0
bin	-0.47999999999999998	0
bin	-0.46000000000000002	0
bin	-0.44	0
bin	-0.41999999999999998	0
bin	-0.40000000000000002	0
bin	-0.38	0
bin	-0.35999999999999999	0
bin	-0.33999999999999997	0
bin	-0.32000000000000001	0
bin	-0.29999999999999999	0
bin	-0.28000000000000003	0
bin	-0.26000000000000001	0
bin	-0.23999999999999999	0
bin	-0.21999999999999997	0
bin	-0.20000000000000001	0
bin	-0.17999999999999999	0
bin	-0.15999999999999998	0
bin	-0.14000000000000001	0
bin	-0.12	0
bin	-0.099999999999999978	0
bin	-0.080000000000000016	0
bin	-0.059999999999999998	0
bin	-0.03999999999999998	0
bin	-0.020000000000000018	0
bin	0	5
bin	0.020000000000000018	0
bin	0.040000000000000036	0
bin	0.060000000000000053	0
bin	0.07999999999999996	0
bin	0.099999999999999978	0
bin	0.12	0
bin	0.14000000000000001	0
bin	0.16000000000000003	0
bin	0.18000000000000005	0
bin	0.20000000000000007	0
bin	0.21999999999999997	0
bin	0.23999999999999999	0
bin	0.26000000000000001	0
bin	0.28000000000000003	0
bin	0.30000000000000004	0
bin	0.32000000000000006	0
bin	0.33999999999999997	0
bin	0.35999999999999999	0
bin	0.38	0
bin	0.40000000000000002	0
bin	0.42000000000000004	0
bin	0.44000000000000006	0
bin	0.45999999999999996	0
bin	0.47999999999999998	0
bin	0.5	0
statistic Layered80211.host[1].wlan[0].mac.dcf.channelAccess.pendingQueue outgoingPacketLengths:histogram
field count 5
field mean 960
field stddev 0
field min 960
field max 960
field sum 4800
field sqrsum 4608000
bin	-inf	0
bin	959	0
bin	960	5
bin	961	0
statistic Layered80211.host[1].wlan[0].mac.dcf.channelAccess.pendingQueue flowQueueingTime:histogram
field count 0
field mean -nan
field stddev nan
field min nan
field max nan
field sum 0
field sqrsum 0
bin	-inf	0
bin	0	0
bin	1	0
statistic Layered80211.host[1].wlan[0].mac.dcf.channelAccess.pendingQueue incomingPacketLengths:histogram
field count 5
field mean 960
field stddev 0
field min 960
field max 960
field sum 4800
field sqrsum 4608000
bin	-inf	0
bin	959	0
bin	960	5
bin	961	0
statistic Layered80211.host[1].wlan[0].mac.dcf.channelAccess.inProgressFrames queueingTime:histogram
field count 5
field mean 0.00010226685199999998
field stddev 0
field min 0.000102266852
field max 0.000102266852
field sum 0.00051133425999999994
field sqrsum 5.2292545089949513e-08
bin	-inf	0
bin	0	5
bin	0.01	0
bin	0.02	0
bin	0.029999999999999999	0
bin	0.040000000000000001	0
bin	0.050000000000000003	0
bin	0.059999999999999998	0
bin	0.070000000000000007	0
bin	0.080000000000000002	0
bin	0.089999999999999997	0
bin	0.10000000000000001	0
bin	0.11	0
bin	0.12	0
bin	0.13	0
bin	0.14000000000000001	0
bin	0.14999999999999999	0
bin	0.16	0
bin	0.17000000000000001	0
bin	0.17999999999999999	0
bin	0.19	0
bin	0.20000000000000001	0
bin	0.20999999999999999	0
bin	0.22	0
bin	0.23000000000000001	0
bin	0.23999999999999999	0
bin	0.25	0
bin	0.26000000000000001	0
bin	0.27000000000000002	0
bin	0.28000000000000003	0
bin	0.28999999999999998	0
bin	0.29999999999999999	0
bin	0.31	0
bin	0.32000000000000001	0
bin	0.33000000000000002	0
bin	0.34000000000000002	0
bin	0.35000000000000003	0
bin	0.35999999999999999	0
bin	0.37	0
bin	0.38	0
bin	0.39000000000000001	0
bin	0.40000000000000002	0
bin	0.41000000000000003	0
bin	0.41999999999999998	0
bin	0.42999999999999999	0
bin	0.44	0
bin	0.45000000000000001	0
bin	0.46000000000000002	0
bin	0.47000000000000003	0
bin	0.47999999999999998	0
bin	0.48999999999999999	0
bin	0.5	0
bin	0.51000000000000001	0
statistic Layered80211.host[1].wlan[0].mac.dcf frameSequenceDuration:histogram
field count 5
field mean 0.00010226685199999998
field stddev 0
field min 0.000102266852
field max 0.000102266852
field sum 0.00051133425999999994
field sqrsum 5.2292545089949513e-08
bin	-inf	0
bin	0	5
bin	0.01	0
bin	0.02	0
bin	0.029999999999999999	0
bin	0.040000000000000001	0
bin	0.050000000000000003	0
bin	0.059999999999999998	0
bin	0.070000000000000007	0
bin	0.080000000000000002	0
bin	0.089999999999999997	0
bin	0.10000000000000001	0
bin	0.11	0
bin	0.12	0
bin	0.13	0
bin	0.14000000000000001	0
bin	0.14999999999999999	0
bin	0.16	0
bin	0.17000000000000001	0
bin	0.17999999999999999	0
bin	0.19	0
bin	0.20000000000000001	0
bin	0.20999999999999999	0
bin	0.22	0
bin	0.23000000000000001	0
bin	0.23999999999999999	0
bin	0.25	0
bin	0.26000000000000001	0
bin	0.27000000000000002	0
bin	0.28000000000000003	0
bin	0.28999999999999998	0
bin	0.29999999999999999	0
bin	0.31	0
bin	0.32000000000000001	0
bin	0.33000000000000002	0
bin	0.34000000000000002	0
bin	0.35000000000000003	0
bin	0.35999999999999999	0
bin	0.37	0
bin	0.38	0
bin	0.39000000000000001	0
bin	0.40000000000000002	0
bin	0.41000000000000003	0
bin	0.41999999999999998	0
bin	0.42999999999999999	0
bin	0.44	0
bin	0.45000000000000001	0
bin	0.46000000000000002	0
bin	0.47000000000000003	0
bin	0.47999999999999998	0
bin	0.48999999999999999	0
bin	0.5	0
bin	0.51000000000000001	0
statistic Layered80211.host[1].wlan[0].mac.dcf frameSequenceNumPackets:histogram
field count 5
field mean 2
field stddev 0
field min 2
field max 2
field sum 10
field sqrsum 20
bin	-inf	0
bin	1	0
bin	2	5
bin	3	0
statistic Layered80211.host[1].wlan[0].radio minSnir:histogram
field count 10
field mean 617.56007564490574
field stddev 0
field min 617.56007564490574
field max 617.56007564490574
field sum 6175.6007564490574
field sqrsum 3813804.4703054167
bin	-inf	0
bin	617.06000000000006	0
bin	617.08000000000004	0
bin	617.10000000000002	0
bin	617.12	0
bin	617.1400000000001	0
bin	617.16000000000008	0
bin	617.18000000000006	0
bin	617.20000000000005	0
bin	617.22000000000003	0
bin	617.24000000000001	0
bin	617.2600000000001	0
bin	617.28000000000009	0
bin	617.30000000000007	0
bin	617.32000000000005	0
bin	617.34000000000003	0
bin	617.36000000000001	0
bin	617.38000000000011	0
bin	617.40000000000009	0
bin	617.42000000000007	0
bin	617.44000000000005	0
bin	617.46000000000004	0
bin	617.48000000000002	0
bin	617.50000000000011	0
bin	617.5200000000001	0
bin	617.54000000000008	0
bin	617.56000000000006	10
bin	617.58000000000004	0
bin	617.60000000000002	0
bin	617.62	0
bin	617.6400000000001	0
bin	617.66000000000008	0
bin	617.68000000000006	0
bin	617.70000000000005	0
bin	617.72000000000003	0
bin	617.74000000000001	0
bin	617.7600000000001	0
bin	617.78000000000009	0
bin	617.80000000000007	0
bin	617.82000000000005	0
bin	617.84000000000003	0
bin	617.86000000000001	0
bin	617.88000000000011	0
bin	617.90000000000009	0
bin	617.92000000000007	0
bin	617.94000000000005	0
bin	617.96000000000004	0
bin	617.98000000000002	0
bin	618.00000000000011	0
bin	618.0200000000001	0
bin	618.04000000000008	0
bin	618.06000000000006	0
bin	618.08000000000004	0
statistic Layered80211.host[1].wlan[0].radio packetErrorRate:histogram
field count 0
field mean -nan
field stddev nan
field min nan
field max nan
field sum 0
field sqrsum 0
bin	-inf	0
bin	0	0
bin	1	0
statistic Layered80211.host[1].wlan[0].radio bitErrorRate:histogram
field count 0
field mean -nan
field stddev nan
field min nan
field max nan
field sum 0
field sqrsum 0
bin	-inf	0
bin	0	0
bin	1	0
statistic Layered80211.host[1].wlan[0].radio symbolErrorRate:histogram
field count 0
field mean -nan
field stddev nan
field min nan
field max nan
field sum 0
field sqrsum 0
bin	-inf	0
bin	0	0
bin	1	0
statistic Layered80211.host[1].app[0] rtt:histogram
field count 5
field mean 0.00025226685200000002
field stddev 2.2803508501982338e-05
field min 0.00022026685200000001
field max 0.000280266852
field sum 0.0012613342600000001
field sqrsum 3.2027282308994952e-07
bin	-inf	0
bin	0.00020500000000000002	0
bin	0.00020600000000000002	0
bin	0.00020700000000000002	0
bin	0.00020800000000000001	0
bin	0.00020900000000000001	0
bin	0.00021000000000000004	0
bin	0.00021100000000000003	0
bin	0.00021200000000000003	0
bin	0.00021300000000000003	0
bin	0.00021400000000000002	0
bin	0.00021500000000000002	0
bin	0.00021600000000000002	0
bin	0.00021700000000000002	0
bin	0.00021800000000000001	0
bin	0.00021900000000000001	0
bin	0.00022000000000000003	1
bin	0.00022100000000000003	0
bin	0.00022200000000000003	0
bin	0.00022300000000000003	0
bin	0.00022400000000000002	0
bin	0.00022500000000000002	0
bin	0.00022600000000000002	0
bin	0.00022700000000000002	0
bin	0.00022800000000000001	0
bin	0.00022900000000000004	0
bin	0.00023000000000000003	0
bin	0.00023100000000000003	0
bin	0.00023200000000000003	0
bin	0.00023300000000000003	0
bin	0.00023400000000000002	0
bin	0.00023500000000000002	0
bin	0.00023600000000000004	0
bin	0.00023700000000000001	0
bin	0.00023800000000000004	0
bin	0.00023900000000000004	0
bin	0.00024000000000000003	1
bin	0.00024100000000000003	0
bin	0.00024200000000000003	0
bin	0.00024300000000000002	0
bin	0.00024400000000000002	0
bin	0.00024500000000000005	0
bin	0.00024600000000000002	0
bin	0.00024700000000000004	0
bin	0.00024800000000000001	0
bin	0.00024900000000000004	0
bin	0.00025000000000000001	0
bin	0.00025100000000000003	0
bin	0.00025200000000000005	0
bin	0.00025300000000000002	0
bin	0.00025400000000000005	0
bin	0.00025500000000000002	0
bin	0.00025600000000000004	0
bin	0.00025700000000000001	0
bin	0.00025800000000000004	0
bin	0.00025900000000000001	0
bin	0.00026000000000000003	2
bin	0.00026100000000000006	0
bin	0.00026200000000000003	0
bin	0.00026300000000000005	0
bin	0.00026400000000000002	0
bin	0.00026500000000000004	0
bin	0.00026600000000000001	0
bin	0.00026700000000000004	0
bin	0.00026800000000000001	0
bin	0.00026900000000000003	0
bin	0.00027000000000000006	0
bin	0.00027100000000000003	0
bin	0.00027200000000000005	0
bin	0.00027300000000000002	0
bin	0.00027400000000000005	0
bin	0.00027500000000000002	0
bin	0.00027600000000000004	0
bin	0.00027700000000000001	0
bin	0.00027800000000000004	0
bin	0.00027900000000000006	0
bin	0.00028000000000000003	1
bin	0.00028100000000000005	0
bin	0.00028200000000000002	0
bin	0.00028300000000000005	0
bin	0.00028400000000000002	0
bin	0.00028500000000000004	0
bin	0.00028600000000000001	0
bin	0.00028700000000000004	0
bin	0.00028800000000000006	0
bin	0.00028900000000000003	0
bin	0.00029000000000000006	0
bin	0.00029100000000000003	0
bin	0.00029200000000000005	0
bin	0.00029300000000000002	0
bin	0.00029400000000000004	0
bin	0.00029500000000000001	0
bin	0.00029600000000000004	0
scalar Layered80211.host[0].lo[0].lo rcvdPkFromHl:vector(packetBytes):count 0
scalar Layered80211.host[0].lo[0].lo rcvdPkFromHl:vector(packetBytes):sum 0
scalar Layered80211.host[0].lo[0].lo rcvdPkFromHl:vector(packetBytes):sumweights 0
scalar Layered80211.host[0].lo[0].lo rcvdPkFromHl:vector(packetBytes):mean -nan
scalar Layered80211.host[0].lo[0].lo rcvdPkFromHl:vector(packetBytes):stddev nan
scalar Layered80211.host[0].lo[0].lo rcvdPkFromHl:vector(packetBytes):min inf
scalar Layered80211.host[0].lo[0].lo rcvdPkFromHl:vector(packetBytes):max -inf
scalar Layered80211.host[0].lo[0].lo rcvdPkFromHl:vector(packetBytes):starttime nan
scalar Layered80211.host[0].lo[0].lo rcvdPkFromHl:vector(packetBytes):endtime nan
scalar Layered80211.host[0].lo[0].lo passedUpPk:vector(packetBytes):count 0
scalar Layered80211.host[0].lo[0].lo passedUpPk:vector(packetBytes):sum 0
scalar Layered80211.host[0].lo[0].lo passedUpPk:vector(packetBytes):sumweights 0
scalar Layered80211.host[0].lo[0].lo passedUpPk:vector(packetBytes):mean -nan
scalar Layered80211.host[0].lo[0].lo passedUpPk:vector(packetBytes):stddev nan
scalar Layered80211.host[0].lo[0].lo passedUpPk:vector(packetBytes):min inf
scalar Layered80211.host[0].lo[0].lo passedUpPk:vector(packetBytes):max -inf
scalar Layered80211.host[0].lo[0].lo passedUpPk:vector(packetBytes):starttime nan
scalar Layered80211.host[0].lo[0].lo passedUpPk:vector(packetBytes):endtime nan
scalar Layered80211.host[0].lo[0] packetDropInterfaceDown:vector(packetBytes):count 0
scalar Layered80211.host[0].lo[0] packetDropInterfaceDown:vector(packetBytes):sum 0
scalar Layered80211.host[0].lo[0] packetDropInterfaceDown:vector(packetBytes):sumweights 0
scalar Layered80211.host[0].lo[0] packetDropInterfaceDown:vector(packetBytes):mean -nan
scalar Layered80211.host[0].lo[0] packetDropInterfaceDown:vector(packetBytes):stddev nan
scalar Layered80211.host[0].lo[0] packetDropInterfaceDown:vector(packetBytes):min inf
scalar Layered80211.host[0].lo[0] packetDropInterfaceDown:vector(packetBytes):max -inf
scalar Layered80211.host[0].lo[0] packetDropInterfaceDown:vector(packetBytes):starttime nan
scalar Layered80211.host[0].lo[0] packetDropInterfaceDown:vector(packetBytes):endtime nan
scalar Layered80211.host[0].lo[0] packetDropNoCarrier:vector(packetBytes):count 0
scalar Layered80211.host[0].lo[0] packetDropNoCarrier:vector(packetBytes):sum 0
scalar Layered80211.host[0].lo[0] packetDropNoCarrier:vector(packetBytes):sumweights 0
scalar Layered80211.host[0].lo[0] packetDropNoCarrier:vector(packetBytes):mean -nan
scalar Layered80211.host[0].lo[0] packetDropNoCarrier:vector(packetBytes):stddev nan
scalar Layered80211.host[0].lo[0] packetDropNoCarrier:vector(packetBytes):min inf
scalar Layered80211.host[0].lo[0] packetDropNoCarrier:vector(packetBytes):max -inf
scalar Layered80211.host[0].lo[0] packetDropNoCarrier:vector(packetBytes):starttime nan
scalar Layered80211.host[0].lo[0] packetDropNoCarrier:vector(packetBytes):endtime nan
scalar Layered80211.host[0].wlan[0].mac.dcf.channelAccess.pendingQueue queueLength:vector:count 0
scalar Layered80211.host[0].wlan[0].mac.dcf.channelAccess.pendingQueue queueLength:vector:sum 0
scalar Layered80211.host[0].wlan[0].mac.dcf.channelAccess.pendingQueue queueLength:vector:sumweights 0
scalar Layered80211.host[0].wlan[0].mac.dcf.channelAccess.pendingQueue queueLength:vector:mean -nan
scalar Layered80211.host[0].wlan[0].mac.dcf.channelAccess.pendingQueue queueLength:vector:stddev nan
scalar Layered80211.host[0].wlan[0].mac.dcf.channelAccess.pendingQueue queueLength:vector:min inf
scalar Layered80211.host[0].wlan[0].mac.dcf.channelAccess.pendingQueue queueLength:vector:max -inf
scalar Layered80211.host[0].wlan[0].mac.dcf.channelAccess.pendingQueue queueLength:vector:starttime nan
scalar Layered80211.host[0].wlan[0].mac.dcf.channelAccess.pendingQueue queueLength:vector:endtime nan
scalar Layered80211.host[0].wlan[0].mac.dcf.channelAccess.pendingQueue queueBitLength:vector:count 0
scalar Layered80211.host[0].wlan[0].mac.dcf.channelAccess.pendingQueue queueBitLength:vector:sum 0
scalar Layered80211.host[0].wlan[0].mac.dcf.channelAccess.pendingQueue queueBitLength:vector:sumweights 0
scalar Layered80211.host[0].wlan[0].mac.dcf.channelAccess.pendingQueue queueBitLength:vector:mean -nan
scalar Layered80211.host[0].wlan[0].mac.dcf.channelAccess.pendingQueue queueBitLength:vector:stddev nan
scalar Layered80211.host[0].wlan[0].mac.dcf.channelAccess.pendingQueue queueBitLength:vector:min inf
scalar Layered80211.host[0].wlan[0].mac.dcf.channelAccess.pendingQueue queueBitLength:vector:max -inf
scalar Layered80211.host[0].wlan[0].mac.dcf.channelAccess.pendingQueue queueBitLength:vector:starttime nan
scalar Layered80211.host[0].wlan[0].mac.dcf.channelAccess.pendingQueue queueBitLength:vector:endtime nan
scalar Layered80211.host[0].wlan[0].mac.dcf.channelAccess.pendingQueue queueingTime:vector:count 0
scalar Layered80211.host[0].wlan[0].mac.dcf.channelAccess.pendingQueue queueingTime:vector:sum 0
scalar Layered80211.host[0].wlan[0].mac.dcf.channelAccess.pendingQueue queueingTime:vector:sumweights 0
scalar Layered80211.host[0].wlan[0].mac.dcf.channelAccess.pendingQueue queueingTime:vector:mean -nan
scalar Layered80211.host[0].wlan[0].mac.dcf.channelAccess.pendingQueue queueingTime:vector:stddev nan
scalar Layered80211.host[0].wlan[0].mac.dcf.channelAccess.pendingQueue queueingTime:vector:min inf
scalar Layered80211.host[0].wlan[0].mac.dcf.channelAccess.pendingQueue queueingTime:vector:max -inf
scalar Layered80211.host[0].wlan[0].mac.dcf.channelAccess.pendingQueue queueingTime:vector:starttime nan
scalar Layered80211.host[0].wlan[0].mac.dcf.channelAccess.pendingQueue queueingTime:vector:endtime nan
scalar Layered80211.host[0].wlan[0].mac.dcf.channelAccess.pendingQueue incomingPacketLengths:vector:count 0
scalar Layered80211.host[0].wlan[0].mac.dcf.channelAccess.pendingQueue incomingPacketLengths:vector:sum 0
scalar Layered80211.host[0].wlan[0].mac.dcf.channelAccess.pendingQueue incomingPacketLengths:vector:sumweights 0
scalar Layered80211.host[0].wlan[0].mac.dcf.channelAccess.pendingQueue incomingPacketLengths:vector:mean -nan
scalar Layered80211.host[0].wlan[0].mac.dcf.channelAccess.pendingQueue incomingPacketLengths:vector:stddev nan
scalar Layered80211.host[0].wlan[0].mac.dcf.channelAccess.pendingQueue incomingPacketLengths:vector:min inf
scalar Layered80211.host[0].wlan[0].mac.dcf.channelAccess.pendingQueue incomingPacketLengths:vector:max -inf
scalar Layered80211.host[0].wlan[0].mac.dcf.channelAccess.pendingQueue incomingPacketLengths:vector:starttime nan
scalar Layered80211.host[0].wlan[0].mac.dcf.channelAccess.pendingQueue incomingPacketLengths:vector:endtime nan
scalar Layered80211.host[0].wlan[0].mac.dcf.channelAccess.pendingQueue incomingDataRate:vector:count 0
scalar Layered80211.host[0].wlan[0].mac.dcf.channelAccess.pendingQueue incomingDataRate:vector:sum 0
scalar Layered80211.host[0].wlan[0].mac.dcf.channelAccess.pendingQueue incomingDataRate:vector:sumweights 0
scalar Layered80211.host[0].wlan[0].mac.dcf.channelAccess.pendingQueue incomingDataRate:vector:mean -nan
scalar Layered80211.host[0].wlan[0].mac.dcf.channelAccess.pendingQueue incomingDataRate:vector:stddev nan
scalar Layered80211.host[0].wlan[0].mac.dcf.channelAccess.pendingQueue incomingDataRate:vector:min inf
scalar Layered80211.host[0].wlan[0].mac.dcf.channelAccess.pendingQueue incomingDataRate:vector:max -inf
scalar Layered80211.host[0].wlan[0].mac.dcf.channelAccess.pendingQueue incomingDataRate:vector:starttime nan
scalar Layered80211.host[0].wlan[0].mac.dcf.channelAccess.pendingQueue incomingDataRate:vector:endtime nan
scalar Layered80211.host[0].wlan[0].mac.dcf.channelAccess.pendingQueue outgoingPacketLengths:vector:count 0
scalar Layered80211.host[0].wlan[0].mac.dcf.channelAccess.pendingQueue outgoingPacketLengths:vector:sum 0
scalar Layered80211.host[0].wlan[0].mac.dcf.channelAccess.pendingQueue outgoingPacketLengths:vector:sumweights 0
scalar Layered80211.host[0].wlan[0].mac.dcf.channelAccess.pendingQueue outgoingPacketLengths:vector:mean -nan
scalar Layered80211.host[0].wlan[0].mac.dcf.channelAccess.pendingQueue outgoingPacketLengths:vector:stddev nan
scalar Layered80211.host[0].wlan[0].mac.dcf.channelAccess.pendingQueue outgoingPacketLengths:vector:min inf
scalar Layered80211.host[0].wlan[0].mac.dcf.channelAccess.pendingQueue outgoingPacketLengths:vector:max -inf
scalar Layered80211.host[0].wlan[0].mac.dcf.channelAccess.pendingQueue outgoingPacketLengths:vector:starttime nan
scalar Layered80211.host[0].wlan[0].mac.dcf.channelAccess.pendingQueue outgoingPacketLengths:vector:endtime nan
scalar Layered80211.host[0].wlan[0].mac.dcf.channelAccess.pendingQueue outgoingDataRate:vector:count 0
scalar Layered80211.host[0].wlan[0].mac.dcf.channelAccess.pendingQueue outgoingDataRate:vector:sum 0
scalar Layered80211.host[0].wlan[0].mac.dcf.channelAccess.pendingQueue outgoingDataRate:vector:sumweights 0
scalar Layered80211.host[0].wlan[0].mac.dcf.channelAccess.pendingQueue outgoingDataRate:vector:mean -nan
scalar Layered80211.host[0].wlan[0].mac.dcf.channelAccess.pendingQueue outgoingDataRate:vector:stddev nan
scalar Layered80211.host[0].wlan[0].mac.dcf.channelAccess.pendingQueue outgoingDataRate:vector:min inf
scalar Layered80211.host[0].wlan[0].mac.dcf.channelAccess.pendingQueue outgoingDataRate:vector:max -inf
scalar Layered80211.host[0].wlan[0].mac.dcf.channelAccess.pendingQueue outgoingDataRate:vector:starttime nan
scalar Layered80211.host[0].wlan[0].mac.dcf.channelAccess.pendingQueue outgoingDataRate:vector:endtime nan
scalar Layered80211.host[0].wlan[0].mac.dcf.channelAccess.pendingQueue droppedPacketLengthsQueueOverflow:vector:count 0
scalar Layered80211.host[0].wlan[0].mac.dcf.channelAccess.pendingQueue droppedPacketLengthsQueueOverflow:vector:sum 0
scalar Layered80211.host[0].wlan[0].mac.dcf.channelAccess.pendingQueue droppedPacketLengthsQueueOverflow:vector:sumweights 0
scalar Layered80211.host[0].wlan[0].mac.dcf.channelAccess.pendingQueue droppedPacketLengthsQueueOverflow:vector:mean -nan
scalar Layered80211.host[0].wlan[0].mac.dcf.channelAccess.pendingQueue droppedPacketLengthsQueueOverflow:vector:stddev nan
scalar Layered80211.host[0].wlan[0].mac.dcf.channelAccess.pendingQueue droppedPacketLengthsQueueOverflow:vector:min inf
scalar Layered80211.host[0].wlan[0].mac.dcf.channelAccess.pendingQueue droppedPacketLengthsQueueOverflow:vector:max -inf
scalar Layered80211.host[0].wlan[0].mac.dcf.channelAccess.pendingQueue droppedPacketLengthsQueueOverflow:vector:starttime nan
scalar Layered80211.host[0].wlan[0].mac.dcf.channelAccess.pendingQueue droppedPacketLengthsQueueOverflow:vector:endtime nan
scalar Layered80211.host[0].wlan[0].mac.dcf.channelAccess.pendingQueue flowQueueingTime:vector:count 0
scalar Layered80211.host[0].wlan[0].mac.dcf.channelAccess.pendingQueue flowQueueingTime:vector:sum 0
scalar Layered80211.host[0].wlan[0].mac.dcf.channelAccess.pendingQueue flowQueueingTime:vector:sumweights 0
scalar Layered80211.host[0].wlan[0].mac.dcf.channelAccess.pendingQueue flowQueueingTime:vector:mean -nan
scalar Layered80211.host[0].wlan[0].mac.dcf.channelAccess.pendingQueue flowQueueingTime:vector:stddev nan
scalar Layered80211.host[0].wlan[0].mac.dcf.channelAccess.pendingQueue flowQueueingTime:vector:min inf
scalar Layered80211.host[0].wlan[0].mac.dcf.channelAccess.pendingQueue flowQueueingTime:vector:max -inf
scalar Layered80211.host[0].wlan[0].mac.dcf.channelAccess.pendingQueue flowQueueingTime:vector:starttime nan
scalar Layered80211.host[0].wlan[0].mac.dcf.channelAccess.pendingQueue flowQueueingTime:vector:endtime nan
scalar Layered80211.host[0].wlan[0].mac.dcf.channelAccess.pendingQueue flowIncomingDataRate:vector:count 0
scalar Layered80211.host[0].wlan[0].mac.dcf.channelAccess.pendingQueue flowIncomingDataRate:vector:sum 0
scalar Layered80211.host[0].wlan[0].mac.dcf.channelAccess.pendingQueue flowIncomingDataRate:vector:sumweights 0
scalar Layered80211.host[0].wlan[0].mac.dcf.channelAccess.pendingQueue flowIncomingDataRate:vector:mean -nan
scalar Layered80211.host[0].wlan[0].mac.dcf.channelAccess.pendingQueue flowIncomingDataRate:vector:stddev nan
scalar Layered80211.host[0].wlan[0].mac.dcf.channelAccess.pendingQueue flowIncomingDataRate:vector:min inf
scalar Layered80211.host[0].wlan[0].mac.dcf.channelAccess.pendingQueue flowIncomingDataRate:vector:max -inf
scalar Layered80211.host[0].wlan[0].mac.dcf.channelAccess.pendingQueue flowIncomingDataRate:vector:starttime nan
scalar Layered80211.host[0].wlan[0].mac.dcf.channelAccess.pendingQueue flowIncomingDataRate:vector:endtime nan
scalar Layered80211.host[0].wlan[0].mac.dcf.channelAccess.pendingQueue flowOutgoingDataRate:vector:count 0
scalar Layered80211.host[0].wlan[0].mac.dcf.channelAccess.pendingQueue flowOutgoingDataRate:vector:sum 0
scalar Layered80211.host[0].wlan[0].mac.dcf.channelAccess.pendingQueue flowOutgoingDataRate:vector:sumweights 0
scalar Layered80211.host[0].wlan[0].mac.dcf.channelAccess.pendingQueue flowOutgoingDataRate:vector:mean -nan
scalar Layered80211.host[0].wlan[0].mac.dcf.channelAccess.pendingQueue flowOutgoingDataRate:vector:stddev nan
scalar Layered80211.host[0].wlan[0].mac.dcf.channelAccess.pendingQueue flowOutgoingDataRate:vector:min inf
scalar Layered80211.host[0].wlan[0].mac.dcf.channelAccess.pendingQueue flowOutgoingDataRate:vector:max -inf
scalar Layered80211.host[0].wlan[0].mac.dcf.channelAccess.pendingQueue flowOutgoingDataRate:vector:starttime nan
scalar Layered80211.host[0].wlan[0].mac.dcf.channelAccess.pendingQueue flowOutgoingDataRate:vector:endtime nan
scalar Layered80211.host[0].wlan[0].mac.dcf.channelAccess.inProgressFrames queueingTime:vector:count 0
scalar Layered80211.host[0].wlan[0].mac.dcf.channelAccess.inProgressFrames queueingTime:vector:sum 0
scalar Layered80211.host[0].wlan[0].mac.dcf.channelAccess.inProgressFrames queueingTime:vector:sumweights 0
scalar Layered80211.host[0].wlan[0].mac.dcf.channelAccess.inProgressFrames queueingTime:vector:mean -nan
[...]
scalar Layered80211.host[1].wlan[0].mac packetDropNotAddressedToUs:vector(packetBytes):min inf
scalar Layered80211.host[1].wlan[0].mac packetDropNotAddressedToUs:vector(packetBytes):max -inf
scalar Layered80211.host[1].wlan[0].mac packetDropNotAddressedToUs:vector(packetBytes):starttime nan
scalar Layered80211.host[1].wlan[0].mac packetDropNotAddressedToUs:vector(packetBytes):endtime nan
scalar Layered80211.host[1].wlan[0].mac packetDropQueueOverflow:vector(packetBytes):count 0
scalar Layered80211.host[1].wlan[0].mac packetDropQueueOverflow:vector(packetBytes):sum 0
scalar Layered80211.host[1].wlan[0].mac packetDropQueueOverflow:vector(packetBytes):sumweights 0
scalar Layered80211.host[1].wlan[0].mac packetDropQueueOverflow:vector(packetBytes):mean -nan
scalar Layered80211.host[1].wlan[0].mac packetDropQueueOverflow:vector(packetBytes):stddev nan
scalar Layered80211.host[1].wlan[0].mac packetDropQueueOverflow:vector(packetBytes):min inf
scalar Layered80211.host[1].wlan[0].mac packetDropQueueOverflow:vector(packetBytes):max -inf
scalar Layered80211.host[1].wlan[0].mac packetDropQueueOverflow:vector(packetBytes):starttime nan
scalar Layered80211.host[1].wlan[0].mac packetDropQueueOverflow:vector(packetBytes):endtime nan
scalar Layered80211.host[1].wlan[0].mac packetDropRetryLimitReached:vector(packetBytes):count 0
scalar Layered80211.host[1].wlan[0].mac packetDropRetryLimitReached:vector(packetBytes):sum 0
scalar Layered80211.host[1].wlan[0].mac packetDropRetryLimitReached:vector(packetBytes):sumweights 0
scalar Layered80211.host[1].wlan[0].mac packetDropRetryLimitReached:vector(packetBytes):mean -nan
scalar Layered80211.host[1].wlan[0].mac packetDropRetryLimitReached:vector(packetBytes):stddev nan
scalar Layered80211.host[1].wlan[0].mac packetDropRetryLimitReached:vector(packetBytes):min inf
scalar Layered80211.host[1].wlan[0].mac packetDropRetryLimitReached:vector(packetBytes):max -inf
scalar Layered80211.host[1].wlan[0].mac packetDropRetryLimitReached:vector(packetBytes):starttime nan
scalar Layered80211.host[1].wlan[0].mac packetDropRetryLimitReached:vector(packetBytes):endtime nan
scalar Layered80211.host[1].wlan[0].mac packetDropDuplicateDetected:vector(packetBytes):count 0
scalar Layered80211.host[1].wlan[0].mac packetDropDuplicateDetected:vector(packetBytes):sum 0
scalar Layered80211.host[1].wlan[0].mac packetDropDuplicateDetected:vector(packetBytes):sumweights 0
scalar Layered80211.host[1].wlan[0].mac packetDropDuplicateDetected:vector(packetBytes):mean -nan
scalar Layered80211.host[1].wlan[0].mac packetDropDuplicateDetected:vector(packetBytes):stddev nan
scalar Layered80211.host[1].wlan[0].mac packetDropDuplicateDetected:vector(packetBytes):min inf
scalar Layered80211.host[1].wlan[0].mac packetDropDuplicateDetected:vector(packetBytes):max -inf
scalar Layered80211.host[1].wlan[0].mac packetDropDuplicateDetected:vector(packetBytes):starttime nan
scalar Layered80211.host[1].wlan[0].mac packetDropDuplicateDetected:vector(packetBytes):endtime nan
scalar Layered80211.host[1].wlan[0].mac packetDropOther:vector(packetBytes):count 0
scalar Layered80211.host[1].wlan[0].mac packetDropOther:vector(packetBytes):sum 0
scalar Layered80211.host[1].wlan[0].mac packetDropOther:vector(packetBytes):sumweights 0
scalar Layered80211.host[1].wlan[0].mac packetDropOther:vector(packetBytes):mean -nan
scalar Layered80211.host[1].wlan[0].mac packetDropOther:vector(packetBytes):stddev nan
scalar Layered80211.host[1].wlan[0].mac packetDropOther:vector(packetBytes):min inf
scalar Layered80211.host[1].wlan[0].mac packetDropOther:vector(packetBytes):max -inf
scalar Layered80211.host[1].wlan[0].mac packetDropOther:vector(packetBytes):starttime nan
scalar Layered80211.host[1].wlan[0].mac packetDropOther:vector(packetBytes):endtime nan
scalar Layered80211.host[1].wlan[0].radio radioMode:vector:count 0
scalar Layered80211.host[1].wlan[0].radio radioMode:vector:sum 0
scalar Layered80211.host[1].wlan[0].radio radioMode:vector:sumweights 0
scalar Layered80211.host[1].wlan[0].radio radioMode:vector:mean -nan
scalar Layered80211.host[1].wlan[0].radio radioMode:vector:stddev nan
scalar Layered80211.host[1].wlan[0].radio radioMode:vector:min inf
scalar Layered80211.host[1].wlan[0].radio radioMode:vector:max -inf
scalar Layered80211.host[1].wlan[0].radio radioMode:vector:starttime nan
scalar Layered80211.host[1].wlan[0].radio radioMode:vector:endtime nan
scalar Layered80211.host[1].wlan[0].radio receptionState:vector:count 0
scalar Layered80211.host[1].wlan[0].radio receptionState:vector:sum 0
scalar Layered80211.host[1].wlan[0].radio receptionState:vector:sumweights 0
scalar Layered80211.host[1].wlan[0].radio receptionState:vector:mean -nan
scalar Layered80211.host[1].wlan[0].radio receptionState:vector:stddev nan
scalar Layered80211.host[1].wlan[0].radio receptionState:vector:min inf
scalar Layered80211.host[1].wlan[0].radio receptionState:vector:max -inf
scalar Layered80211.host[1].wlan[0].radio receptionState:vector:starttime nan
scalar Layered80211.host[1].wlan[0].radio receptionState:vector:endtime nan
scalar Layered80211.host[1].wlan[0].radio transmissionState:vector:count 0
scalar Layered80211.host[1].wlan[0].radio transmissionState:vector:sum 0
scalar Layered80211.host[1].wlan[0].radio transmissionState:vector:sumweights 0
scalar Layered80211.host[1].wlan[0].radio transmissionState:vector:mean -nan
scalar Layered80211.host[1].wlan[0].radio transmissionState:vector:stddev nan
scalar Layered80211.host[1].wlan[0].radio transmissionState:vector:min inf
scalar Layered80211.host[1].wlan[0].radio transmissionState:vector:max -inf
scalar Layered80211.host[1].wlan[0].radio transmissionState:vector:starttime nan
scalar Layered80211.host[1].wlan[0].radio transmissionState:vector:endtime nan
scalar Layered80211.host[1].wlan[0] packetDropInterfaceDown:vector(packetBytes):count 0
scalar Layered80211.host[1].wlan[0] packetDropInterfaceDown:vector(packetBytes):sum 0
scalar Layered80211.host[1].wlan[0] packetDropInterfaceDown:vector(packetBytes):sumweights 0
scalar Layered80211.host[1].wlan[0] packetDropInterfaceDown:vector(packetBytes):mean -nan
scalar Layered80211.host[1].wlan[0] packetDropInterfaceDown:vector(packetBytes):stddev nan
scalar Layered80211.host[1].wlan[0] packetDropInterfaceDown:vector(packetBytes):min inf
scalar Layered80211.host[1].wlan[0] packetDropInterfaceDown:vector(packetBytes):max -inf
scalar Layered80211.host[1].wlan[0] packetDropInterfaceDown:vector(packetBytes):starttime nan
scalar Layered80211.host[1].wlan[0] packetDropInterfaceDown:vector(packetBytes):endtime nan
scalar Layered80211.host[1].wlan[0] packetDropNoCarrier:vector(packetBytes):count 0
scalar Layered80211.host[1].wlan[0] packetDropNoCarrier:vector(packetBytes):sum 0
scalar Layered80211.host[1].wlan[0] packetDropNoCarrier:vector(packetBytes):sumweights 0
scalar Layered80211.host[1].wlan[0] packetDropNoCarrier:vector(packetBytes):mean -nan
scalar Layered80211.host[1].wlan[0] packetDropNoCarrier:vector(packetBytes):stddev nan
scalar Layered80211.host[1].wlan[0] packetDropNoCarrier:vector(packetBytes):min inf
scalar Layered80211.host[1].wlan[0] packetDropNoCarrier:vector(packetBytes):max -inf
scalar Layered80211.host[1].wlan[0] packetDropNoCarrier:vector(packetBytes):starttime nan
scalar Layered80211.host[1].wlan[0] packetDropNoCarrier:vector(packetBytes):endtime nan
scalar Layered80211.host[1].ipv4.ip packetDropAddressResolutionFailed:vector(packetBytes):count 0
scalar Layered80211.host[1].ipv4.ip packetDropAddressResolutionFailed:vector(packetBytes):sum 0
scalar Layered80211.host[1].ipv4.ip packetDropAddressResolutionFailed:vector(packetBytes):sumweights 0
scalar Layered80211.host[1].ipv4.ip packetDropAddressResolutionFailed:vector(packetBytes):mean -nan
scalar Layered80211.host[1].ipv4.ip packetDropAddressResolutionFailed:vector(packetBytes):stddev nan
scalar Layered80211.host[1].ipv4.ip packetDropAddressResolutionFailed:vector(packetBytes):min inf
scalar Layered80211.host[1].ipv4.ip packetDropAddressResolutionFailed:vector(packetBytes):max -inf
scalar Layered80211.host[1].ipv4.ip packetDropAddressResolutionFailed:vector(packetBytes):starttime nan
scalar Layered80211.host[1].ipv4.ip packetDropAddressResolutionFailed:vector(packetBytes):endtime nan
scalar Layered80211.host[1].ipv4.ip packetDropHopLimitReached:vector(packetBytes):count 0
scalar Layered80211.host[1].ipv4.ip packetDropHopLimitReached:vector(packetBytes):sum 0
scalar Layered80211.host[1].ipv4.ip packetDropHopLimitReached:vector(packetBytes):sumweights 0
scalar Layered80211.host[1].ipv4.ip packetDropHopLimitReached:vector(packetBytes):mean -nan
scalar Layered80211.host[1].ipv4.ip packetDropHopLimitReached:vector(packetBytes):stddev nan
scalar Layered80211.host[1].ipv4.ip packetDropHopLimitReached:vector(packetBytes):min inf
scalar Layered80211.host[1].ipv4.ip packetDropHopLimitReached:vector(packetBytes):max -inf
scalar Layered80211.host[1].ipv4.ip packetDropHopLimitReached:vector(packetBytes):starttime nan
scalar Layered80211.host[1].ipv4.ip packetDropHopLimitReached:vector(packetBytes):endtime nan
scalar Layered80211.host[1].ipv4.ip packetDropForwardingDisabled:vector(packetBytes):count 0
scalar Layered80211.host[1].ipv4.ip packetDropForwardingDisabled:vector(packetBytes):sum 0
scalar Layered80211.host[1].ipv4.ip packetDropForwardingDisabled:vector(packetBytes):sumweights 0
scalar Layered80211.host[1].ipv4.ip packetDropForwardingDisabled:vector(packetBytes):mean -nan
scalar Layered80211.host[1].ipv4.ip packetDropForwardingDisabled:vector(packetBytes):stddev nan
scalar Layered80211.host[1].ipv4.ip packetDropForwardingDisabled:vector(packetBytes):min inf
scalar Layered80211.host[1].ipv4.ip packetDropForwardingDisabled:vector(packetBytes):max -inf
scalar Layered80211.host[1].ipv4.ip packetDropForwardingDisabled:vector(packetBytes):starttime nan
scalar Layered80211.host[1].ipv4.ip packetDropForwardingDisabled:vector(packetBytes):endtime nan
scalar Layered80211.host[1].ipv4.ip packetDropLifetimeExpired:vector(packetBytes):count 0
scalar Layered80211.host[1].ipv4.ip packetDropLifetimeExpired:vector(packetBytes):sum 0
scalar Layered80211.host[1].ipv4.ip packetDropLifetimeExpired:vector(packetBytes):sumweights 0
scalar Layered80211.host[1].ipv4.ip packetDropLifetimeExpired:vector(packetBytes):mean -nan
scalar Layered80211.host[1].ipv4.ip packetDropLifetimeExpired:vector(packetBytes):stddev nan
scalar Layered80211.host[1].ipv4.ip packetDropLifetimeExpired:vector(packetBytes):min inf
scalar Layered80211.host[1].ipv4.ip packetDropLifetimeExpired:vector(packetBytes):max -inf
scalar Layered80211.host[1].ipv4.ip packetDropLifetimeExpired:vector(packetBytes):starttime nan
scalar Layered80211.host[1].ipv4.ip packetDropLifetimeExpired:vector(packetBytes):endtime nan
scalar Layered80211.host[1].ipv4.ip packetDropNoInterfaceFound:vector(packetBytes):count 0
scalar Layered80211.host[1].ipv4.ip packetDropNoInterfaceFound:vector(packetBytes):sum 0
scalar Layered80211.host[1].ipv4.ip packetDropNoInterfaceFound:vector(packetBytes):sumweights 0
scalar Layered80211.host[1].ipv4.ip packetDropNoInterfaceFound:vector(packetBytes):mean -nan
scalar Layered80211.host[1].ipv4.ip packetDropNoInterfaceFound:vector(packetBytes):stddev nan
scalar Layered80211.host[1].ipv4.ip packetDropNoInterfaceFound:vector(packetBytes):min inf
scalar Layered80211.host[1].ipv4.ip packetDropNoInterfaceFound:vector(packetBytes):max -inf
scalar Layered80211.host[1].ipv4.ip packetDropNoInterfaceFound:vector(packetBytes):starttime nan
scalar Layered80211.host[1].ipv4.ip packetDropNoInterfaceFound:vector(packetBytes):endtime nan
scalar Layered80211.host[1].ipv4.ip packetDropNoRouteFound:vector(packetBytes):count 0
scalar Layered80211.host[1].ipv4.ip packetDropNoRouteFound:vector(packetBytes):sum 0
scalar Layered80211.host[1].ipv4.ip packetDropNoRouteFound:vector(packetBytes):sumweights 0
scalar Layered80211.host[1].ipv4.ip packetDropNoRouteFound:vector(packetBytes):mean -nan
scalar Layered80211.host[1].ipv4.ip packetDropNoRouteFound:vector(packetBytes):stddev nan
scalar Layered80211.host[1].ipv4.ip packetDropNoRouteFound:vector(packetBytes):min inf
scalar Layered80211.host[1].ipv4.ip packetDropNoRouteFound:vector(packetBytes):max -inf
scalar Layered80211.host[1].ipv4.ip packetDropNoRouteFound:vector(packetBytes):starttime nan
scalar Layered80211.host[1].ipv4.ip packetDropNoRouteFound:vector(packetBytes):endtime nan
scalar Layered80211.host[1].ipv4.ip packetDropUndefined:vector(packetBytes):count 0
scalar Layered80211.host[1].ipv4.ip packetDropUndefined:vector(packetBytes):sum 0
scalar Layered80211.host[1].ipv4.ip packetDropUndefined:vector(packetBytes):sumweights 0
scalar Layered80211.host[1].ipv4.ip packetDropUndefined:vector(packetBytes):mean -nan
scalar Layered80211.host[1].ipv4.ip packetDropUndefined:vector(packetBytes):stddev nan
scalar Layered80211.host[1].ipv4.ip packetDropUndefined:vector(packetBytes):min inf
scalar Layered80211.host[1].ipv4.ip packetDropUndefined:vector(packetBytes):max -inf
scalar Layered80211.host[1].ipv4.ip packetDropUndefined:vector(packetBytes):starttime nan
scalar Layered80211.host[1].ipv4.ip packetDropUndefined:vector(packetBytes):endtime nan
scalar Layered80211.host[1].udp packetSent:vector(packetBytes):count 0
scalar Layered80211.host[1].udp packetSent:vector(packetBytes):sum 0
scalar Layered80211.host[1].udp packetSent:vector(packetBytes):sumweights 0
scalar Layered80211.host[1].udp packetSent:vector(packetBytes):mean -nan
scalar Layered80211.host[1].udp packetSent:vector(packetBytes):stddev nan
scalar Layered80211.host[1].udp packetSent:vector(packetBytes):min inf
scalar Layered80211.host[1].udp packetSent:vector(packetBytes):max -inf
scalar Layered80211.host[1].udp packetSent:vector(packetBytes):starttime nan
scalar Layered80211.host[1].udp packetSent:vector(packetBytes):endtime nan
scalar Layered80211.host[1].udp outgoingDataRate:vector:count 0
scalar Layered80211.host[1].udp outgoingDataRate:vector:sum 0
scalar Layered80211.host[1].udp outgoingDataRate:vector:sumweights 0
scalar Layered80211.host[1].udp outgoingDataRate:vector:mean -nan
scalar Layered80211.host[1].udp outgoingDataRate:vector:stddev nan
scalar Layered80211.host[1].udp outgoingDataRate:vector:min inf
scalar Layered80211.host[1].udp outgoingDataRate:vector:max -inf
scalar Layered80211.host[1].udp outgoingDataRate:vector:starttime nan
scalar Layered80211.host[1].udp outgoingDataRate:vector:endtime nan
scalar Layered80211.host[1].udp packetReceived:vector(packetBytes):count 0
scalar Layered80211.host[1].udp packetReceived:vector(packetBytes):sum 0
scalar Layered80211.host[1].udp packetReceived:vector(packetBytes):sumweights 0
scalar Layered80211.host[1].udp packetReceived:vector(packetBytes):mean -nan
scalar Layered80211.host[1].udp packetReceived:vector(packetBytes):stddev nan
scalar Layered80211.host[1].udp packetReceived:vector(packetBytes):min inf
scalar Layered80211.host[1].udp packetReceived:vector(packetBytes):max -inf
scalar Layered80211.host[1].udp packetReceived:vector(packetBytes):starttime nan
scalar Layered80211.host[1].udp packetReceived:vector(packetBytes):endtime nan
scalar Layered80211.host[1].udp passedUpPk:vector(count):count 0
scalar Layered80211.host[1].udp passedUpPk:vector(count):sum 0
scalar Layered80211.host[1].udp passedUpPk:vector(count):sumweights 0
scalar Layered80211.host[1].udp passedUpPk:vector(count):mean -nan
scalar Layered80211.host[1].udp passedUpPk:vector(count):stddev nan
scalar Layered80211.host[1].udp passedUpPk:vector(count):min inf
scalar Layered80211.host[1].udp passedUpPk:vector(count):max -inf
scalar Layered80211.host[1].udp passedUpPk:vector(count):starttime nan
scalar Layered80211.host[1].udp passedUpPk:vector(count):endtime nan
scalar Layered80211.host[1].udp droppedPkWrongPort:vector(count):count 0
scalar Layered80211.host[1].udp droppedPkWrongPort:vector(count):sum 0
scalar Layered80211.host[1].udp droppedPkWrongPort:vector(count):sumweights 0
scalar Layered80211.host[1].udp droppedPkWrongPort:vector(count):mean -nan
scalar Layered80211.host[1].udp droppedPkWrongPort:vector(count):stddev nan
scalar Layered80211.host[1].udp droppedPkWrongPort:vector(count):min inf
scalar Layered80211.host[1].udp droppedPkWrongPort:vector(count):max -inf
scalar Layered80211.host[1].udp droppedPkWrongPort:vector(count):starttime nan
scalar Layered80211.host[1].udp droppedPkWrongPort:vector(count):endtime nan
scalar Layered80211.host[1].udp droppedPkBadChecksum:vector(count):count 0
scalar Layered80211.host[1].udp droppedPkBadChecksum:vector(count):sum 0
scalar Layered80211.host[1].udp droppedPkBadChecksum:vector(count):sumweights 0
scalar Layered80211.host[1].udp droppedPkBadChecksum:vector(count):mean -nan
scalar Layered80211.host[1].udp droppedPkBadChecksum:vector(count):stddev nan
scalar Layered80211.host[1].udp droppedPkBadChecksum:vector(count):min inf
scalar Layered80211.host[1].udp droppedPkBadChecksum:vector(count):max -inf
scalar Layered80211.host[1].udp droppedPkBadChecksum:vector(count):starttime nan
scalar Layered80211.host[1].udp droppedPkBadChecksum:vector(count):endtime nan
scalar Layered80211.host[1].app[0] rtt:vector:count 0
scalar Layered80211.host[1].app[0] rtt:vector:sum 0
scalar Layered80211.host[1].app[0] rtt:vector:sumweights 0
scalar Layered80211.host[1].app[0] rtt:vector:mean -nan
scalar Layered80211.host[1].app[0] rtt:vector:stddev nan
scalar Layered80211.host[1].app[0] rtt:vector:min inf
scalar Layered80211.host[1].app[0] rtt:vector:max -inf
scalar Layered80211.host[1].app[0] rtt:vector:starttime nan
scalar Layered80211.host[1].app[0] rtt:vector:endtime nan
scalar Layered80211.host[1].app[0] numLost:vector:count 0
scalar Layered80211.host[1].app[0] numLost:vector:sum 0
scalar Layered80211.host[1].app[0] numLost:vector:sumweights 0
scalar Layered80211.host[1].app[0] numLost:vector:mean -nan
scalar Layered80211.host[1].app[0] numLost:vector:stddev nan
scalar Layered80211.host[1].app[0] numLost:vector:min inf
scalar Layered80211.host[1].app[0] numLost:vector:max -inf
scalar Layered80211.host[1].app[0] numLost:vector:starttime nan
scalar Layered80211.host[1].app[0] numLost:vector:endtime nan
scalar Layered80211.host[1].app[0] numOutOfOrderArrivals:vector:count 0
scalar Layered80211.host[1].app[0] numOutOfOrderArrivals:vector:sum 0
scalar Layered80211.host[1].app[0] numOutOfOrderArrivals:vector:sumweights 0
scalar Layered80211.host[1].app[0] numOutOfOrderArrivals:vector:mean -nan
scalar Layered80211.host[1].app[0] numOutOfOrderArrivals:vector:stddev nan
scalar Layered80211.host[1].app[0] numOutOfOrderArrivals:vector:min inf
scalar Layered80211.host[1].app[0] numOutOfOrderArrivals:vector:max -inf
scalar Layered80211.host[1].app[0] numOutOfOrderArrivals:vector:starttime nan
scalar Layered80211.host[1].app[0] numOutOfOrderArrivals:vector:endtime nan
scalar Layered80211.host[1].app[0] pingTxSeq:vector:count 0
scalar Layered80211.host[1].app[0] pingTxSeq:vector:sum 0
scalar Layered80211.host[1].app[0] pingTxSeq:vector:sumweights 0
scalar Layered80211.host[1].app[0] pingTxSeq:vector:mean -nan
scalar Layered80211.host[1].app[0] pingTxSeq:vector:stddev nan
scalar Layered80211.host[1].app[0] pingTxSeq:vector:min inf
scalar Layered80211.host[1].app[0] pingTxSeq:vector:max -inf
scalar Layered80211.host[1].app[0] pingTxSeq:vector:starttime nan
scalar Layered80211.host[1].app[0] pingTxSeq:vector:endtime nan
scalar Layered80211.host[1].app[0] pingRxSeq:vector:count 0
scalar Layered80211.host[1].app[0] pingRxSeq:vector:sum 0
scalar Layered80211.host[1].app[0] pingRxSeq:vector:sumweights 0
scalar Layered80211.host[1].app[0] pingRxSeq:vector:mean -nan
scalar Layered80211.host[1].app[0] pingRxSeq:vector:stddev nan
scalar Layered80211.host[1].app[0] pingRxSeq:vector:min inf
scalar Layered80211.host[1].app[0] pingRxSeq:vector:max -inf
scalar Layered80211.host[1].app[0] pingRxSeq:vector:starttime nan
scalar Layered80211.host[1].app[0] pingRxSeq:vector:endtime nan

