version 3
run StandardEthernet-0-20250108-11:33:38-13488
attr configname StandardEthernet
attr datetime 20250108-11:33:38
attr datetimef 20250108-113338
attr experiment StandardEthernet
attr inifile omnetpp.ini
attr iterationvars "$brokenComponent=\"none\""
attr iterationvarsd brokenComponent=none
attr iterationvarsf brokenComponent=none-
attr measurement "$brokenComponent=\"none\""
attr network InVehicleNetworkShowcase
attr processid 13488
attr repetition 0
attr replication #0
attr resultdir results
attr runnumber 0
attr seedset 0
itervar brokenComponent "\"none\""
config **.param-recording false
config image-path /home/levy/workspace/inet/images
config output-scalar-file results/omnetpp.ini-StandardEthernet-#0.sca
config output-vector-file results/omnetpp.ini-StandardEthernet-#0.vec
config sim-time-limit 10ms
config description "Using only standard Ethernet features"
config *.*Switch.typename EthernetSwitch
config *.steering.typename StandardHost
config *.*Wheel.typename StandardHost
config *.lidar.typename StandardHost
config *.*Camera.typename StandardHost
config *.obu.typename StandardHost
config *.rearDisplay.typename StandardHost
config *.engineActuator.typename StandardHost
config *.hud.typename StandardHost
config *.masterClock.typename ""
config network InVehicleNetworkShowcase
config sim-time-limit 10ms
config description "Ethernet Time-Sensitive Networking (TSN) example with time synchronization, clock drift, time-aware shaping, Z3 SAT based gate scheduling, credit-based shaping, per-stream filtering and policying, stream redundancy, unicast and multicast streams, link failure protection, frame preemption, cut-through switching, etc."
config *.brokenComponent "\"none\""
config *.frontSwitch.ethg$o[3].channel.disabled "\"none\" == \"link\""
config *.frontLeftSwitch.ethg$o[0].channel.disabled "\"none\" == \"link\""
config *.frontLeftWheel.app[0].source.productionInterval "\"none\" == \"wheel\" ? 10us : 500us"
config *.frontLeftCamera.app[0].source.productionInterval "\"none\" == \"camera\" ? 10us : 125us"
config **.udp.defaultMulticastLoop false
config *.steering.numApps 1
config *.steering.app[0].typename UdpSourceApp
config *.steering.app[0].source.packetNameFormat "\"%M->engineActuator:CDT-%c\""
config *.steering.app[0].source.packetLength 175B
config *.steering.app[0].source.productionInterval 500us
config *.steering.app[0].io.destAddress "\"engineActuator\""
config *.steering.app[0].io.destPort 1000
config *.*Wheel.numApps 1
config *.*Wheel.app[0].typename UdpSourceApp
config *.*Wheel.app[0].source.packetNameFormat "\"%M->engineActuator:CDT-%c\""
config *.*Wheel.app[0].source.packetLength 175B
config *.*Wheel.app[0].source.productionInterval 500us
config *.*Wheel.app[0].io.destAddress "\"engineActuator\""
config *.frontLeftWheel.app[0].io.destPort 1001
config *.frontRightWheel.app[0].io.destPort 1002
config *.rearLeftWheel.app[0].io.destPort 1003
config *.rearRightWheel.app[0].io.destPort 1004
config *.lidar.numApps 1
config *.lidar.app[0].typename UdpSourceApp
config *.lidar.app[0].source.packetNameFormat "\"%M->hud:ClassA-%c\""
config *.lidar.app[0].source.packetLength 325B
config *.lidar.app[0].source.productionInterval 250us
config *.lidar.app[0].io.destAddress "\"hud\""
config *.lidar.app[0].io.destPort 1000
config *.*Camera.numApps 1
config *.*Camera.app[0].typename UdpSourceApp
config *.*Camera.app[0].source.packetNameFormat "\"%M->hud+obu:ClassA-%c\""
config *.*Camera.app[0].source.packetLength 325B
config *.*Camera.app[0].source.productionInterval 125us
config *.*Camera.app[0].io.destAddress "\"224.0.0.42\""
config *.frontLeftCamera.app[0].io.destPort 1001
config *.frontRightCamera.app[0].io.destPort 1002
config *.rearLeftCamera.app[0].io.destPort 1003
config *.rearRightCamera.app[0].io.destPort 1004
config *.obu.numApps 6
config *.obu.app[0].typename UdpSourceApp
config *.obu.app[0].display-name entertainment
config *.obu.app[0].source.packetNameFormat "\"%M->rearDisplay:ClassB-%c\""
config *.obu.app[0].source.packetLength 325B
config *.obu.app[0].source.productionInterval 250us
config *.obu.app[0].io.destAddress "\"rearDisplay\""
config *.obu.app[0].io.destPort 1000
config *.obu.app[1].typename UdpSourceApp
config *.obu.app[1].display-name navigation
config *.obu.app[1].source.packetNameFormat "\"%M->hud:BestEffort-%c\""
config *.obu.app[1].source.packetLength 325B
config *.obu.app[1].source.productionInterval 125us
config *.obu.app[1].io.destAddress "\"hud\""
config *.obu.app[1].io.destPort 1005
config *.obu.app[2].display-name "front left camera"
config *.obu.app[3].display-name "front right camera"
config *.obu.app[4].display-name "rear left camera"
config *.obu.app[5].display-name "rear right camera"
config *.obu.app[2..5].typename UdpSinkApp
config *.obu.app[2..5].io.multicastAddresses "[\"224.0.0.42\"]"
config *.obu.app[2].io.localPort 1001
config *.obu.app[3].io.localPort 1002
config *.obu.app[4].io.localPort 1003
config *.obu.app[5].io.localPort 1004
config *.rearDisplay.numApps 2
config *.rearDisplay.app[*].typename UdpSinkApp
config *.rearDisplay.app[0].display-name entertainment
config *.rearDisplay.app[1].display-name navigation
config *.rearDisplay.app[0].io.localPort 1000
config *.rearDisplay.app[1].io.localPort 1001
config *.engineActuator.numApps 5
config *.engineActuator.app[*].typename UdpSinkApp
config *.engineActuator.app[0].display-name steering
config *.engineActuator.app[1].display-name "front left wheel"
config *.engineActuator.app[2].display-name "front right wheel"
config *.engineActuator.app[3].display-name "rear left wheel"
config *.engineActuator.app[4].display-name "rear right wheel"
config *.engineActuator.app[0].io.localPort 1000
config *.engineActuator.app[1].io.localPort 1001
config *.engineActuator.app[2].io.localPort 1002
config *.engineActuator.app[3].io.localPort 1003
config *.engineActuator.app[4].io.localPort 1004
config *.hud.numApps 7
config *.hud.app[0].typename UdpSourceApp
config *.hud.app[0].display-name navigation
config *.hud.app[0].source.packetNameFormat "\"%M->rearDisplay:ClassB-%c\""
config *.hud.app[0].source.packetLength 325B
config *.hud.app[0].source.productionInterval 250us
config *.hud.app[0].io.destAddress "\"rearDisplay\""
config *.hud.app[0].io.destPort 1001
config *.hud.app[1].display-name lidar
config *.hud.app[2].display-name "front left camera"
config *.hud.app[3].display-name "front right camera"
config *.hud.app[4].display-name "rear left camera"
config *.hud.app[5].display-name "rear right camera"
config *.hud.app[6].display-name navigation
config *.hud.app[1..6].typename UdpSinkApp
config *.hud.app[2..5].io.multicastAddresses "[\"224.0.0.42\"]"
config *.hud.app[1].io.localPort 1000
config *.hud.app[2].io.localPort 1001
config *.hud.app[3].io.localPort 1002
config *.hud.app[4].io.localPort 1003
config *.hud.app[5].io.localPort 1004
config *.hud.app[6].io.localPort 1005
config *.frontSwitch.eth[0..4].bitrate 1Gbps
config *.frontLeftSwitch.eth[0..1].bitrate 1Gbps
config *.frontRightSwitch.eth[0..1].bitrate 1Gbps
config *.rearSwitch.eth[0..4].bitrate 1Gbps
config *.rearLeftSwitch.eth[0..1].bitrate 1Gbps
config *.rearRightSwitch.eth[0..1].bitrate 1Gbps
config *.hud.eth[0].bitrate 1Gbps
config *.obu.eth[0].bitrate 1Gbps
config *.*.eth[*].bitrate 100Mbps
config *.visualizer.typename IntegratedMultiCanvasVisualizer
config *.visualizer.dataLinkVisualizer[0].displayLinks true
config *.visualizer.dataLinkVisualizer[0].activityLevel "\"protocol\""
config *.visualizer.dataLinkVisualizer[0].packetFilter "\"*Camera*\""
config *.visualizer.dataLinkVisualizer[0].lineColor "\"blue4\""
config *.visualizer.dataLinkVisualizer[0].labelColor "\"blue4\""
config *.visualizer.numNetworkRouteVisualizers 4
config *.visualizer.networkRouteVisualizer[*].displayRoutes true
config *.visualizer.networkRouteVisualizer[0].packetFilter "\"*steering* or *Wheel*\""
config *.visualizer.networkRouteVisualizer[0].lineColor "\"red4\""
config *.visualizer.networkRouteVisualizer[1].packetFilter "\"*lidar*\""
config *.visualizer.networkRouteVisualizer[1].lineColor "\"blue4\""
config *.visualizer.networkRouteVisualizer[2].packetFilter "\"*rearDisplay*\""
config *.visualizer.networkRouteVisualizer[2].lineColor "\"green4\""
config *.visualizer.networkRouteVisualizer[3].packetFilter "\"*obu->hud*\""
config *.visualizer.networkRouteVisualizer[3].lineColor "\"gray\""

scalar InVehicleNetworkShowcase.frontSwitch.bridging "processed frames" 0
scalar InVehicleNetworkShowcase.frontSwitch.bridging "discarded frames" 160
scalar InVehicleNetworkShowcase.frontSwitch.bridging "number of received BPDUs from STP module" 0
scalar InVehicleNetworkShowcase.frontSwitch.bridging "number of received frames from network (including BPDUs)" 580
scalar InVehicleNetworkShowcase.frontSwitch.bridging "number of dropped frames (including BPDUs)" 160
scalar InVehicleNetworkShowcase.frontSwitch.bridging "number of delivered BPDUs to the STP module" 0
scalar InVehicleNetworkShowcase.frontSwitch.bridging "number of dispatched BPDU frames to the network" 0
scalar InVehicleNetworkShowcase.frontSwitch.bridging "number of dispatched non-BDPU frames to the network" 0
scalar InVehicleNetworkShowcase.frontSwitch.bridging packetDropped:count 160
scalar InVehicleNetworkShowcase.frontSwitch.bridging packetDropped:sum(packetBytes) 56480
scalar InVehicleNetworkShowcase.frontSwitch.ethernet pauseSent:count 0
scalar InVehicleNetworkShowcase.frontSwitch.ethernet pauseSent:sum 0
scalar InVehicleNetworkShowcase.frontSwitch.ethernet decapPk:count 580
scalar InVehicleNetworkShowcase.frontSwitch.ethernet decapPk:sum(packetBytes) 189740
scalar InVehicleNetworkShowcase.frontSwitch.ethernet encapPk:count 740
scalar InVehicleNetworkShowcase.frontSwitch.ethernet encapPk:sum(packetBytes) 246220
scalar InVehicleNetworkShowcase.frontSwitch.eth[0].queue queueLength:last 0
scalar InVehicleNetworkShowcase.frontSwitch.eth[0].queue queueLength:max 2
scalar InVehicleNetworkShowcase.frontSwitch.eth[0].queue queueLength:timeavg 0.076544
scalar InVehicleNetworkShowcase.frontSwitch.eth[0].queue queueBitLength:last 0
scalar InVehicleNetworkShowcase.frontSwitch.eth[0].queue queueBitLength:max 5936
scalar InVehicleNetworkShowcase.frontSwitch.eth[0].queue queueBitLength:timeavg 227.182592
scalar InVehicleNetworkShowcase.frontSwitch.eth[0].queue outgoingPackets:count 440
scalar InVehicleNetworkShowcase.frontSwitch.eth[0].queue outgoingPacketLengths:sum 1305920
scalar InVehicleNetworkShowcase.frontSwitch.eth[0].queue incomingPackets:count 440
scalar InVehicleNetworkShowcase.frontSwitch.eth[0].queue incomingPacketLengths:sum 1305920
scalar InVehicleNetworkShowcase.frontSwitch.eth[0].queue droppedPacketsQueueOverflow:count 0
scalar InVehicleNetworkShowcase.frontSwitch.eth[0].queue droppedPacketLengthsQueueOverflow:sum 0
scalar InVehicleNetworkShowcase.frontSwitch.eth[0].mac "simulated time" 0.01
scalar InVehicleNetworkShowcase.frontSwitch.eth[0].mac full-duplex 1
scalar InVehicleNetworkShowcase.frontSwitch.eth[0].mac "frames/sec sent" 44000
scalar InVehicleNetworkShowcase.frontSwitch.eth[0].mac "frames/sec rcvd" 4000
scalar InVehicleNetworkShowcase.frontSwitch.eth[0].mac "bits/sec sent" 130592000
scalar InVehicleNetworkShowcase.frontSwitch.eth[0].mac "bits/sec rcvd" 11872000
scalar InVehicleNetworkShowcase.frontSwitch.eth[0].mac "rx channel idle (%)" 98.7872
scalar InVehicleNetworkShowcase.frontSwitch.eth[0].mac "rx channel utilization (%)" 1.2128
scalar InVehicleNetworkShowcase.frontSwitch.eth[0].mac rxPausePkUnits:count 0
scalar InVehicleNetworkShowcase.frontSwitch.eth[0].mac rxPausePkUnits:sum 0
scalar InVehicleNetworkShowcase.frontSwitch.eth[0].mac txPausePkUnits:count 0
scalar InVehicleNetworkShowcase.frontSwitch.eth[0].mac txPausePkUnits:sum 0
scalar InVehicleNetworkShowcase.frontSwitch.eth[0].mac rxPkOk:count 40
scalar InVehicleNetworkShowcase.frontSwitch.eth[0].mac rxPkOk:sum(packetBytes) 14840
scalar InVehicleNetworkShowcase.frontSwitch.eth[0].mac txPk:count 440
scalar InVehicleNetworkShowcase.frontSwitch.eth[0].mac txPk:sum(packetBytes) 163240
scalar InVehicleNetworkShowcase.frontSwitch.eth[0].mac packetReceivedFromUpper:count 440
scalar InVehicleNetworkShowcase.frontSwitch.eth[0].mac packetReceivedFromUpper:sum(packetBytes) 163240
scalar InVehicleNetworkShowcase.frontSwitch.eth[0].mac passedUpPk:count 40
scalar InVehicleNetworkShowcase.frontSwitch.eth[0].mac passedUpPk:sum(packetBytes) 14840
scalar InVehicleNetworkShowcase.frontSwitch.eth[0].mac packetDropIncorrectlyReceived:count 0
scalar InVehicleNetworkShowcase.frontSwitch.eth[0].mac packetDropIncorrectlyReceived:sum(packetBytes) 0
scalar InVehicleNetworkShowcase.frontSwitch.eth[0].mac packetDropInterfaceDown:count 0
scalar InVehicleNetworkShowcase.frontSwitch.eth[0].mac packetDropInterfaceDown:sum(packetBytes) 0
scalar InVehicleNetworkShowcase.frontSwitch.eth[0].mac packetDropNotAddressedToUs:count 0
scalar InVehicleNetworkShowcase.frontSwitch.eth[0].mac packetDropNotAddressedToUs:sum(packetBytes) 0
scalar InVehicleNetworkShowcase.frontSwitch.eth[0] packetDropInterfaceDown:count 0
scalar InVehicleNetworkShowcase.frontSwitch.eth[0] packetDropInterfaceDown:sum(packetBytes) 0
scalar InVehicleNetworkShowcase.frontSwitch.eth[0] packetDropNoCarrier:count 0
scalar InVehicleNetworkShowcase.frontSwitch.eth[0] packetDropNoCarrier:sum(packetBytes) 0
scalar InVehicleNetworkShowcase.frontSwitch.eth[1].queue queueLength:last 0
scalar InVehicleNetworkShowcase.frontSwitch.eth[1].queue queueLength:max 1
scalar InVehicleNetworkShowcase.frontSwitch.eth[1].queue queueLength:timeavg 0.025024
scalar InVehicleNetworkShowcase.frontSwitch.eth[1].queue queueBitLength:last 0
scalar InVehicleNetworkShowcase.frontSwitch.eth[1].queue queueBitLength:max 2968
scalar InVehicleNetworkShowcase.frontSwitch.eth[1].queue queueBitLength:timeavg 74.271232
scalar InVehicleNetworkShowcase.frontSwitch.eth[1].queue outgoingPackets:count 200
scalar InVehicleNetworkShowcase.frontSwitch.eth[1].queue outgoingPacketLengths:sum 593600
scalar InVehicleNetworkShowcase.frontSwitch.eth[1].queue incomingPackets:count 200
scalar InVehicleNetworkShowcase.frontSwitch.eth[1].queue incomingPacketLengths:sum 593600
scalar InVehicleNetworkShowcase.frontSwitch.eth[1].queue droppedPacketsQueueOverflow:count 0
scalar InVehicleNetworkShowcase.frontSwitch.eth[1].queue droppedPacketLengthsQueueOverflow:sum 0
scalar InVehicleNetworkShowcase.frontSwitch.eth[1].mac "simulated time" 0.01
scalar InVehicleNetworkShowcase.frontSwitch.eth[1].mac full-duplex 1
scalar InVehicleNetworkShowcase.frontSwitch.eth[1].mac "frames/sec sent" 20000
scalar InVehicleNetworkShowcase.frontSwitch.eth[1].mac "frames/sec rcvd" 28000
scalar InVehicleNetworkShowcase.frontSwitch.eth[1].mac "bits/sec sent" 59360000
scalar InVehicleNetworkShowcase.frontSwitch.eth[1].mac "bits/sec rcvd" 78304000
scalar InVehicleNetworkShowcase.frontSwitch.eth[1].mac "rx channel idle (%)" 91.9904
scalar InVehicleNetworkShowcase.frontSwitch.eth[1].mac "rx channel utilization (%)" 8.0096
scalar InVehicleNetworkShowcase.frontSwitch.eth[1].mac rxPausePkUnits:count 0
scalar InVehicleNetworkShowcase.frontSwitch.eth[1].mac rxPausePkUnits:sum 0
scalar InVehicleNetworkShowcase.frontSwitch.eth[1].mac txPausePkUnits:count 0
scalar InVehicleNetworkShowcase.frontSwitch.eth[1].mac txPausePkUnits:sum 0
scalar InVehicleNetworkShowcase.frontSwitch.eth[1].mac rxPkOk:count 280
scalar InVehicleNetworkShowcase.frontSwitch.eth[1].mac rxPkOk:sum(packetBytes) 97880
scalar InVehicleNetworkShowcase.frontSwitch.eth[1].mac txPk:count 200
scalar InVehicleNetworkShowcase.frontSwitch.eth[1].mac txPk:sum(packetBytes) 74200
scalar InVehicleNetworkShowcase.frontSwitch.eth[1].mac packetReceivedFromUpper:count 200
scalar InVehicleNetworkShowcase.frontSwitch.eth[1].mac packetReceivedFromUpper:sum(packetBytes) 74200
scalar InVehicleNetworkShowcase.frontSwitch.eth[1].mac passedUpPk:count 280
scalar InVehicleNetworkShowcase.frontSwitch.eth[1].mac passedUpPk:sum(packetBytes) 97880
scalar InVehicleNetworkShowcase.frontSwitch.eth[1].mac packetDropIncorrectlyReceived:count 0
scalar InVehicleNetworkShowcase.frontSwitch.eth[1].mac packetDropIncorrectlyReceived:sum(packetBytes) 0
scalar InVehicleNetworkShowcase.frontSwitch.eth[1].mac packetDropInterfaceDown:count 0
scalar InVehicleNetworkShowcase.frontSwitch.eth[1].mac packetDropInterfaceDown:sum(packetBytes) 0
scalar InVehicleNetworkShowcase.frontSwitch.eth[1].mac packetDropNotAddressedToUs:count 0
scalar InVehicleNetworkShowcase.frontSwitch.eth[1].mac packetDropNotAddressedToUs:sum(packetBytes) 0
scalar InVehicleNetworkShowcase.frontSwitch.eth[1] packetDropInterfaceDown:count 0
scalar InVehicleNetworkShowcase.frontSwitch.eth[1] packetDropInterfaceDown:sum(packetBytes) 0
scalar InVehicleNetworkShowcase.frontSwitch.eth[1] packetDropNoCarrier:count 0
scalar InVehicleNetworkShowcase.frontSwitch.eth[1] packetDropNoCarrier:sum(packetBytes) 0
scalar InVehicleNetworkShowcase.frontSwitch.eth[2].queue queueLength:last 0
scalar InVehicleNetworkShowcase.frontSwitch.eth[2].queue queueLength:max 0
scalar InVehicleNetworkShowcase.frontSwitch.eth[2].queue queueLength:timeavg 0
scalar InVehicleNetworkShowcase.frontSwitch.eth[2].queue queueBitLength:last 0
scalar InVehicleNetworkShowcase.frontSwitch.eth[2].queue queueBitLength:max 0
scalar InVehicleNetworkShowcase.frontSwitch.eth[2].queue queueBitLength:timeavg 0
scalar InVehicleNetworkShowcase.frontSwitch.eth[2].queue outgoingPackets:count 0
scalar InVehicleNetworkShowcase.frontSwitch.eth[2].queue outgoingPacketLengths:sum 0
scalar InVehicleNetworkShowcase.frontSwitch.eth[2].queue incomingPackets:count 0
scalar InVehicleNetworkShowcase.frontSwitch.eth[2].queue incomingPacketLengths:sum 0
scalar InVehicleNetworkShowcase.frontSwitch.eth[2].queue droppedPacketsQueueOverflow:count 0
scalar InVehicleNetworkShowcase.frontSwitch.eth[2].queue droppedPacketLengthsQueueOverflow:sum 0
scalar InVehicleNetworkShowcase.frontSwitch.eth[2].mac "simulated time" 0.01
scalar InVehicleNetworkShowcase.frontSwitch.eth[2].mac full-duplex 1
scalar InVehicleNetworkShowcase.frontSwitch.eth[2].mac "frames/sec sent" 0
scalar InVehicleNetworkShowcase.frontSwitch.eth[2].mac "frames/sec rcvd" 0
scalar InVehicleNetworkShowcase.frontSwitch.eth[2].mac "bits/sec sent" 0
scalar InVehicleNetworkShowcase.frontSwitch.eth[2].mac "bits/sec rcvd" 0
scalar InVehicleNetworkShowcase.frontSwitch.eth[2].mac "rx channel idle (%)" 100
scalar InVehicleNetworkShowcase.frontSwitch.eth[2].mac "rx channel utilization (%)" 0
scalar InVehicleNetworkShowcase.frontSwitch.eth[2].mac rxPausePkUnits:count 0
scalar InVehicleNetworkShowcase.frontSwitch.eth[2].mac rxPausePkUnits:sum 0
scalar InVehicleNetworkShowcase.frontSwitch.eth[2].mac txPausePkUnits:count 0
scalar InVehicleNetworkShowcase.frontSwitch.eth[2].mac txPausePkUnits:sum 0
scalar InVehicleNetworkShowcase.frontSwitch.eth[2].mac rxPkOk:count 0
scalar InVehicleNetworkShowcase.frontSwitch.eth[2].mac rxPkOk:sum(packetBytes) 0
scalar InVehicleNetworkShowcase.frontSwitch.eth[2].mac txPk:count 0
scalar InVehicleNetworkShowcase.frontSwitch.eth[2].mac txPk:sum(packetBytes) 0
scalar InVehicleNetworkShowcase.frontSwitch.eth[2].mac packetReceivedFromUpper:count 0
scalar InVehicleNetworkShowcase.frontSwitch.eth[2].mac packetReceivedFromUpper:sum(packetBytes) 0
scalar InVehicleNetworkShowcase.frontSwitch.eth[2].mac passedUpPk:count 0
scalar InVehicleNetworkShowcase.frontSwitch.eth[2].mac passedUpPk:sum(packetBytes) 0
scalar InVehicleNetworkShowcase.frontSwitch.eth[2].mac packetDropIncorrectlyReceived:count 0
scalar InVehicleNetworkShowcase.frontSwitch.eth[2].mac packetDropIncorrectlyReceived:sum(packetBytes) 0
scalar InVehicleNetworkShowcase.frontSwitch.eth[2].mac packetDropInterfaceDown:count 0
scalar InVehicleNetworkShowcase.frontSwitch.eth[2].mac packetDropInterfaceDown:sum(packetBytes) 0
scalar InVehicleNetworkShowcase.frontSwitch.eth[2].mac packetDropNotAddressedToUs:count 0
scalar InVehicleNetworkShowcase.frontSwitch.eth[2].mac packetDropNotAddressedToUs:sum(packetBytes) 0
scalar InVehicleNetworkShowcase.frontSwitch.eth[2] packetDropInterfaceDown:count 0
scalar InVehicleNetworkShowcase.frontSwitch.eth[2] packetDropInterfaceDown:sum(packetBytes) 0
scalar InVehicleNetworkShowcase.frontSwitch.eth[2] packetDropNoCarrier:count 0
scalar InVehicleNetworkShowcase.frontSwitch.eth[2] packetDropNoCarrier:sum(packetBytes) 0
scalar InVehicleNetworkShowcase.frontSwitch.eth[3].queue queueLength:last 0
scalar InVehicleNetworkShowcase.frontSwitch.eth[3].queue queueLength:max 0
scalar InVehicleNetworkShowcase.frontSwitch.eth[3].queue queueLength:timeavg 0
scalar InVehicleNetworkShowcase.frontSwitch.eth[3].queue queueBitLength:last 0
scalar InVehicleNetworkShowcase.frontSwitch.eth[3].queue queueBitLength:max 0
scalar InVehicleNetworkShowcase.frontSwitch.eth[3].queue queueBitLength:timeavg 0
scalar InVehicleNetworkShowcase.frontSwitch.eth[3].queue outgoingPackets:count 0
scalar InVehicleNetworkShowcase.frontSwitch.eth[3].queue outgoingPacketLengths:sum 0
scalar InVehicleNetworkShowcase.frontSwitch.eth[3].queue incomingPackets:count 0
scalar InVehicleNetworkShowcase.frontSwitch.eth[3].queue incomingPacketLengths:sum 0
scalar InVehicleNetworkShowcase.frontSwitch.eth[3].queue droppedPacketsQueueOverflow:count 0
scalar InVehicleNetworkShowcase.frontSwitch.eth[3].queue droppedPacketLengthsQueueOverflow:sum 0
scalar InVehicleNetworkShowcase.frontSwitch.eth[3].mac "simulated time" 0.01
scalar InVehicleNetworkShowcase.frontSwitch.eth[3].mac full-duplex 1
scalar InVehicleNetworkShowcase.frontSwitch.eth[3].mac "frames/sec sent" 0
scalar InVehicleNetworkShowcase.frontSwitch.eth[3].mac "frames/sec rcvd" 10000
scalar InVehicleNetworkShowcase.frontSwitch.eth[3].mac "bits/sec sent" 0
scalar InVehicleNetworkShowcase.frontSwitch.eth[3].mac "bits/sec rcvd" 27280000
scalar InVehicleNetworkShowcase.frontSwitch.eth[3].mac "rx channel idle (%)" 97.208
scalar InVehicleNetworkShowcase.frontSwitch.eth[3].mac "rx channel utilization (%)" 2.792
scalar InVehicleNetworkShowcase.frontSwitch.eth[3].mac rxPausePkUnits:count 0
scalar InVehicleNetworkShowcase.frontSwitch.eth[3].mac rxPausePkUnits:sum 0
scalar InVehicleNetworkShowcase.frontSwitch.eth[3].mac txPausePkUnits:count 0
scalar InVehicleNetworkShowcase.frontSwitch.eth[3].mac txPausePkUnits:sum 0
scalar InVehicleNetworkShowcase.frontSwitch.eth[3].mac rxPkOk:count 100
scalar InVehicleNetworkShowcase.frontSwitch.eth[3].mac rxPkOk:sum(packetBytes) 34100
scalar InVehicleNetworkShowcase.frontSwitch.eth[3].mac txPk:count 0
scalar InVehicleNetworkShowcase.frontSwitch.eth[3].mac txPk:sum(packetBytes) 0
scalar InVehicleNetworkShowcase.frontSwitch.eth[3].mac packetReceivedFromUpper:count 0
scalar InVehicleNetworkShowcase.frontSwitch.eth[3].mac packetReceivedFromUpper:sum(packetBytes) 0
scalar InVehicleNetworkShowcase.frontSwitch.eth[3].mac passedUpPk:count 100
scalar InVehicleNetworkShowcase.frontSwitch.eth[3].mac passedUpPk:sum(packetBytes) 34100
scalar InVehicleNetworkShowcase.frontSwitch.eth[3].mac packetDropIncorrectlyReceived:count 0
scalar InVehicleNetworkShowcase.frontSwitch.eth[3].mac packetDropIncorrectlyReceived:sum(packetBytes) 0
scalar InVehicleNetworkShowcase.frontSwitch.eth[3].mac packetDropInterfaceDown:count 0
scalar InVehicleNetworkShowcase.frontSwitch.eth[3].mac packetDropInterfaceDown:sum(packetBytes) 0
scalar InVehicleNetworkShowcase.frontSwitch.eth[3].mac packetDropNotAddressedToUs:count 0
scalar InVehicleNetworkShowcase.frontSwitch.eth[3].mac packetDropNotAddressedToUs:sum(packetBytes) 0
scalar InVehicleNetworkShowcase.frontSwitch.eth[3] packetDropInterfaceDown:count 0
scalar InVehicleNetworkShowcase.frontSwitch.eth[3] packetDropInterfaceDown:sum(packetBytes) 0
scalar InVehicleNetworkShowcase.frontSwitch.eth[3] packetDropNoCarrier:count 0
scalar InVehicleNetworkShowcase.frontSwitch.eth[3] packetDropNoCarrier:sum(packetBytes) 0
scalar InVehicleNetworkShowcase.frontSwitch.eth[4].queue queueLength:last 0
scalar InVehicleNetworkShowcase.frontSwitch.eth[4].queue queueLength:max 0
scalar InVehicleNetworkShowcase.frontSwitch.eth[4].queue queueLength:timeavg 0
scalar InVehicleNetworkShowcase.frontSwitch.eth[4].queue queueBitLength:last 0
scalar InVehicleNetworkShowcase.frontSwitch.eth[4].queue queueBitLength:max 0
scalar InVehicleNetworkShowcase.frontSwitch.eth[4].queue queueBitLength:timeavg 0
scalar InVehicleNetworkShowcase.frontSwitch.eth[4].queue outgoingPackets:count 0
scalar InVehicleNetworkShowcase.frontSwitch.eth[4].queue outgoingPacketLengths:sum 0
scalar InVehicleNetworkShowcase.frontSwitch.eth[4].queue incomingPackets:count 0
scalar InVehicleNetworkShowcase.frontSwitch.eth[4].queue incomingPacketLengths:sum 0
scalar InVehicleNetworkShowcase.frontSwitch.eth[4].queue droppedPacketsQueueOverflow:count 0
scalar InVehicleNetworkShowcase.frontSwitch.eth[4].queue droppedPacketLengthsQueueOverflow:sum 0
scalar InVehicleNetworkShowcase.frontSwitch.eth[4].mac "simulated time" 0.01
scalar InVehicleNetworkShowcase.frontSwitch.eth[4].mac full-duplex 1
scalar InVehicleNetworkShowcase.frontSwitch.eth[4].mac "frames/sec sent" 0
scalar InVehicleNetworkShowcase.frontSwitch.eth[4].mac "frames/sec rcvd" 10000
scalar InVehicleNetworkShowcase.frontSwitch.eth[4].mac "bits/sec sent" 0
scalar InVehicleNetworkShowcase.frontSwitch.eth[4].mac "bits/sec rcvd" 27280000
scalar InVehicleNetworkShowcase.frontSwitch.eth[4].mac "rx channel idle (%)" 97.208
scalar InVehicleNetworkShowcase.frontSwitch.eth[4].mac "rx channel utilization (%)" 2.792
scalar InVehicleNetworkShowcase.frontSwitch.eth[4].mac rxPausePkUnits:count 0
scalar InVehicleNetworkShowcase.frontSwitch.eth[4].mac rxPausePkUnits:sum 0
scalar InVehicleNetworkShowcase.frontSwitch.eth[4].mac txPausePkUnits:count 0
scalar InVehicleNetworkShowcase.frontSwitch.eth[4].mac txPausePkUnits:sum 0
scalar InVehicleNetworkShowcase.frontSwitch.eth[4].mac rxPkOk:count 100
scalar InVehicleNetworkShowcase.frontSwitch.eth[4].mac rxPkOk:sum(packetBytes) 34100
scalar InVehicleNetworkShowcase.frontSwitch.eth[4].mac txPk:count 0
scalar InVehicleNetworkShowcase.frontSwitch.eth[4].mac txPk:sum(packetBytes) 0
scalar InVehicleNetworkShowcase.frontSwitch.eth[4].mac packetReceivedFromUpper:count 0
scalar InVehicleNetworkShowcase.frontSwitch.eth[4].mac packetReceivedFromUpper:sum(packetBytes) 0
scalar InVehicleNetworkShowcase.frontSwitch.eth[4].mac passedUpPk:count 100
scalar InVehicleNetworkShowcase.frontSwitch.eth[4].mac passedUpPk:sum(packetBytes) 34100
scalar InVehicleNetworkShowcase.frontSwitch.eth[4].mac packetDropIncorrectlyReceived:count 0
scalar InVehicleNetworkShowcase.frontSwitch.eth[4].mac packetDropIncorrectlyReceived:sum(packetBytes) 0
scalar InVehicleNetworkShowcase.frontSwitch.eth[4].mac packetDropInterfaceDown:count 0
scalar InVehicleNetworkShowcase.frontSwitch.eth[4].mac packetDropInterfaceDown:sum(packetBytes) 0
scalar InVehicleNetworkShowcase.frontSwitch.eth[4].mac packetDropNotAddressedToUs:count 0
scalar InVehicleNetworkShowcase.frontSwitch.eth[4].mac packetDropNotAddressedToUs:sum(packetBytes) 0
scalar InVehicleNetworkShowcase.frontSwitch.eth[4] packetDropInterfaceDown:count 0
scalar InVehicleNetworkShowcase.frontSwitch.eth[4] packetDropInterfaceDown:sum(packetBytes) 0
scalar InVehicleNetworkShowcase.frontSwitch.eth[4] packetDropNoCarrier:count 0
scalar InVehicleNetworkShowcase.frontSwitch.eth[4] packetDropNoCarrier:sum(packetBytes) 0
scalar InVehicleNetworkShowcase.frontSwitch.eth[5].queue queueLength:last 0
scalar InVehicleNetworkShowcase.frontSwitch.eth[5].queue queueLength:max 0
scalar InVehicleNetworkShowcase.frontSwitch.eth[5].queue queueLength:timeavg 0
scalar InVehicleNetworkShowcase.frontSwitch.eth[5].queue queueBitLength:last 0
scalar InVehicleNetworkShowcase.frontSwitch.eth[5].queue queueBitLength:max 0
scalar InVehicleNetworkShowcase.frontSwitch.eth[5].queue queueBitLength:timeavg 0
scalar InVehicleNetworkShowcase.frontSwitch.eth[5].queue outgoingPackets:count 0
scalar InVehicleNetworkShowcase.frontSwitch.eth[5].queue outgoingPacketLengths:sum 0
scalar InVehicleNetworkShowcase.frontSwitch.eth[5].queue incomingPackets:count 0
scalar InVehicleNetworkShowcase.frontSwitch.eth[5].queue incomingPacketLengths:sum 0
scalar InVehicleNetworkShowcase.frontSwitch.eth[5].queue droppedPacketsQueueOverflow:count 0
scalar InVehicleNetworkShowcase.frontSwitch.eth[5].queue droppedPacketLengthsQueueOverflow:sum 0
scalar InVehicleNetworkShowcase.frontSwitch.eth[5].mac "simulated time" 0.01
scalar InVehicleNetworkShowcase.frontSwitch.eth[5].mac full-duplex 1
scalar InVehicleNetworkShowcase.frontSwitch.eth[5].mac "frames/sec sent" 0
scalar InVehicleNetworkShowcase.frontSwitch.eth[5].mac "frames/sec rcvd" 4000
scalar InVehicleNetworkShowcase.frontSwitch.eth[5].mac "bits/sec sent" 0
scalar InVehicleNetworkShowcase.frontSwitch.eth[5].mac "bits/sec rcvd" 11872000
scalar InVehicleNetworkShowcase.frontSwitch.eth[5].mac "rx channel idle (%)" 87.872
scalar InVehicleNetworkShowcase.frontSwitch.eth[5].mac "rx channel utilization (%)" 12.128
scalar InVehicleNetworkShowcase.frontSwitch.eth[5].mac rxPausePkUnits:count 0
scalar InVehicleNetworkShowcase.frontSwitch.eth[5].mac rxPausePkUnits:sum 0
scalar InVehicleNetworkShowcase.frontSwitch.eth[5].mac txPausePkUnits:count 0
scalar InVehicleNetworkShowcase.frontSwitch.eth[5].mac txPausePkUnits:sum 0
scalar InVehicleNetworkShowcase.frontSwitch.eth[5].mac rxPkOk:count 40
scalar InVehicleNetworkShowcase.frontSwitch.eth[5].mac rxPkOk:sum(packetBytes) 14840
scalar InVehicleNetworkShowcase.frontSwitch.eth[5].mac txPk:count 0
scalar InVehicleNetworkShowcase.frontSwitch.eth[5].mac txPk:sum(packetBytes) 0
scalar InVehicleNetworkShowcase.frontSwitch.eth[5].mac packetReceivedFromUpper:count 0
scalar InVehicleNetworkShowcase.frontSwitch.eth[5].mac packetReceivedFromUpper:sum(packetBytes) 0
scalar InVehicleNetworkShowcase.frontSwitch.eth[5].mac passedUpPk:count 40
scalar InVehicleNetworkShowcase.frontSwitch.eth[5].mac passedUpPk:sum(packetBytes) 14840
scalar InVehicleNetworkShowcase.frontSwitch.eth[5].mac packetDropIncorrectlyReceived:count 0
scalar InVehicleNetworkShowcase.frontSwitch.eth[5].mac packetDropIncorrectlyReceived:sum(packetBytes) 0
scalar InVehicleNetworkShowcase.frontSwitch.eth[5].mac packetDropInterfaceDown:count 0
scalar InVehicleNetworkShowcase.frontSwitch.eth[5].mac packetDropInterfaceDown:sum(packetBytes) 0
scalar InVehicleNetworkShowcase.frontSwitch.eth[5].mac packetDropNotAddressedToUs:count 0
scalar InVehicleNetworkShowcase.frontSwitch.eth[5].mac packetDropNotAddressedToUs:sum(packetBytes) 0
scalar InVehicleNetworkShowcase.frontSwitch.eth[5] packetDropInterfaceDown:count 0
scalar InVehicleNetworkShowcase.frontSwitch.eth[5] packetDropInterfaceDown:sum(packetBytes) 0
scalar InVehicleNetworkShowcase.frontSwitch.eth[5] packetDropNoCarrier:count 0
scalar InVehicleNetworkShowcase.frontSwitch.eth[5] packetDropNoCarrier:sum(packetBytes) 0
scalar InVehicleNetworkShowcase.frontSwitch.eth[6].queue queueLength:last 0
scalar InVehicleNetworkShowcase.frontSwitch.eth[6].queue queueLength:max 0
scalar InVehicleNetworkShowcase.frontSwitch.eth[6].queue queueLength:timeavg 0
scalar InVehicleNetworkShowcase.frontSwitch.eth[6].queue queueBitLength:last 0
scalar InVehicleNetworkShowcase.frontSwitch.eth[6].queue queueBitLength:max 0
scalar InVehicleNetworkShowcase.frontSwitch.eth[6].queue queueBitLength:timeavg 0
scalar InVehicleNetworkShowcase.frontSwitch.eth[6].queue outgoingPackets:count 0
scalar InVehicleNetworkShowcase.frontSwitch.eth[6].queue outgoingPacketLengths:sum 0
scalar InVehicleNetworkShowcase.frontSwitch.eth[6].queue incomingPackets:count 0
scalar InVehicleNetworkShowcase.frontSwitch.eth[6].queue incomingPacketLengths:sum 0
scalar InVehicleNetworkShowcase.frontSwitch.eth[6].queue droppedPacketsQueueOverflow:count 0
scalar InVehicleNetworkShowcase.frontSwitch.eth[6].queue droppedPacketLengthsQueueOverflow:sum 0
scalar InVehicleNetworkShowcase.frontSwitch.eth[6].mac "simulated time" 0.01
scalar InVehicleNetworkShowcase.frontSwitch.eth[6].mac full-duplex 1
scalar InVehicleNetworkShowcase.frontSwitch.eth[6].mac "frames/sec sent" 0
scalar InVehicleNetworkShowcase.frontSwitch.eth[6].mac "frames/sec rcvd" 2000
scalar InVehicleNetworkShowcase.frontSwitch.eth[6].mac "bits/sec sent" 0
scalar InVehicleNetworkShowcase.frontSwitch.eth[6].mac "bits/sec rcvd" 3536000
scalar InVehicleNetworkShowcase.frontSwitch.eth[6].mac "rx channel idle (%)" 96.336
scalar InVehicleNetworkShowcase.frontSwitch.eth[6].mac "rx channel utilization (%)" 3.664
scalar InVehicleNetworkShowcase.frontSwitch.eth[6].mac rxPausePkUnits:count 0
scalar InVehicleNetworkShowcase.frontSwitch.eth[6].mac rxPausePkUnits:sum 0
scalar InVehicleNetworkShowcase.frontSwitch.eth[6].mac txPausePkUnits:count 0
scalar InVehicleNetworkShowcase.frontSwitch.eth[6].mac txPausePkUnits:sum 0
scalar InVehicleNetworkShowcase.frontSwitch.eth[6].mac rxPkOk:count 20
scalar InVehicleNetworkShowcase.frontSwitch.eth[6].mac rxPkOk:sum(packetBytes) 4420
scalar InVehicleNetworkShowcase.frontSwitch.eth[6].mac txPk:count 0
scalar InVehicleNetworkShowcase.frontSwitch.eth[6].mac txPk:sum(packetBytes) 0
scalar InVehicleNetworkShowcase.frontSwitch.eth[6].mac packetReceivedFromUpper:count 0
scalar InVehicleNetworkShowcase.frontSwitch.eth[6].mac packetReceivedFromUpper:sum(packetBytes) 0
scalar InVehicleNetworkShowcase.frontSwitch.eth[6].mac passedUpPk:count 20
scalar InVehicleNetworkShowcase.frontSwitch.eth[6].mac passedUpPk:sum(packetBytes) 4420
scalar InVehicleNetworkShowcase.frontSwitch.eth[6].mac packetDropIncorrectlyReceived:count 0
scalar InVehicleNetworkShowcase.frontSwitch.eth[6].mac packetDropIncorrectlyReceived:sum(packetBytes) 0
scalar InVehicleNetworkShowcase.frontSwitch.eth[6].mac packetDropInterfaceDown:count 0
scalar InVehicleNetworkShowcase.frontSwitch.eth[6].mac packetDropInterfaceDown:sum(packetBytes) 0
scalar InVehicleNetworkShowcase.frontSwitch.eth[6].mac packetDropNotAddressedToUs:count 0
scalar InVehicleNetworkShowcase.frontSwitch.eth[6].mac packetDropNotAddressedToUs:sum(packetBytes) 0
scalar InVehicleNetworkShowcase.frontSwitch.eth[6] packetDropInterfaceDown:count 0
scalar InVehicleNetworkShowcase.frontSwitch.eth[6] packetDropInterfaceDown:sum(packetBytes) 0
scalar InVehicleNetworkShowcase.frontSwitch.eth[6] packetDropNoCarrier:count 0
scalar InVehicleNetworkShowcase.frontSwitch.eth[6] packetDropNoCarrier:sum(packetBytes) 0
scalar InVehicleNetworkShowcase.frontSwitch.eth[7].queue queueLength:last 0
scalar InVehicleNetworkShowcase.frontSwitch.eth[7].queue queueLength:max 4
scalar InVehicleNetworkShowcase.frontSwitch.eth[7].queue queueLength:timeavg 0.35916
scalar InVehicleNetworkShowcase.frontSwitch.eth[7].queue queueBitLength:last 0
scalar InVehicleNetworkShowcase.frontSwitch.eth[7].queue queueBitLength:max 7072
scalar InVehicleNetworkShowcase.frontSwitch.eth[7].queue queueBitLength:timeavg 634.99488
scalar InVehicleNetworkShowcase.frontSwitch.eth[7].queue outgoingPackets:count 100
scalar InVehicleNetworkShowcase.frontSwitch.eth[7].queue outgoingPacketLengths:sum 176800
scalar InVehicleNetworkShowcase.frontSwitch.eth[7].queue incomingPackets:count 100
scalar InVehicleNetworkShowcase.frontSwitch.eth[7].queue incomingPacketLengths:sum 176800
scalar InVehicleNetworkShowcase.frontSwitch.eth[7].queue droppedPacketsQueueOverflow:count 0
scalar InVehicleNetworkShowcase.frontSwitch.eth[7].queue droppedPacketLengthsQueueOverflow:sum 0
scalar InVehicleNetworkShowcase.frontSwitch.eth[7].mac "simulated time" 0.01
scalar InVehicleNetworkShowcase.frontSwitch.eth[7].mac full-duplex 1
scalar InVehicleNetworkShowcase.frontSwitch.eth[7].mac "frames/sec sent" 10000
scalar InVehicleNetworkShowcase.frontSwitch.eth[7].mac "frames/sec rcvd" 0
scalar InVehicleNetworkShowcase.frontSwitch.eth[7].mac "bits/sec sent" 17680000
scalar InVehicleNetworkShowcase.frontSwitch.eth[7].mac "bits/sec rcvd" 0
scalar InVehicleNetworkShowcase.frontSwitch.eth[7].mac "rx channel idle (%)" 100
scalar InVehicleNetworkShowcase.frontSwitch.eth[7].mac "rx channel utilization (%)" 0
scalar InVehicleNetworkShowcase.frontSwitch.eth[7].mac rxPausePkUnits:count 0
scalar InVehicleNetworkShowcase.frontSwitch.eth[7].mac rxPausePkUnits:sum 0
scalar InVehicleNetworkShowcase.frontSwitch.eth[7].mac txPausePkUnits:count 0
scalar InVehicleNetworkShowcase.frontSwitch.eth[7].mac txPausePkUnits:sum 0
scalar InVehicleNetworkShowcase.frontSwitch.eth[7].mac rxPkOk:count 0
scalar InVehicleNetworkShowcase.frontSwitch.eth[7].mac rxPkOk:sum(packetBytes) 0
scalar InVehicleNetworkShowcase.frontSwitch.eth[7].mac txPk:count 100
scalar InVehicleNetworkShowcase.frontSwitch.eth[7].mac txPk:sum(packetBytes) 22100
scalar InVehicleNetworkShowcase.frontSwitch.eth[7].mac packetReceivedFromUpper:count 100
scalar InVehicleNetworkShowcase.frontSwitch.eth[7].mac packetReceivedFromUpper:sum(packetBytes) 22100
scalar InVehicleNetworkShowcase.frontSwitch.eth[7].mac passedUpPk:count 0
scalar InVehicleNetworkShowcase.frontSwitch.eth[7].mac passedUpPk:sum(packetBytes) 0
scalar InVehicleNetworkShowcase.frontSwitch.eth[7].mac packetDropIncorrectlyReceived:count 0
scalar InVehicleNetworkShowcase.frontSwitch.eth[7].mac packetDropIncorrectlyReceived:sum(packetBytes) 0
scalar InVehicleNetworkShowcase.frontSwitch.eth[7].mac packetDropInterfaceDown:count 0
scalar InVehicleNetworkShowcase.frontSwitch.eth[7].mac packetDropInterfaceDown:sum(packetBytes) 0
scalar InVehicleNetworkShowcase.frontSwitch.eth[7].mac packetDropNotAddressedToUs:count 0
scalar InVehicleNetworkShowcase.frontSwitch.eth[7].mac packetDropNotAddressedToUs:sum(packetBytes) 0
scalar InVehicleNetworkShowcase.frontSwitch.eth[7] packetDropInterfaceDown:count 0
scalar InVehicleNetworkShowcase.frontSwitch.eth[7] packetDropInterfaceDown:sum(packetBytes) 0
scalar InVehicleNetworkShowcase.frontSwitch.eth[7] packetDropNoCarrier:count 0
scalar InVehicleNetworkShowcase.frontSwitch.eth[7] packetDropNoCarrier:sum(packetBytes) 0
scalar InVehicleNetworkShowcase.frontLeftSwitch.bridging "processed frames" 0
scalar InVehicleNetworkShowcase.frontLeftSwitch.bridging "discarded frames" 0
scalar InVehicleNetworkShowcase.frontLeftSwitch.bridging "number of received BPDUs from STP module" 0
scalar InVehicleNetworkShowcase.frontLeftSwitch.bridging "number of received frames from network (including BPDUs)" 100
scalar InVehicleNetworkShowcase.frontLeftSwitch.bridging "number of dropped frames (including BPDUs)" 0
scalar InVehicleNetworkShowcase.frontLeftSwitch.bridging "number of delivered BPDUs to the STP module" 0
scalar InVehicleNetworkShowcase.frontLeftSwitch.bridging "number of dispatched BPDU frames to the network" 0
scalar InVehicleNetworkShowcase.frontLeftSwitch.bridging "number of dispatched non-BDPU frames to the network" 0
scalar InVehicleNetworkShowcase.frontLeftSwitch.bridging packetDropped:count 0
scalar InVehicleNetworkShowcase.frontLeftSwitch.bridging packetDropped:sum(packetBytes) 0
scalar InVehicleNetworkShowcase.frontLeftSwitch.ethernet pauseSent:count 0
scalar InVehicleNetworkShowcase.frontLeftSwitch.ethernet pauseSent:sum 0
scalar InVehicleNetworkShowcase.frontLeftSwitch.ethernet decapPk:count 100
scalar InVehicleNetworkShowcase.frontLeftSwitch.ethernet decapPk:sum(packetBytes) 32300
scalar InVehicleNetworkShowcase.frontLeftSwitch.ethernet encapPk:count 100
scalar InVehicleNetworkShowcase.frontLeftSwitch.ethernet encapPk:sum(packetBytes) 32300
scalar InVehicleNetworkShowcase.frontLeftSwitch.eth[0].queue queueLength:last 0
scalar InVehicleNetworkShowcase.frontLeftSwitch.eth[0].queue queueLength:max 0
scalar InVehicleNetworkShowcase.frontLeftSwitch.eth[0].queue queueLength:timeavg 0
scalar InVehicleNetworkShowcase.frontLeftSwitch.eth[0].queue queueBitLength:last 0
scalar InVehicleNetworkShowcase.frontLeftSwitch.eth[0].queue queueBitLength:max 0
scalar InVehicleNetworkShowcase.frontLeftSwitch.eth[0].queue queueBitLength:timeavg 0
scalar InVehicleNetworkShowcase.frontLeftSwitch.eth[0].queue outgoingPackets:count 100
scalar InVehicleNetworkShowcase.frontLeftSwitch.eth[0].queue outgoingPacketLengths:sum 272800
scalar InVehicleNetworkShowcase.frontLeftSwitch.eth[0].queue incomingPackets:count 100
scalar InVehicleNetworkShowcase.frontLeftSwitch.eth[0].queue incomingPacketLengths:sum 272800
scalar InVehicleNetworkShowcase.frontLeftSwitch.eth[0].queue droppedPacketsQueueOverflow:count 0
scalar InVehicleNetworkShowcase.frontLeftSwitch.eth[0].queue droppedPacketLengthsQueueOverflow:sum 0
scalar InVehicleNetworkShowcase.frontLeftSwitch.eth[0].mac "simulated time" 0.01
scalar InVehicleNetworkShowcase.frontLeftSwitch.eth[0].mac full-duplex 1
scalar InVehicleNetworkShowcase.frontLeftSwitch.eth[0].mac "frames/sec sent" 10000
scalar InVehicleNetworkShowcase.frontLeftSwitch.eth[0].mac "frames/sec rcvd" 0
scalar InVehicleNetworkShowcase.frontLeftSwitch.eth[0].mac "bits/sec sent" 27280000
scalar InVehicleNetworkShowcase.frontLeftSwitch.eth[0].mac "bits/sec rcvd" 0
scalar InVehicleNetworkShowcase.frontLeftSwitch.eth[0].mac "rx channel idle (%)" 100
scalar InVehicleNetworkShowcase.frontLeftSwitch.eth[0].mac "rx channel utilization (%)" 0
scalar InVehicleNetworkShowcase.frontLeftSwitch.eth[0].mac rxPausePkUnits:count 0
scalar InVehicleNetworkShowcase.frontLeftSwitch.eth[0].mac rxPausePkUnits:sum 0
scalar InVehicleNetworkShowcase.frontLeftSwitch.eth[0].mac txPausePkUnits:count 0
scalar InVehicleNetworkShowcase.frontLeftSwitch.eth[0].mac txPausePkUnits:sum 0
scalar InVehicleNetworkShowcase.frontLeftSwitch.eth[0].mac rxPkOk:count 0
scalar InVehicleNetworkShowcase.frontLeftSwitch.eth[0].mac rxPkOk:sum(packetBytes) 0
scalar InVehicleNetworkShowcase.frontLeftSwitch.eth[0].mac txPk:count 100
scalar InVehicleNetworkShowcase.frontLeftSwitch.eth[0].mac txPk:sum(packetBytes) 34100
scalar InVehicleNetworkShowcase.frontLeftSwitch.eth[0].mac packetReceivedFromUpper:count 100
scalar InVehicleNetworkShowcase.frontLeftSwitch.eth[0].mac packetReceivedFromUpper:sum(packetBytes) 34100
scalar InVehicleNetworkShowcase.frontLeftSwitch.eth[0].mac passedUpPk:count 0
scalar InVehicleNetworkShowcase.frontLeftSwitch.eth[0].mac passedUpPk:sum(packetBytes) 0
scalar InVehicleNetworkShowcase.frontLeftSwitch.eth[0].mac packetDropIncorrectlyReceived:count 0
scalar InVehicleNetworkShowcase.frontLeftSwitch.eth[0].mac packetDropIncorrectlyReceived:sum(packetBytes) 0
scalar InVehicleNetworkShowcase.frontLeftSwitch.eth[0].mac packetDropInterfaceDown:count 0
scalar InVehicleNetworkShowcase.frontLeftSwitch.eth[0].mac packetDropInterfaceDown:sum(packetBytes) 0
scalar InVehicleNetworkShowcase.frontLeftSwitch.eth[0].mac packetDropNotAddressedToUs:count 0
scalar InVehicleNetworkShowcase.frontLeftSwitch.eth[0].mac packetDropNotAddressedToUs:sum(packetBytes) 0
scalar InVehicleNetworkShowcase.frontLeftSwitch.eth[0] packetDropInterfaceDown:count 0
scalar InVehicleNetworkShowcase.frontLeftSwitch.eth[0] packetDropInterfaceDown:sum(packetBytes) 0
scalar InVehicleNetworkShowcase.frontLeftSwitch.eth[0] packetDropNoCarrier:count 0
scalar InVehicleNetworkShowcase.frontLeftSwitch.eth[0] packetDropNoCarrier:sum(packetBytes) 0
scalar InVehicleNetworkShowcase.frontLeftSwitch.eth[1].queue queueLength:last 0
scalar InVehicleNetworkShowcase.frontLeftSwitch.eth[1].queue queueLength:max 0
scalar InVehicleNetworkShowcase.frontLeftSwitch.eth[1].queue queueLength:timeavg 0
scalar InVehicleNetworkShowcase.frontLeftSwitch.eth[1].queue queueBitLength:last 0
scalar InVehicleNetworkShowcase.frontLeftSwitch.eth[1].queue queueBitLength:max 0
scalar InVehicleNetworkShowcase.frontLeftSwitch.eth[1].queue queueBitLength:timeavg 0
scalar InVehicleNetworkShowcase.frontLeftSwitch.eth[1].queue outgoingPackets:count 0
scalar InVehicleNetworkShowcase.frontLeftSwitch.eth[1].queue outgoingPacketLengths:sum 0
scalar InVehicleNetworkShowcase.frontLeftSwitch.eth[1].queue incomingPackets:count 0
scalar InVehicleNetworkShowcase.frontLeftSwitch.eth[1].queue incomingPacketLengths:sum 0
scalar InVehicleNetworkShowcase.frontLeftSwitch.eth[1].queue droppedPacketsQueueOverflow:count 0
scalar InVehicleNetworkShowcase.frontLeftSwitch.eth[1].queue droppedPacketLengthsQueueOverflow:sum 0
scalar InVehicleNetworkShowcase.frontLeftSwitch.eth[1].mac "simulated time" 0.01
scalar InVehicleNetworkShowcase.frontLeftSwitch.eth[1].mac full-duplex 1
scalar InVehicleNetworkShowcase.frontLeftSwitch.eth[1].mac "frames/sec sent" 0
scalar InVehicleNetworkShowcase.frontLeftSwitch.eth[1].mac "frames/sec rcvd" 0
scalar InVehicleNetworkShowcase.frontLeftSwitch.eth[1].mac "bits/sec sent" 0
scalar InVehicleNetworkShowcase.frontLeftSwitch.eth[1].mac "bits/sec rcvd" 0
scalar InVehicleNetworkShowcase.frontLeftSwitch.eth[1].mac "rx channel idle (%)" 100
scalar InVehicleNetworkShowcase.frontLeftSwitch.eth[1].mac "rx channel utilization (%)" 0
scalar InVehicleNetworkShowcase.frontLeftSwitch.eth[1].mac rxPausePkUnits:count 0
scalar InVehicleNetworkShowcase.frontLeftSwitch.eth[1].mac rxPausePkUnits:sum 0
scalar InVehicleNetworkShowcase.frontLeftSwitch.eth[1].mac txPausePkUnits:count 0
scalar InVehicleNetworkShowcase.frontLeftSwitch.eth[1].mac txPausePkUnits:sum 0
scalar InVehicleNetworkShowcase.frontLeftSwitch.eth[1].mac rxPkOk:count 0
scalar InVehicleNetworkShowcase.frontLeftSwitch.eth[1].mac rxPkOk:sum(packetBytes) 0
scalar InVehicleNetworkShowcase.frontLeftSwitch.eth[1].mac txPk:count 0
scalar InVehicleNetworkShowcase.frontLeftSwitch.eth[1].mac txPk:sum(packetBytes) 0
scalar InVehicleNetworkShowcase.frontLeftSwitch.eth[1].mac packetReceivedFromUpper:count 0
scalar InVehicleNetworkShowcase.frontLeftSwitch.eth[1].mac packetReceivedFromUpper:sum(packetBytes) 0
scalar InVehicleNetworkShowcase.frontLeftSwitch.eth[1].mac passedUpPk:count 0
scalar InVehicleNetworkShowcase.frontLeftSwitch.eth[1].mac passedUpPk:sum(packetBytes) 0
scalar InVehicleNetworkShowcase.frontLeftSwitch.eth[1].mac packetDropIncorrectlyReceived:count 0
scalar InVehicleNetworkShowcase.frontLeftSwitch.eth[1].mac packetDropIncorrectlyReceived:sum(packetBytes) 0
scalar InVehicleNetworkShowcase.frontLeftSwitch.eth[1].mac packetDropInterfaceDown:count 0
scalar InVehicleNetworkShowcase.frontLeftSwitch.eth[1].mac packetDropInterfaceDown:sum(packetBytes) 0
scalar InVehicleNetworkShowcase.frontLeftSwitch.eth[1].mac packetDropNotAddressedToUs:count 0
scalar InVehicleNetworkShowcase.frontLeftSwitch.eth[1].mac packetDropNotAddressedToUs:sum(packetBytes) 0
scalar InVehicleNetworkShowcase.frontLeftSwitch.eth[1] packetDropInterfaceDown:count 0
scalar InVehicleNetworkShowcase.frontLeftSwitch.eth[1] packetDropInterfaceDown:sum(packetBytes) 0
scalar InVehicleNetworkShowcase.frontLeftSwitch.eth[1] packetDropNoCarrier:count 0
scalar InVehicleNetworkShowcase.frontLeftSwitch.eth[1] packetDropNoCarrier:sum(packetBytes) 0
scalar InVehicleNetworkShowcase.frontLeftSwitch.eth[2].queue queueLength:last 0
scalar InVehicleNetworkShowcase.frontLeftSwitch.eth[2].queue queueLength:max 0
scalar InVehicleNetworkShowcase.frontLeftSwitch.eth[2].queue queueLength:timeavg 0
scalar InVehicleNetworkShowcase.frontLeftSwitch.eth[2].queue queueBitLength:last 0
scalar InVehicleNetworkShowcase.frontLeftSwitch.eth[2].queue queueBitLength:max 0
scalar InVehicleNetworkShowcase.frontLeftSwitch.eth[2].queue queueBitLength:timeavg 0
scalar InVehicleNetworkShowcase.frontLeftSwitch.eth[2].queue outgoingPackets:count 0
scalar InVehicleNetworkShowcase.frontLeftSwitch.eth[2].queue outgoingPacketLengths:sum 0
scalar InVehicleNetworkShowcase.frontLeftSwitch.eth[2].queue incomingPackets:count 0
scalar InVehicleNetworkShowcase.frontLeftSwitch.eth[2].queue incomingPacketLengths:sum 0
scalar InVehicleNetworkShowcase.frontLeftSwitch.eth[2].queue droppedPacketsQueueOverflow:count 0
scalar InVehicleNetworkShowcase.frontLeftSwitch.eth[2].queue droppedPacketLengthsQueueOverflow:sum 0
scalar InVehicleNetworkShowcase.frontLeftSwitch.eth[2].mac "simulated time" 0.01
scalar InVehicleNetworkShowcase.frontLeftSwitch.eth[2].mac full-duplex 1
scalar InVehicleNetworkShowcase.frontLeftSwitch.eth[2].mac "frames/sec sent" 0
scalar InVehicleNetworkShowcase.frontLeftSwitch.eth[2].mac "frames/sec rcvd" 2000
scalar InVehicleNetworkShowcase.frontLeftSwitch.eth[2].mac "bits/sec sent" 0
scalar InVehicleNetworkShowcase.frontLeftSwitch.eth[2].mac "bits/sec rcvd" 3536000
scalar InVehicleNetworkShowcase.frontLeftSwitch.eth[2].mac "rx channel idle (%)" 96.336
scalar InVehicleNetworkShowcase.frontLeftSwitch.eth[2].mac "rx channel utilization (%)" 3.664
scalar InVehicleNetworkShowcase.frontLeftSwitch.eth[2].mac rxPausePkUnits:count 0
scalar InVehicleNetworkShowcase.frontLeftSwitch.eth[2].mac rxPausePkUnits:sum 0
scalar InVehicleNetworkShowcase.frontLeftSwitch.eth[2].mac txPausePkUnits:count 0
scalar InVehicleNetworkShowcase.frontLeftSwitch.eth[2].mac txPausePkUnits:sum 0
scalar InVehicleNetworkShowcase.frontLeftSwitch.eth[2].mac rxPkOk:count 20
scalar InVehicleNetworkShowcase.frontLeftSwitch.eth[2].mac rxPkOk:sum(packetBytes) 4420
scalar InVehicleNetworkShowcase.frontLeftSwitch.eth[2].mac txPk:count 0
scalar InVehicleNetworkShowcase.frontLeftSwitch.eth[2].mac txPk:sum(packetBytes) 0
scalar InVehicleNetworkShowcase.frontLeftSwitch.eth[2].mac packetReceivedFromUpper:count 0
scalar InVehicleNetworkShowcase.frontLeftSwitch.eth[2].mac packetReceivedFromUpper:sum(packetBytes) 0
scalar InVehicleNetworkShowcase.frontLeftSwitch.eth[2].mac passedUpPk:count 20
scalar InVehicleNetworkShowcase.frontLeftSwitch.eth[2].mac passedUpPk:sum(packetBytes) 4420
scalar InVehicleNetworkShowcase.frontLeftSwitch.eth[2].mac packetDropIncorrectlyReceived:count 0
scalar InVehicleNetworkShowcase.frontLeftSwitch.eth[2].mac packetDropIncorrectlyReceived:sum(packetBytes) 0
scalar InVehicleNetworkShowcase.frontLeftSwitch.eth[2].mac packetDropInterfaceDown:count 0
scalar InVehicleNetworkShowcase.frontLeftSwitch.eth[2].mac packetDropInterfaceDown:sum(packetBytes) 0
scalar InVehicleNetworkShowcase.frontLeftSwitch.eth[2].mac packetDropNotAddressedToUs:count 0
scalar InVehicleNetworkShowcase.frontLeftSwitch.eth[2].mac packetDropNotAddressedToUs:sum(packetBytes) 0
scalar InVehicleNetworkShowcase.frontLeftSwitch.eth[2] packetDropInterfaceDown:count 0
scalar InVehicleNetworkShowcase.frontLeftSwitch.eth[2] packetDropInterfaceDown:sum(packetBytes) 0
scalar InVehicleNetworkShowcase.frontLeftSwitch.eth[2] packetDropNoCarrier:count 0
scalar InVehicleNetworkShowcase.frontLeftSwitch.eth[2] packetDropNoCarrier:sum(packetBytes) 0
scalar InVehicleNetworkShowcase.frontLeftSwitch.eth[3].queue queueLength:last 0
scalar InVehicleNetworkShowcase.frontLeftSwitch.eth[3].queue queueLength:max 0
scalar InVehicleNetworkShowcase.frontLeftSwitch.eth[3].queue queueLength:timeavg 0
scalar InVehicleNetworkShowcase.frontLeftSwitch.eth[3].queue queueBitLength:last 0
scalar InVehicleNetworkShowcase.frontLeftSwitch.eth[3].queue queueBitLength:max 0
scalar InVehicleNetworkShowcase.frontLeftSwitch.eth[3].queue queueBitLength:timeavg 0
scalar InVehicleNetworkShowcase.frontLeftSwitch.eth[3].queue outgoingPackets:count 0
scalar InVehicleNetworkShowcase.frontLeftSwitch.eth[3].queue outgoingPacketLengths:sum 0
scalar InVehicleNetworkShowcase.frontLeftSwitch.eth[3].queue incomingPackets:count 0
scalar InVehicleNetworkShowcase.frontLeftSwitch.eth[3].queue incomingPacketLengths:sum 0
scalar InVehicleNetworkShowcase.frontLeftSwitch.eth[3].queue droppedPacketsQueueOverflow:count 0
scalar InVehicleNetworkShowcase.frontLeftSwitch.eth[3].queue droppedPacketLengthsQueueOverflow:sum 0
scalar InVehicleNetworkShowcase.frontLeftSwitch.eth[3].mac "simulated time" 0.01
scalar InVehicleNetworkShowcase.frontLeftSwitch.eth[3].mac full-duplex 1
scalar InVehicleNetworkShowcase.frontLeftSwitch.eth[3].mac "frames/sec sent" 0
scalar InVehicleNetworkShowcase.frontLeftSwitch.eth[3].mac "frames/sec rcvd" 8000
scalar InVehicleNetworkShowcase.frontLeftSwitch.eth[3].mac "bits/sec sent" 0
scalar InVehicleNetworkShowcase.frontLeftSwitch.eth[3].mac "bits/sec rcvd" 23744000
scalar InVehicleNetworkShowcase.frontLeftSwitch.eth[3].mac "rx channel idle (%)" 75.744
scalar InVehicleNetworkShowcase.frontLeftSwitch.eth[3].mac "rx channel utilization (%)" 24.256
scalar InVehicleNetworkShowcase.frontLeftSwitch.eth[3].mac rxPausePkUnits:count 0
scalar InVehicleNetworkShowcase.frontLeftSwitch.eth[3].mac rxPausePkUnits:sum 0
scalar InVehicleNetworkShowcase.frontLeftSwitch.eth[3].mac txPausePkUnits:count 0
scalar InVehicleNetworkShowcase.frontLeftSwitch.eth[3].mac txPausePkUnits:sum 0
scalar InVehicleNetworkShowcase.frontLeftSwitch.eth[3].mac rxPkOk:count 80
scalar InVehicleNetworkShowcase.frontLeftSwitch.eth[3].mac rxPkOk:sum(packetBytes) 29680
scalar InVehicleNetworkShowcase.frontLeftSwitch.eth[3].mac txPk:count 0
scalar InVehicleNetworkShowcase.frontLeftSwitch.eth[3].mac txPk:sum(packetBytes) 0
scalar InVehicleNetworkShowcase.frontLeftSwitch.eth[3].mac packetReceivedFromUpper:count 0
scalar InVehicleNetworkShowcase.frontLeftSwitch.eth[3].mac packetReceivedFromUpper:sum(packetBytes) 0
scalar InVehicleNetworkShowcase.frontLeftSwitch.eth[3].mac passedUpPk:count 80
scalar InVehicleNetworkShowcase.frontLeftSwitch.eth[3].mac passedUpPk:sum(packetBytes) 29680
scalar InVehicleNetworkShowcase.frontLeftSwitch.eth[3].mac packetDropIncorrectlyReceived:count 0
scalar InVehicleNetworkShowcase.frontLeftSwitch.eth[3].mac packetDropIncorrectlyReceived:sum(packetBytes) 0
scalar InVehicleNetworkShowcase.frontLeftSwitch.eth[3].mac packetDropInterfaceDown:count 0
scalar InVehicleNetworkShowcase.frontLeftSwitch.eth[3].mac packetDropInterfaceDown:sum(packetBytes) 0
scalar InVehicleNetworkShowcase.frontLeftSwitch.eth[3].mac packetDropNotAddressedToUs:count 0
scalar InVehicleNetworkShowcase.frontLeftSwitch.eth[3].mac packetDropNotAddressedToUs:sum(packetBytes) 0
scalar InVehicleNetworkShowcase.frontLeftSwitch.eth[3] packetDropInterfaceDown:count 0
scalar InVehicleNetworkShowcase.frontLeftSwitch.eth[3] packetDropInterfaceDown:sum(packetBytes) 0
scalar InVehicleNetworkShowcase.frontLeftSwitch.eth[3] packetDropNoCarrier:count 0
scalar InVehicleNetworkShowcase.frontLeftSwitch.eth[3] packetDropNoCarrier:sum(packetBytes) 0
scalar InVehicleNetworkShowcase.frontRightSwitch.bridging "processed frames" 0
scalar InVehicleNetworkShowcase.frontRightSwitch.bridging "discarded frames" 0
scalar InVehicleNetworkShowcase.frontRightSwitch.bridging "number of received BPDUs from STP module" 0
scalar InVehicleNetworkShowcase.frontRightSwitch.bridging "number of received frames from network (including BPDUs)" 100
scalar InVehicleNetworkShowcase.frontRightSwitch.bridging "number of dropped frames (including BPDUs)" 0
scalar InVehicleNetworkShowcase.frontRightSwitch.bridging "number of delivered BPDUs to the STP module" 0
scalar InVehicleNetworkShowcase.frontRightSwitch.bridging "number of dispatched BPDU frames to the network" 0
scalar InVehicleNetworkShowcase.frontRightSwitch.bridging "number of dispatched non-BDPU frames to the network" 0
scalar InVehicleNetworkShowcase.frontRightSwitch.bridging packetDropped:count 0
scalar InVehicleNetworkShowcase.frontRightSwitch.bridging packetDropped:sum(packetBytes) 0
scalar InVehicleNetworkShowcase.frontRightSwitch.ethernet pauseSent:count 0
scalar InVehicleNetworkShowcase.frontRightSwitch.ethernet pauseSent:sum 0
scalar InVehicleNetworkShowcase.frontRightSwitch.ethernet decapPk:count 100
scalar InVehicleNetworkShowcase.frontRightSwitch.ethernet decapPk:sum(packetBytes) 32300
scalar InVehicleNetworkShowcase.frontRightSwitch.ethernet encapPk:count 100
scalar InVehicleNetworkShowcase.frontRightSwitch.ethernet encapPk:sum(packetBytes) 32300
scalar InVehicleNetworkShowcase.frontRightSwitch.eth[0].queue queueLength:last 0
scalar InVehicleNetworkShowcase.frontRightSwitch.eth[0].queue queueLength:max 0
scalar InVehicleNetworkShowcase.frontRightSwitch.eth[0].queue queueLength:timeavg 0
scalar InVehicleNetworkShowcase.frontRightSwitch.eth[0].queue queueBitLength:last 0
scalar InVehicleNetworkShowcase.frontRightSwitch.eth[0].queue queueBitLength:max 0
scalar InVehicleNetworkShowcase.frontRightSwitch.eth[0].queue queueBitLength:timeavg 0
scalar InVehicleNetworkShowcase.frontRightSwitch.eth[0].queue outgoingPackets:count 100
scalar InVehicleNetworkShowcase.frontRightSwitch.eth[0].queue outgoingPacketLengths:sum 272800
scalar InVehicleNetworkShowcase.frontRightSwitch.eth[0].queue incomingPackets:count 100
scalar InVehicleNetworkShowcase.frontRightSwitch.eth[0].queue incomingPacketLengths:sum 272800
scalar InVehicleNetworkShowcase.frontRightSwitch.eth[0].queue droppedPacketsQueueOverflow:count 0
scalar InVehicleNetworkShowcase.frontRightSwitch.eth[0].queue droppedPacketLengthsQueueOverflow:sum 0
scalar InVehicleNetworkShowcase.frontRightSwitch.eth[0].mac "simulated time" 0.01
scalar InVehicleNetworkShowcase.frontRightSwitch.eth[0].mac full-duplex 1
scalar InVehicleNetworkShowcase.frontRightSwitch.eth[0].mac "frames/sec sent" 10000
scalar InVehicleNetworkShowcase.frontRightSwitch.eth[0].mac "frames/sec rcvd" 0
scalar InVehicleNetworkShowcase.frontRightSwitch.eth[0].mac "bits/sec sent" 27280000
scalar InVehicleNetworkShowcase.frontRightSwitch.eth[0].mac "bits/sec rcvd" 0
scalar InVehicleNetworkShowcase.frontRightSwitch.eth[0].mac "rx channel idle (%)" 100
scalar InVehicleNetworkShowcase.frontRightSwitch.eth[0].mac "rx channel utilization (%)" 0
scalar InVehicleNetworkShowcase.frontRightSwitch.eth[0].mac rxPausePkUnits:count 0
scalar InVehicleNetworkShowcase.frontRightSwitch.eth[0].mac rxPausePkUnits:sum 0
scalar InVehicleNetworkShowcase.frontRightSwitch.eth[0].mac txPausePkUnits:count 0
scalar InVehicleNetworkShowcase.frontRightSwitch.eth[0].mac txPausePkUnits:sum 0
scalar InVehicleNetworkShowcase.frontRightSwitch.eth[0].mac rxPkOk:count 0
scalar InVehicleNetworkShowcase.frontRightSwitch.eth[0].mac rxPkOk:sum(packetBytes) 0
scalar InVehicleNetworkShowcase.frontRightSwitch.eth[0].mac txPk:count 100
scalar InVehicleNetworkShowcase.frontRightSwitch.eth[0].mac txPk:sum(packetBytes) 34100
scalar InVehicleNetworkShowcase.frontRightSwitch.eth[0].mac packetReceivedFromUpper:count 100
scalar InVehicleNetworkShowcase.frontRightSwitch.eth[0].mac packetReceivedFromUpper:sum(packetBytes) 34100
scalar InVehicleNetworkShowcase.frontRightSwitch.eth[0].mac passedUpPk:count 0
scalar InVehicleNetworkShowcase.frontRightSwitch.eth[0].mac passedUpPk:sum(packetBytes) 0
scalar InVehicleNetworkShowcase.frontRightSwitch.eth[0].mac packetDropIncorrectlyReceived:count 0
scalar InVehicleNetworkShowcase.frontRightSwitch.eth[0].mac packetDropIncorrectlyReceived:sum(packetBytes) 0
scalar InVehicleNetworkShowcase.frontRightSwitch.eth[0].mac packetDropInterfaceDown:count 0
scalar InVehicleNetworkShowcase.frontRightSwitch.eth[0].mac packetDropInterfaceDown:sum(packetBytes) 0
scalar InVehicleNetworkShowcase.frontRightSwitch.eth[0].mac packetDropNotAddressedToUs:count 0
scalar InVehicleNetworkShowcase.frontRightSwitch.eth[0].mac packetDropNotAddressedToUs:sum(packetBytes) 0
scalar InVehicleNetworkShowcase.frontRightSwitch.eth[0] packetDropInterfaceDown:count 0
scalar InVehicleNetworkShowcase.frontRightSwitch.eth[0] packetDropInterfaceDown:sum(packetBytes) 0
scalar InVehicleNetworkShowcase.frontRightSwitch.eth[0] packetDropNoCarrier:count 0
scalar InVehicleNetworkShowcase.frontRightSwitch.eth[0] packetDropNoCarrier:sum(packetBytes) 0
scalar InVehicleNetworkShowcase.frontRightSwitch.eth[1].queue queueLength:last 0
scalar InVehicleNetworkShowcase.frontRightSwitch.eth[1].queue queueLength:max 0
scalar InVehicleNetworkShowcase.frontRightSwitch.eth[1].queue queueLength:timeavg 0
scalar InVehicleNetworkShowcase.frontRightSwitch.eth[1].queue queueBitLength:last 0
scalar InVehicleNetworkShowcase.frontRightSwitch.eth[1].queue queueBitLength:max 0
scalar InVehicleNetworkShowcase.frontRightSwitch.eth[1].queue queueBitLength:timeavg 0
scalar InVehicleNetworkShowcase.frontRightSwitch.eth[1].queue outgoingPackets:count 0
scalar InVehicleNetworkShowcase.frontRightSwitch.eth[1].queue outgoingPacketLengths:sum 0
scalar InVehicleNetworkShowcase.frontRightSwitch.eth[1].queue incomingPackets:count 0
scalar InVehicleNetworkShowcase.frontRightSwitch.eth[1].queue incomingPacketLengths:sum 0
scalar InVehicleNetworkShowcase.frontRightSwitch.eth[1].queue droppedPacketsQueueOverflow:count 0
scalar InVehicleNetworkShowcase.frontRightSwitch.eth[1].queue droppedPacketLengthsQueueOverflow:sum 0
scalar InVehicleNetworkShowcase.frontRightSwitch.eth[1].mac "simulated time" 0.01
scalar InVehicleNetworkShowcase.frontRightSwitch.eth[1].mac full-duplex 1
scalar InVehicleNetworkShowcase.frontRightSwitch.eth[1].mac "frames/sec sent" 0
scalar InVehicleNetworkShowcase.frontRightSwitch.eth[1].mac "frames/sec rcvd" 0
scalar InVehicleNetworkShowcase.frontRightSwitch.eth[1].mac "bits/sec sent" 0
scalar InVehicleNetworkShowcase.frontRightSwitch.eth[1].mac "bits/sec rcvd" 0
scalar InVehicleNetworkShowcase.frontRightSwitch.eth[1].mac "rx channel idle (%)" 100
scalar InVehicleNetworkShowcase.frontRightSwitch.eth[1].mac "rx channel utilization (%)" 0
scalar InVehicleNetworkShowcase.frontRightSwitch.eth[1].mac rxPausePkUnits:count 0
scalar InVehicleNetworkShowcase.frontRightSwitch.eth[1].mac rxPausePkUnits:sum 0
scalar InVehicleNetworkShowcase.frontRightSwitch.eth[1].mac txPausePkUnits:count 0
scalar InVehicleNetworkShowcase.frontRightSwitch.eth[1].mac txPausePkUnits:sum 0
scalar InVehicleNetworkShowcase.frontRightSwitch.eth[1].mac rxPkOk:count 0
scalar InVehicleNetworkShowcase.frontRightSwitch.eth[1].mac rxPkOk:sum(packetBytes) 0
scalar InVehicleNetworkShowcase.frontRightSwitch.eth[1].mac txPk:count 0
scalar InVehicleNetworkShowcase.frontRightSwitch.eth[1].mac txPk:sum(packetBytes) 0
scalar InVehicleNetworkShowcase.frontRightSwitch.eth[1].mac packetReceivedFromUpper:count 0
scalar InVehicleNetworkShowcase.frontRightSwitch.eth[1].mac packetReceivedFromUpper:sum(packetBytes) 0
scalar InVehicleNetworkShowcase.frontRightSwitch.eth[1].mac passedUpPk:count 0
scalar InVehicleNetworkShowcase.frontRightSwitch.eth[1].mac passedUpPk:sum(packetBytes) 0
scalar InVehicleNetworkShowcase.frontRightSwitch.eth[1].mac packetDropIncorrectlyReceived:count 0
scalar InVehicleNetworkShowcase.frontRightSwitch.eth[1].mac packetDropIncorrectlyReceived:sum(packetBytes) 0
scalar InVehicleNetworkShowcase.frontRightSwitch.eth[1].mac packetDropInterfaceDown:count 0
scalar InVehicleNetworkShowcase.frontRightSwitch.eth[1].mac packetDropInterfaceDown:sum(packetBytes) 0
scalar InVehicleNetworkShowcase.frontRightSwitch.eth[1].mac packetDropNotAddressedToUs:count 0
scalar InVehicleNetworkShowcase.frontRightSwitch.eth[1].mac packetDropNotAddressedToUs:sum(packetBytes) 0
scalar InVehicleNetworkShowcase.frontRightSwitch.eth[1] packetDropInterfaceDown:count 0
scalar InVehicleNetworkShowcase.frontRightSwitch.eth[1] packetDropInterfaceDown:sum(packetBytes) 0
scalar InVehicleNetworkShowcase.frontRightSwitch.eth[1] packetDropNoCarrier:count 0
scalar InVehicleNetworkShowcase.frontRightSwitch.eth[1] packetDropNoCarrier:sum(packetBytes) 0
scalar InVehicleNetworkShowcase.frontRightSwitch.eth[2].queue queueLength:last 0
scalar InVehicleNetworkShowcase.frontRightSwitch.eth[2].queue queueLength:max 0
scalar InVehicleNetworkShowcase.frontRightSwitch.eth[2].queue queueLength:timeavg 0
scalar InVehicleNetworkShowcase.frontRightSwitch.eth[2].queue queueBitLength:last 0
scalar InVehicleNetworkShowcase.frontRightSwitch.eth[2].queue queueBitLength:max 0
scalar InVehicleNetworkShowcase.frontRightSwitch.eth[2].queue queueBitLength:timeavg 0
scalar InVehicleNetworkShowcase.frontRightSwitch.eth[2].queue outgoingPackets:count 0
scalar InVehicleNetworkShowcase.frontRightSwitch.eth[2].queue outgoingPacketLengths:sum 0
scalar InVehicleNetworkShowcase.frontRightSwitch.eth[2].queue incomingPackets:count 0
scalar InVehicleNetworkShowcase.frontRightSwitch.eth[2].queue incomingPacketLengths:sum 0
scalar InVehicleNetworkShowcase.frontRightSwitch.eth[2].queue droppedPacketsQueueOverflow:count 0
scalar InVehicleNetworkShowcase.frontRightSwitch.eth[2].queue droppedPacketLengthsQueueOverflow:sum 0
scalar InVehicleNetworkShowcase.frontRightSwitch.eth[2].mac "simulated time" 0.01
scalar InVehicleNetworkShowcase.frontRightSwitch.eth[2].mac full-duplex 1
scalar InVehicleNetworkShowcase.frontRightSwitch.eth[2].mac "frames/sec sent" 0
scalar InVehicleNetworkShowcase.frontRightSwitch.eth[2].mac "frames/sec rcvd" 2000
scalar InVehicleNetworkShowcase.frontRightSwitch.eth[2].mac "bits/sec sent" 0
scalar InVehicleNetworkShowcase.frontRightSwitch.eth[2].mac "bits/sec rcvd" 3536000
scalar InVehicleNetworkShowcase.frontRightSwitch.eth[2].mac "rx channel idle (%)" 96.336
scalar InVehicleNetworkShowcase.frontRightSwitch.eth[2].mac "rx channel utilization (%)" 3.664
scalar InVehicleNetworkShowcase.frontRightSwitch.eth[2].mac rxPausePkUnits:count 0
scalar InVehicleNetworkShowcase.frontRightSwitch.eth[2].mac rxPausePkUnits:sum 0
scalar InVehicleNetworkShowcase.frontRightSwitch.eth[2].mac txPausePkUnits:count 0
scalar InVehicleNetworkShowcase.frontRightSwitch.eth[2].mac txPausePkUnits:sum 0
scalar InVehicleNetworkShowcase.frontRightSwitch.eth[2].mac rxPkOk:count 20
scalar InVehicleNetworkShowcase.frontRightSwitch.eth[2].mac rxPkOk:sum(packetBytes) 4420
scalar InVehicleNetworkShowcase.frontRightSwitch.eth[2].mac txPk:count 0
scalar InVehicleNetworkShowcase.frontRightSwitch.eth[2].mac txPk:sum(packetBytes) 0
scalar InVehicleNetworkShowcase.frontRightSwitch.eth[2].mac packetReceivedFromUpper:count 0
scalar InVehicleNetworkShowcase.frontRightSwitch.eth[2].mac packetReceivedFromUpper:sum(packetBytes) 0
scalar InVehicleNetworkShowcase.frontRightSwitch.eth[2].mac passedUpPk:count 20
scalar InVehicleNetworkShowcase.frontRightSwitch.eth[2].mac passedUpPk:sum(packetBytes) 4420
scalar InVehicleNetworkShowcase.frontRightSwitch.eth[2].mac packetDropIncorrectlyReceived:count 0
scalar InVehicleNetworkShowcase.frontRightSwitch.eth[2].mac packetDropIncorrectlyReceived:sum(packetBytes) 0
scalar InVehicleNetworkShowcase.frontRightSwitch.eth[2].mac packetDropInterfaceDown:count 0
scalar InVehicleNetworkShowcase.frontRightSwitch.eth[2].mac packetDropInterfaceDown:sum(packetBytes) 0
scalar InVehicleNetworkShowcase.frontRightSwitch.eth[2].mac packetDropNotAddressedToUs:count 0
scalar InVehicleNetworkShowcase.frontRightSwitch.eth[2].mac packetDropNotAddressedToUs:sum(packetBytes) 0
scalar InVehicleNetworkShowcase.frontRightSwitch.eth[2] packetDropInterfaceDown:count 0
scalar InVehicleNetworkShowcase.frontRightSwitch.eth[2] packetDropInterfaceDown:sum(packetBytes) 0
scalar InVehicleNetworkShowcase.frontRightSwitch.eth[2] packetDropNoCarrier:count 0
scalar InVehicleNetworkShowcase.frontRightSwitch.eth[2] packetDropNoCarrier:sum(packetBytes) 0
scalar InVehicleNetworkShowcase.frontRightSwitch.eth[3].queue queueLength:last 0
scalar InVehicleNetworkShowcase.frontRightSwitch.eth[3].queue queueLength:max 0
scalar InVehicleNetworkShowcase.frontRightSwitch.eth[3].queue queueLength:timeavg 0
scalar InVehicleNetworkShowcase.frontRightSwitch.eth[3].queue queueBitLength:last 0
scalar InVehicleNetworkShowcase.frontRightSwitch.eth[3].queue queueBitLength:max 0
scalar InVehicleNetworkShowcase.frontRightSwitch.eth[3].queue queueBitLength:timeavg 0
scalar InVehicleNetworkShowcase.frontRightSwitch.eth[3].queue outgoingPackets:count 0
scalar InVehicleNetworkShowcase.frontRightSwitch.eth[3].queue outgoingPacketLengths:sum 0
scalar InVehicleNetworkShowcase.frontRightSwitch.eth[3].queue incomingPackets:count 0
scalar InVehicleNetworkShowcase.frontRightSwitch.eth[3].queue incomingPacketLengths:sum 0
scalar InVehicleNetworkShowcase.frontRightSwitch.eth[3].queue droppedPacketsQueueOverflow:count 0
scalar InVehicleNetworkShowcase.frontRightSwitch.eth[3].queue droppedPacketLengthsQueueOverflow:sum 0
scalar InVehicleNetworkShowcase.frontRightSwitch.eth[3].mac "simulated time" 0.01
scalar InVehicleNetworkShowcase.frontRightSwitch.eth[3].mac full-duplex 1
scalar InVehicleNetworkShowcase.frontRightSwitch.eth[3].mac "frames/sec sent" 0
scalar InVehicleNetworkShowcase.frontRightSwitch.eth[3].mac "frames/sec rcvd" 8000
scalar InVehicleNetworkShowcase.frontRightSwitch.eth[3].mac "bits/sec sent" 0
scalar InVehicleNetworkShowcase.frontRightSwitch.eth[3].mac "bits/sec rcvd" 23744000
scalar InVehicleNetworkShowcase.frontRightSwitch.eth[3].mac "rx channel idle (%)" 75.744
scalar InVehicleNetworkShowcase.frontRightSwitch.eth[3].mac "rx channel utilization (%)" 24.256
scalar InVehicleNetworkShowcase.frontRightSwitch.eth[3].mac rxPausePkUnits:count 0
scalar InVehicleNetworkShowcase.frontRightSwitch.eth[3].mac rxPausePkUnits:sum 0
scalar InVehicleNetworkShowcase.frontRightSwitch.eth[3].mac txPausePkUnits:count 0
scalar InVehicleNetworkShowcase.frontRightSwitch.eth[3].mac txPausePkUnits:sum 0
scalar InVehicleNetworkShowcase.frontRightSwitch.eth[3].mac rxPkOk:count 80
scalar InVehicleNetworkShowcase.frontRightSwitch.eth[3].mac rxPkOk:sum(packetBytes) 29680
scalar InVehicleNetworkShowcase.frontRightSwitch.eth[3].mac txPk:count 0
scalar InVehicleNetworkShowcase.frontRightSwitch.eth[3].mac txPk:sum(packetBytes) 0
scalar InVehicleNetworkShowcase.frontRightSwitch.eth[3].mac packetReceivedFromUpper:count 0
scalar InVehicleNetworkShowcase.frontRightSwitch.eth[3].mac packetReceivedFromUpper:sum(packetBytes) 0
scalar InVehicleNetworkShowcase.frontRightSwitch.eth[3].mac passedUpPk:count 80
scalar InVehicleNetworkShowcase.frontRightSwitch.eth[3].mac passedUpPk:sum(packetBytes) 29680
scalar InVehicleNetworkShowcase.frontRightSwitch.eth[3].mac packetDropIncorrectlyReceived:count 0
scalar InVehicleNetworkShowcase.frontRightSwitch.eth[3].mac packetDropIncorrectlyReceived:sum(packetBytes) 0
scalar InVehicleNetworkShowcase.frontRightSwitch.eth[3].mac packetDropInterfaceDown:count 0
scalar InVehicleNetworkShowcase.frontRightSwitch.eth[3].mac packetDropInterfaceDown:sum(packetBytes) 0
scalar InVehicleNetworkShowcase.frontRightSwitch.eth[3].mac packetDropNotAddressedToUs:count 0
scalar InVehicleNetworkShowcase.frontRightSwitch.eth[3].mac packetDropNotAddressedToUs:sum(packetBytes) 0
scalar InVehicleNetworkShowcase.frontRightSwitch.eth[3] packetDropInterfaceDown:count 0
scalar InVehicleNetworkShowcase.frontRightSwitch.eth[3] packetDropInterfaceDown:sum(packetBytes) 0
scalar InVehicleNetworkShowcase.frontRightSwitch.eth[3] packetDropNoCarrier:count 0
scalar InVehicleNetworkShowcase.frontRightSwitch.eth[3] packetDropNoCarrier:sum(packetBytes) 0
scalar InVehicleNetworkShowcase.rearSwitch.bridging "processed frames" 0
scalar InVehicleNetworkShowcase.rearSwitch.bridging "discarded frames" 160
scalar InVehicleNetworkShowcase.rearSwitch.bridging "number of received BPDUs from STP module" 0
scalar InVehicleNetworkShowcase.rearSwitch.bridging "number of received frames from network (including BPDUs)" 520
scalar InVehicleNetworkShowcase.rearSwitch.bridging "number of dropped frames (including BPDUs)" 160
scalar InVehicleNetworkShowcase.rearSwitch.bridging "number of delivered BPDUs to the STP module" 0
scalar InVehicleNetworkShowcase.rearSwitch.bridging "number of dispatched BPDU frames to the network" 0
scalar InVehicleNetworkShowcase.rearSwitch.bridging "number of dispatched non-BDPU frames to the network" 0
scalar InVehicleNetworkShowcase.rearSwitch.bridging packetDropped:count 160
scalar InVehicleNetworkShowcase.rearSwitch.bridging packetDropped:sum(packetBytes) 56480
scalar InVehicleNetworkShowcase.rearSwitch.ethernet pauseSent:count 0
scalar InVehicleNetworkShowcase.rearSwitch.ethernet pauseSent:sum 0
scalar InVehicleNetworkShowcase.rearSwitch.ethernet decapPk:count 520
scalar InVehicleNetworkShowcase.rearSwitch.ethernet decapPk:sum(packetBytes) 177560
scalar InVehicleNetworkShowcase.rearSwitch.ethernet encapPk:count 680
scalar InVehicleNetworkShowcase.rearSwitch.ethernet encapPk:sum(packetBytes) 234040
scalar InVehicleNetworkShowcase.rearSwitch.eth[0].queue queueLength:last 0
scalar InVehicleNetworkShowcase.rearSwitch.eth[0].queue queueLength:max 1
scalar InVehicleNetworkShowcase.rearSwitch.eth[0].queue queueLength:timeavg 0.02888
scalar InVehicleNetworkShowcase.rearSwitch.eth[0].queue queueBitLength:last 0
scalar InVehicleNetworkShowcase.rearSwitch.eth[0].queue queueBitLength:max 2968
scalar InVehicleNetworkShowcase.rearSwitch.eth[0].queue queueBitLength:timeavg 81.08864
scalar InVehicleNetworkShowcase.rearSwitch.eth[0].queue outgoingPackets:count 280
scalar InVehicleNetworkShowcase.rearSwitch.eth[0].queue outgoingPacketLengths:sum 783040
scalar InVehicleNetworkShowcase.rearSwitch.eth[0].queue incomingPackets:count 280
scalar InVehicleNetworkShowcase.rearSwitch.eth[0].queue incomingPacketLengths:sum 783040
scalar InVehicleNetworkShowcase.rearSwitch.eth[0].queue droppedPacketsQueueOverflow:count 0
scalar InVehicleNetworkShowcase.rearSwitch.eth[0].queue droppedPacketLengthsQueueOverflow:sum 0
scalar InVehicleNetworkShowcase.rearSwitch.eth[0].mac "simulated time" 0.01
scalar InVehicleNetworkShowcase.rearSwitch.eth[0].mac full-duplex 1
scalar InVehicleNetworkShowcase.rearSwitch.eth[0].mac "frames/sec sent" 28000
scalar InVehicleNetworkShowcase.rearSwitch.eth[0].mac "frames/sec rcvd" 20000
scalar InVehicleNetworkShowcase.rearSwitch.eth[0].mac "bits/sec sent" 78304000
scalar InVehicleNetworkShowcase.rearSwitch.eth[0].mac "bits/sec rcvd" 59360000
scalar InVehicleNetworkShowcase.rearSwitch.eth[0].mac "rx channel idle (%)" 93.936
scalar InVehicleNetworkShowcase.rearSwitch.eth[0].mac "rx channel utilization (%)" 6.064
scalar InVehicleNetworkShowcase.rearSwitch.eth[0].mac rxPausePkUnits:count 0
scalar InVehicleNetworkShowcase.rearSwitch.eth[0].mac rxPausePkUnits:sum 0
scalar InVehicleNetworkShowcase.rearSwitch.eth[0].mac txPausePkUnits:count 0
scalar InVehicleNetworkShowcase.rearSwitch.eth[0].mac txPausePkUnits:sum 0
scalar InVehicleNetworkShowcase.rearSwitch.eth[0].mac rxPkOk:count 200
scalar InVehicleNetworkShowcase.rearSwitch.eth[0].mac rxPkOk:sum(packetBytes) 74200
scalar InVehicleNetworkShowcase.rearSwitch.eth[0].mac txPk:count 280
scalar InVehicleNetworkShowcase.rearSwitch.eth[0].mac txPk:sum(packetBytes) 97880
scalar InVehicleNetworkShowcase.rearSwitch.eth[0].mac packetReceivedFromUpper:count 280
scalar InVehicleNetworkShowcase.rearSwitch.eth[0].mac packetReceivedFromUpper:sum(packetBytes) 97880
scalar InVehicleNetworkShowcase.rearSwitch.eth[0].mac passedUpPk:count 200
scalar InVehicleNetworkShowcase.rearSwitch.eth[0].mac passedUpPk:sum(packetBytes) 74200
scalar InVehicleNetworkShowcase.rearSwitch.eth[0].mac packetDropIncorrectlyReceived:count 0
scalar InVehicleNetworkShowcase.rearSwitch.eth[0].mac packetDropIncorrectlyReceived:sum(packetBytes) 0
scalar InVehicleNetworkShowcase.rearSwitch.eth[0].mac packetDropInterfaceDown:count 0
scalar InVehicleNetworkShowcase.rearSwitch.eth[0].mac packetDropInterfaceDown:sum(packetBytes) 0
scalar InVehicleNetworkShowcase.rearSwitch.eth[0].mac packetDropNotAddressedToUs:count 0
scalar InVehicleNetworkShowcase.rearSwitch.eth[0].mac packetDropNotAddressedToUs:sum(packetBytes) 0
scalar InVehicleNetworkShowcase.rearSwitch.eth[0] packetDropInterfaceDown:count 0
scalar InVehicleNetworkShowcase.rearSwitch.eth[0] packetDropInterfaceDown:sum(packetBytes) 0
scalar InVehicleNetworkShowcase.rearSwitch.eth[0] packetDropNoCarrier:count 0
scalar InVehicleNetworkShowcase.rearSwitch.eth[0] packetDropNoCarrier:sum(packetBytes) 0
scalar InVehicleNetworkShowcase.rearSwitch.eth[1].queue queueLength:last 0
scalar InVehicleNetworkShowcase.rearSwitch.eth[1].queue queueLength:max 0
scalar InVehicleNetworkShowcase.rearSwitch.eth[1].queue queueLength:timeavg 0
scalar InVehicleNetworkShowcase.rearSwitch.eth[1].queue queueBitLength:last 0
scalar InVehicleNetworkShowcase.rearSwitch.eth[1].queue queueBitLength:max 0
scalar InVehicleNetworkShowcase.rearSwitch.eth[1].queue queueBitLength:timeavg 0
scalar InVehicleNetworkShowcase.rearSwitch.eth[1].queue outgoingPackets:count 0
scalar InVehicleNetworkShowcase.rearSwitch.eth[1].queue outgoingPacketLengths:sum 0
scalar InVehicleNetworkShowcase.rearSwitch.eth[1].queue incomingPackets:count 0
scalar InVehicleNetworkShowcase.rearSwitch.eth[1].queue incomingPacketLengths:sum 0
scalar InVehicleNetworkShowcase.rearSwitch.eth[1].queue droppedPacketsQueueOverflow:count 0
scalar InVehicleNetworkShowcase.rearSwitch.eth[1].queue droppedPacketLengthsQueueOverflow:sum 0
scalar InVehicleNetworkShowcase.rearSwitch.eth[1].mac "simulated time" 0.01
scalar InVehicleNetworkShowcase.rearSwitch.eth[1].mac full-duplex 1
scalar InVehicleNetworkShowcase.rearSwitch.eth[1].mac "frames/sec sent" 0
scalar InVehicleNetworkShowcase.rearSwitch.eth[1].mac "frames/sec rcvd" 0
scalar InVehicleNetworkShowcase.rearSwitch.eth[1].mac "bits/sec sent" 0
scalar InVehicleNetworkShowcase.rearSwitch.eth[1].mac "bits/sec rcvd" 0
scalar InVehicleNetworkShowcase.rearSwitch.eth[1].mac "rx channel idle (%)" 100
scalar InVehicleNetworkShowcase.rearSwitch.eth[1].mac "rx channel utilization (%)" 0
scalar InVehicleNetworkShowcase.rearSwitch.eth[1].mac rxPausePkUnits:count 0
scalar InVehicleNetworkShowcase.rearSwitch.eth[1].mac rxPausePkUnits:sum 0
scalar InVehicleNetworkShowcase.rearSwitch.eth[1].mac txPausePkUnits:count 0
scalar InVehicleNetworkShowcase.rearSwitch.eth[1].mac txPausePkUnits:sum 0
scalar InVehicleNetworkShowcase.rearSwitch.eth[1].mac rxPkOk:count 0
scalar InVehicleNetworkShowcase.rearSwitch.eth[1].mac rxPkOk:sum(packetBytes) 0
scalar InVehicleNetworkShowcase.rearSwitch.eth[1].mac txPk:count 0
scalar InVehicleNetworkShowcase.rearSwitch.eth[1].mac txPk:sum(packetBytes) 0
scalar InVehicleNetworkShowcase.rearSwitch.eth[1].mac packetReceivedFromUpper:count 0
scalar InVehicleNetworkShowcase.rearSwitch.eth[1].mac packetReceivedFromUpper:sum(packetBytes) 0
scalar InVehicleNetworkShowcase.rearSwitch.eth[1].mac passedUpPk:count 0
scalar InVehicleNetworkShowcase.rearSwitch.eth[1].mac passedUpPk:sum(packetBytes) 0
scalar InVehicleNetworkShowcase.rearSwitch.eth[1].mac packetDropIncorrectlyReceived:count 0
scalar InVehicleNetworkShowcase.rearSwitch.eth[1].mac packetDropIncorrectlyReceived:sum(packetBytes) 0
scalar InVehicleNetworkShowcase.rearSwitch.eth[1].mac packetDropInterfaceDown:count 0
scalar InVehicleNetworkShowcase.rearSwitch.eth[1].mac packetDropInterfaceDown:sum(packetBytes) 0
scalar InVehicleNetworkShowcase.rearSwitch.eth[1].mac packetDropNotAddressedToUs:count 0
scalar InVehicleNetworkShowcase.rearSwitch.eth[1].mac packetDropNotAddressedToUs:sum(packetBytes) 0
scalar InVehicleNetworkShowcase.rearSwitch.eth[1] packetDropInterfaceDown:count 0
scalar InVehicleNetworkShowcase.rearSwitch.eth[1] packetDropInterfaceDown:sum(packetBytes) 0
scalar InVehicleNetworkShowcase.rearSwitch.eth[1] packetDropNoCarrier:count 0
scalar InVehicleNetworkShowcase.rearSwitch.eth[1] packetDropNoCarrier:sum(packetBytes) 0
scalar InVehicleNetworkShowcase.rearSwitch.eth[2].queue queueLength:last 0
scalar InVehicleNetworkShowcase.rearSwitch.eth[2].queue queueLength:max 0
scalar InVehicleNetworkShowcase.rearSwitch.eth[2].queue queueLength:timeavg 0
scalar InVehicleNetworkShowcase.rearSwitch.eth[2].queue queueBitLength:last 0
scalar InVehicleNetworkShowcase.rearSwitch.eth[2].queue queueBitLength:max 0
scalar InVehicleNetworkShowcase.rearSwitch.eth[2].queue queueBitLength:timeavg 0
scalar InVehicleNetworkShowcase.rearSwitch.eth[2].queue outgoingPackets:count 0
scalar InVehicleNetworkShowcase.rearSwitch.eth[2].queue outgoingPacketLengths:sum 0
scalar InVehicleNetworkShowcase.rearSwitch.eth[2].queue incomingPackets:count 0
scalar InVehicleNetworkShowcase.rearSwitch.eth[2].queue incomingPacketLengths:sum 0
scalar InVehicleNetworkShowcase.rearSwitch.eth[2].queue droppedPacketsQueueOverflow:count 0
scalar InVehicleNetworkShowcase.rearSwitch.eth[2].queue droppedPacketLengthsQueueOverflow:sum 0
scalar InVehicleNetworkShowcase.rearSwitch.eth[2].mac "simulated time" 0.01
scalar InVehicleNetworkShowcase.rearSwitch.eth[2].mac full-duplex 1
scalar InVehicleNetworkShowcase.rearSwitch.eth[2].mac "frames/sec sent" 0
scalar InVehicleNetworkShowcase.rearSwitch.eth[2].mac "frames/sec rcvd" 10000
scalar InVehicleNetworkShowcase.rearSwitch.eth[2].mac "bits/sec sent" 0
scalar InVehicleNetworkShowcase.rearSwitch.eth[2].mac "bits/sec rcvd" 27280000
[...]
scalar InVehicleNetworkShowcase.frontRightWheel.eth[0].mac packetReceivedFromUpper:vector(packetBytes):endtime 0.01
scalar InVehicleNetworkShowcase.frontRightWheel.eth[0].mac packetDropIncorrectlyReceived:vector(packetBytes):count 0
scalar InVehicleNetworkShowcase.frontRightWheel.eth[0].mac packetDropIncorrectlyReceived:vector(packetBytes):sum 0
scalar InVehicleNetworkShowcase.frontRightWheel.eth[0].mac packetDropIncorrectlyReceived:vector(packetBytes):sumweights 0
scalar InVehicleNetworkShowcase.frontRightWheel.eth[0].mac packetDropIncorrectlyReceived:vector(packetBytes):mean -nan
scalar InVehicleNetworkShowcase.frontRightWheel.eth[0].mac packetDropIncorrectlyReceived:vector(packetBytes):stddev nan
scalar InVehicleNetworkShowcase.frontRightWheel.eth[0].mac packetDropIncorrectlyReceived:vector(packetBytes):min inf
scalar InVehicleNetworkShowcase.frontRightWheel.eth[0].mac packetDropIncorrectlyReceived:vector(packetBytes):max -inf
scalar InVehicleNetworkShowcase.frontRightWheel.eth[0].mac packetDropIncorrectlyReceived:vector(packetBytes):starttime nan
scalar InVehicleNetworkShowcase.frontRightWheel.eth[0].mac packetDropIncorrectlyReceived:vector(packetBytes):endtime nan
scalar InVehicleNetworkShowcase.frontRightWheel.eth[0].mac packetDropInterfaceDown:vector(packetBytes):count 0
scalar InVehicleNetworkShowcase.frontRightWheel.eth[0].mac packetDropInterfaceDown:vector(packetBytes):sum 0
scalar InVehicleNetworkShowcase.frontRightWheel.eth[0].mac packetDropInterfaceDown:vector(packetBytes):sumweights 0
scalar InVehicleNetworkShowcase.frontRightWheel.eth[0].mac packetDropInterfaceDown:vector(packetBytes):mean -nan
scalar InVehicleNetworkShowcase.frontRightWheel.eth[0].mac packetDropInterfaceDown:vector(packetBytes):stddev nan
scalar InVehicleNetworkShowcase.frontRightWheel.eth[0].mac packetDropInterfaceDown:vector(packetBytes):min inf
scalar InVehicleNetworkShowcase.frontRightWheel.eth[0].mac packetDropInterfaceDown:vector(packetBytes):max -inf
scalar InVehicleNetworkShowcase.frontRightWheel.eth[0].mac packetDropInterfaceDown:vector(packetBytes):starttime nan
scalar InVehicleNetworkShowcase.frontRightWheel.eth[0].mac packetDropInterfaceDown:vector(packetBytes):endtime nan
scalar InVehicleNetworkShowcase.frontRightWheel.eth[0].mac packetDropNotAddressedToUs:vector(packetBytes):count 0
scalar InVehicleNetworkShowcase.frontRightWheel.eth[0].mac packetDropNotAddressedToUs:vector(packetBytes):sum 0
scalar InVehicleNetworkShowcase.frontRightWheel.eth[0].mac packetDropNotAddressedToUs:vector(packetBytes):sumweights 0
scalar InVehicleNetworkShowcase.frontRightWheel.eth[0].mac packetDropNotAddressedToUs:vector(packetBytes):mean -nan
scalar InVehicleNetworkShowcase.frontRightWheel.eth[0].mac packetDropNotAddressedToUs:vector(packetBytes):stddev nan
scalar InVehicleNetworkShowcase.frontRightWheel.eth[0].mac packetDropNotAddressedToUs:vector(packetBytes):min inf
scalar InVehicleNetworkShowcase.frontRightWheel.eth[0].mac packetDropNotAddressedToUs:vector(packetBytes):max -inf
scalar InVehicleNetworkShowcase.frontRightWheel.eth[0].mac packetDropNotAddressedToUs:vector(packetBytes):starttime nan
scalar InVehicleNetworkShowcase.frontRightWheel.eth[0].mac packetDropNotAddressedToUs:vector(packetBytes):endtime nan
scalar InVehicleNetworkShowcase.frontRightWheel.eth[0] packetDropInterfaceDown:vector(packetBytes):count 0
scalar InVehicleNetworkShowcase.frontRightWheel.eth[0] packetDropInterfaceDown:vector(packetBytes):sum 0
scalar InVehicleNetworkShowcase.frontRightWheel.eth[0] packetDropInterfaceDown:vector(packetBytes):sumweights 0
scalar InVehicleNetworkShowcase.frontRightWheel.eth[0] packetDropInterfaceDown:vector(packetBytes):mean -nan
scalar InVehicleNetworkShowcase.frontRightWheel.eth[0] packetDropInterfaceDown:vector(packetBytes):stddev nan
scalar InVehicleNetworkShowcase.frontRightWheel.eth[0] packetDropInterfaceDown:vector(packetBytes):min inf
scalar InVehicleNetworkShowcase.frontRightWheel.eth[0] packetDropInterfaceDown:vector(packetBytes):max -inf
scalar InVehicleNetworkShowcase.frontRightWheel.eth[0] packetDropInterfaceDown:vector(packetBytes):starttime nan
scalar InVehicleNetworkShowcase.frontRightWheel.eth[0] packetDropInterfaceDown:vector(packetBytes):endtime nan
scalar InVehicleNetworkShowcase.frontRightWheel.eth[0] packetDropNoCarrier:vector(packetBytes):count 0
scalar InVehicleNetworkShowcase.frontRightWheel.eth[0] packetDropNoCarrier:vector(packetBytes):sum 0
scalar InVehicleNetworkShowcase.frontRightWheel.eth[0] packetDropNoCarrier:vector(packetBytes):sumweights 0
scalar InVehicleNetworkShowcase.frontRightWheel.eth[0] packetDropNoCarrier:vector(packetBytes):mean -nan
scalar InVehicleNetworkShowcase.frontRightWheel.eth[0] packetDropNoCarrier:vector(packetBytes):stddev nan
scalar InVehicleNetworkShowcase.frontRightWheel.eth[0] packetDropNoCarrier:vector(packetBytes):min inf
scalar InVehicleNetworkShowcase.frontRightWheel.eth[0] packetDropNoCarrier:vector(packetBytes):max -inf
scalar InVehicleNetworkShowcase.frontRightWheel.eth[0] packetDropNoCarrier:vector(packetBytes):starttime nan
scalar InVehicleNetworkShowcase.frontRightWheel.eth[0] packetDropNoCarrier:vector(packetBytes):endtime nan
scalar InVehicleNetworkShowcase.frontRightWheel.ipv4.ip packetDropAddressResolutionFailed:vector(packetBytes):count 0
scalar InVehicleNetworkShowcase.frontRightWheel.ipv4.ip packetDropAddressResolutionFailed:vector(packetBytes):sum 0
scalar InVehicleNetworkShowcase.frontRightWheel.ipv4.ip packetDropAddressResolutionFailed:vector(packetBytes):sumweights 0
scalar InVehicleNetworkShowcase.frontRightWheel.ipv4.ip packetDropAddressResolutionFailed:vector(packetBytes):mean -nan
scalar InVehicleNetworkShowcase.frontRightWheel.ipv4.ip packetDropAddressResolutionFailed:vector(packetBytes):stddev nan
scalar InVehicleNetworkShowcase.frontRightWheel.ipv4.ip packetDropAddressResolutionFailed:vector(packetBytes):min inf
scalar InVehicleNetworkShowcase.frontRightWheel.ipv4.ip packetDropAddressResolutionFailed:vector(packetBytes):max -inf
scalar InVehicleNetworkShowcase.frontRightWheel.ipv4.ip packetDropAddressResolutionFailed:vector(packetBytes):starttime nan
scalar InVehicleNetworkShowcase.frontRightWheel.ipv4.ip packetDropAddressResolutionFailed:vector(packetBytes):endtime nan
scalar InVehicleNetworkShowcase.frontRightWheel.ipv4.ip packetDropHopLimitReached:vector(packetBytes):count 0
scalar InVehicleNetworkShowcase.frontRightWheel.ipv4.ip packetDropHopLimitReached:vector(packetBytes):sum 0
scalar InVehicleNetworkShowcase.frontRightWheel.ipv4.ip packetDropHopLimitReached:vector(packetBytes):sumweights 0
scalar InVehicleNetworkShowcase.frontRightWheel.ipv4.ip packetDropHopLimitReached:vector(packetBytes):mean -nan
scalar InVehicleNetworkShowcase.frontRightWheel.ipv4.ip packetDropHopLimitReached:vector(packetBytes):stddev nan
scalar InVehicleNetworkShowcase.frontRightWheel.ipv4.ip packetDropHopLimitReached:vector(packetBytes):min inf
scalar InVehicleNetworkShowcase.frontRightWheel.ipv4.ip packetDropHopLimitReached:vector(packetBytes):max -inf
scalar InVehicleNetworkShowcase.frontRightWheel.ipv4.ip packetDropHopLimitReached:vector(packetBytes):starttime nan
scalar InVehicleNetworkShowcase.frontRightWheel.ipv4.ip packetDropHopLimitReached:vector(packetBytes):endtime nan
scalar InVehicleNetworkShowcase.frontRightWheel.ipv4.ip packetDropForwardingDisabled:vector(packetBytes):count 0
scalar InVehicleNetworkShowcase.frontRightWheel.ipv4.ip packetDropForwardingDisabled:vector(packetBytes):sum 0
scalar InVehicleNetworkShowcase.frontRightWheel.ipv4.ip packetDropForwardingDisabled:vector(packetBytes):sumweights 0
scalar InVehicleNetworkShowcase.frontRightWheel.ipv4.ip packetDropForwardingDisabled:vector(packetBytes):mean -nan
scalar InVehicleNetworkShowcase.frontRightWheel.ipv4.ip packetDropForwardingDisabled:vector(packetBytes):stddev nan
scalar InVehicleNetworkShowcase.frontRightWheel.ipv4.ip packetDropForwardingDisabled:vector(packetBytes):min inf
scalar InVehicleNetworkShowcase.frontRightWheel.ipv4.ip packetDropForwardingDisabled:vector(packetBytes):max -inf
scalar InVehicleNetworkShowcase.frontRightWheel.ipv4.ip packetDropForwardingDisabled:vector(packetBytes):starttime nan
scalar InVehicleNetworkShowcase.frontRightWheel.ipv4.ip packetDropForwardingDisabled:vector(packetBytes):endtime nan
scalar InVehicleNetworkShowcase.frontRightWheel.ipv4.ip packetDropLifetimeExpired:vector(packetBytes):count 0
scalar InVehicleNetworkShowcase.frontRightWheel.ipv4.ip packetDropLifetimeExpired:vector(packetBytes):sum 0
scalar InVehicleNetworkShowcase.frontRightWheel.ipv4.ip packetDropLifetimeExpired:vector(packetBytes):sumweights 0
scalar InVehicleNetworkShowcase.frontRightWheel.ipv4.ip packetDropLifetimeExpired:vector(packetBytes):mean -nan
scalar InVehicleNetworkShowcase.frontRightWheel.ipv4.ip packetDropLifetimeExpired:vector(packetBytes):stddev nan
scalar InVehicleNetworkShowcase.frontRightWheel.ipv4.ip packetDropLifetimeExpired:vector(packetBytes):min inf
scalar InVehicleNetworkShowcase.frontRightWheel.ipv4.ip packetDropLifetimeExpired:vector(packetBytes):max -inf
scalar InVehicleNetworkShowcase.frontRightWheel.ipv4.ip packetDropLifetimeExpired:vector(packetBytes):starttime nan
scalar InVehicleNetworkShowcase.frontRightWheel.ipv4.ip packetDropLifetimeExpired:vector(packetBytes):endtime nan
scalar InVehicleNetworkShowcase.frontRightWheel.ipv4.ip packetDropNoInterfaceFound:vector(packetBytes):count 0
scalar InVehicleNetworkShowcase.frontRightWheel.ipv4.ip packetDropNoInterfaceFound:vector(packetBytes):sum 0
scalar InVehicleNetworkShowcase.frontRightWheel.ipv4.ip packetDropNoInterfaceFound:vector(packetBytes):sumweights 0
scalar InVehicleNetworkShowcase.frontRightWheel.ipv4.ip packetDropNoInterfaceFound:vector(packetBytes):mean -nan
scalar InVehicleNetworkShowcase.frontRightWheel.ipv4.ip packetDropNoInterfaceFound:vector(packetBytes):stddev nan
scalar InVehicleNetworkShowcase.frontRightWheel.ipv4.ip packetDropNoInterfaceFound:vector(packetBytes):min inf
scalar InVehicleNetworkShowcase.frontRightWheel.ipv4.ip packetDropNoInterfaceFound:vector(packetBytes):max -inf
scalar InVehicleNetworkShowcase.frontRightWheel.ipv4.ip packetDropNoInterfaceFound:vector(packetBytes):starttime nan
scalar InVehicleNetworkShowcase.frontRightWheel.ipv4.ip packetDropNoInterfaceFound:vector(packetBytes):endtime nan
scalar InVehicleNetworkShowcase.frontRightWheel.ipv4.ip packetDropNoRouteFound:vector(packetBytes):count 0
scalar InVehicleNetworkShowcase.frontRightWheel.ipv4.ip packetDropNoRouteFound:vector(packetBytes):sum 0
scalar InVehicleNetworkShowcase.frontRightWheel.ipv4.ip packetDropNoRouteFound:vector(packetBytes):sumweights 0
scalar InVehicleNetworkShowcase.frontRightWheel.ipv4.ip packetDropNoRouteFound:vector(packetBytes):mean -nan
scalar InVehicleNetworkShowcase.frontRightWheel.ipv4.ip packetDropNoRouteFound:vector(packetBytes):stddev nan
scalar InVehicleNetworkShowcase.frontRightWheel.ipv4.ip packetDropNoRouteFound:vector(packetBytes):min inf
scalar InVehicleNetworkShowcase.frontRightWheel.ipv4.ip packetDropNoRouteFound:vector(packetBytes):max -inf
scalar InVehicleNetworkShowcase.frontRightWheel.ipv4.ip packetDropNoRouteFound:vector(packetBytes):starttime nan
scalar InVehicleNetworkShowcase.frontRightWheel.ipv4.ip packetDropNoRouteFound:vector(packetBytes):endtime nan
scalar InVehicleNetworkShowcase.frontRightWheel.ipv4.ip packetDropUndefined:vector(packetBytes):count 0
scalar InVehicleNetworkShowcase.frontRightWheel.ipv4.ip packetDropUndefined:vector(packetBytes):sum 0
scalar InVehicleNetworkShowcase.frontRightWheel.ipv4.ip packetDropUndefined:vector(packetBytes):sumweights 0
scalar InVehicleNetworkShowcase.frontRightWheel.ipv4.ip packetDropUndefined:vector(packetBytes):mean -nan
scalar InVehicleNetworkShowcase.frontRightWheel.ipv4.ip packetDropUndefined:vector(packetBytes):stddev nan
scalar InVehicleNetworkShowcase.frontRightWheel.ipv4.ip packetDropUndefined:vector(packetBytes):min inf
scalar InVehicleNetworkShowcase.frontRightWheel.ipv4.ip packetDropUndefined:vector(packetBytes):max -inf
scalar InVehicleNetworkShowcase.frontRightWheel.ipv4.ip packetDropUndefined:vector(packetBytes):starttime nan
scalar InVehicleNetworkShowcase.frontRightWheel.ipv4.ip packetDropUndefined:vector(packetBytes):endtime nan
scalar InVehicleNetworkShowcase.frontRightWheel.udp packetSent:vector(packetBytes):count 21
scalar InVehicleNetworkShowcase.frontRightWheel.udp packetSent:vector(packetBytes):sum 3843
scalar InVehicleNetworkShowcase.frontRightWheel.udp packetSent:vector(packetBytes):sumweights 21
scalar InVehicleNetworkShowcase.frontRightWheel.udp packetSent:vector(packetBytes):mean 183
scalar InVehicleNetworkShowcase.frontRightWheel.udp packetSent:vector(packetBytes):stddev 0
scalar InVehicleNetworkShowcase.frontRightWheel.udp packetSent:vector(packetBytes):min 183
scalar InVehicleNetworkShowcase.frontRightWheel.udp packetSent:vector(packetBytes):max 183
scalar InVehicleNetworkShowcase.frontRightWheel.udp packetSent:vector(packetBytes):starttime 0
scalar InVehicleNetworkShowcase.frontRightWheel.udp packetSent:vector(packetBytes):endtime 0.01
scalar InVehicleNetworkShowcase.frontRightWheel.udp packetReceived:vector(packetBytes):count 0
scalar InVehicleNetworkShowcase.frontRightWheel.udp packetReceived:vector(packetBytes):sum 0
scalar InVehicleNetworkShowcase.frontRightWheel.udp packetReceived:vector(packetBytes):sumweights 0
scalar InVehicleNetworkShowcase.frontRightWheel.udp packetReceived:vector(packetBytes):mean -nan
scalar InVehicleNetworkShowcase.frontRightWheel.udp packetReceived:vector(packetBytes):stddev nan
scalar InVehicleNetworkShowcase.frontRightWheel.udp packetReceived:vector(packetBytes):min inf
scalar InVehicleNetworkShowcase.frontRightWheel.udp packetReceived:vector(packetBytes):max -inf
scalar InVehicleNetworkShowcase.frontRightWheel.udp packetReceived:vector(packetBytes):starttime nan
scalar InVehicleNetworkShowcase.frontRightWheel.udp packetReceived:vector(packetBytes):endtime nan
scalar InVehicleNetworkShowcase.frontRightWheel.udp passedUpPk:vector(count):count 1
scalar InVehicleNetworkShowcase.frontRightWheel.udp passedUpPk:vector(count):sum 0
scalar InVehicleNetworkShowcase.frontRightWheel.udp passedUpPk:vector(count):sumweights 1
scalar InVehicleNetworkShowcase.frontRightWheel.udp passedUpPk:vector(count):mean 0
scalar InVehicleNetworkShowcase.frontRightWheel.udp passedUpPk:vector(count):stddev nan
scalar InVehicleNetworkShowcase.frontRightWheel.udp passedUpPk:vector(count):min 0
scalar InVehicleNetworkShowcase.frontRightWheel.udp passedUpPk:vector(count):max 0
scalar InVehicleNetworkShowcase.frontRightWheel.udp passedUpPk:vector(count):starttime 0
scalar InVehicleNetworkShowcase.frontRightWheel.udp passedUpPk:vector(count):endtime 0
scalar InVehicleNetworkShowcase.frontRightWheel.udp droppedPkWrongPort:vector(count):count 1
scalar InVehicleNetworkShowcase.frontRightWheel.udp droppedPkWrongPort:vector(count):sum 0
scalar InVehicleNetworkShowcase.frontRightWheel.udp droppedPkWrongPort:vector(count):sumweights 1
scalar InVehicleNetworkShowcase.frontRightWheel.udp droppedPkWrongPort:vector(count):mean 0
scalar InVehicleNetworkShowcase.frontRightWheel.udp droppedPkWrongPort:vector(count):stddev nan
scalar InVehicleNetworkShowcase.frontRightWheel.udp droppedPkWrongPort:vector(count):min 0
scalar InVehicleNetworkShowcase.frontRightWheel.udp droppedPkWrongPort:vector(count):max 0
scalar InVehicleNetworkShowcase.frontRightWheel.udp droppedPkWrongPort:vector(count):starttime 0
scalar InVehicleNetworkShowcase.frontRightWheel.udp droppedPkWrongPort:vector(count):endtime 0
scalar InVehicleNetworkShowcase.frontRightWheel.udp droppedPkBadChecksum:vector(count):count 1
scalar InVehicleNetworkShowcase.frontRightWheel.udp droppedPkBadChecksum:vector(count):sum 0
scalar InVehicleNetworkShowcase.frontRightWheel.udp droppedPkBadChecksum:vector(count):sumweights 1
scalar InVehicleNetworkShowcase.frontRightWheel.udp droppedPkBadChecksum:vector(count):mean 0
scalar InVehicleNetworkShowcase.frontRightWheel.udp droppedPkBadChecksum:vector(count):stddev nan
scalar InVehicleNetworkShowcase.frontRightWheel.udp droppedPkBadChecksum:vector(count):min 0
scalar InVehicleNetworkShowcase.frontRightWheel.udp droppedPkBadChecksum:vector(count):max 0
scalar InVehicleNetworkShowcase.frontRightWheel.udp droppedPkBadChecksum:vector(count):starttime 0
scalar InVehicleNetworkShowcase.frontRightWheel.udp droppedPkBadChecksum:vector(count):endtime 0
scalar InVehicleNetworkShowcase.frontRightWheel.app[0].source packetLengths:vector:count 21
scalar InVehicleNetworkShowcase.frontRightWheel.app[0].source packetLengths:vector:sum 29400
scalar InVehicleNetworkShowcase.frontRightWheel.app[0].source packetLengths:vector:sumweights 21
scalar InVehicleNetworkShowcase.frontRightWheel.app[0].source packetLengths:vector:mean 1400
scalar InVehicleNetworkShowcase.frontRightWheel.app[0].source packetLengths:vector:stddev 0
scalar InVehicleNetworkShowcase.frontRightWheel.app[0].source packetLengths:vector:min 1400
scalar InVehicleNetworkShowcase.frontRightWheel.app[0].source packetLengths:vector:max 1400
scalar InVehicleNetworkShowcase.frontRightWheel.app[0].source packetLengths:vector:starttime 0
scalar InVehicleNetworkShowcase.frontRightWheel.app[0].source packetLengths:vector:endtime 0.01
scalar InVehicleNetworkShowcase.frontRightWheel.app[0].source dataRate:vector:count 1
scalar InVehicleNetworkShowcase.frontRightWheel.app[0].source dataRate:vector:sum 2940000
scalar InVehicleNetworkShowcase.frontRightWheel.app[0].source dataRate:vector:sumweights 1
scalar InVehicleNetworkShowcase.frontRightWheel.app[0].source dataRate:vector:mean 2940000
scalar InVehicleNetworkShowcase.frontRightWheel.app[0].source dataRate:vector:stddev nan
scalar InVehicleNetworkShowcase.frontRightWheel.app[0].source dataRate:vector:min 2940000
scalar InVehicleNetworkShowcase.frontRightWheel.app[0].source dataRate:vector:max 2940000
scalar InVehicleNetworkShowcase.frontRightWheel.app[0].source dataRate:vector:starttime 0.01
scalar InVehicleNetworkShowcase.frontRightWheel.app[0].source dataRate:vector:endtime 0.01
scalar InVehicleNetworkShowcase.frontRightWheel.app[0].io packetSent:vector(packetBytes):count 21
scalar InVehicleNetworkShowcase.frontRightWheel.app[0].io packetSent:vector(packetBytes):sum 3675
scalar InVehicleNetworkShowcase.frontRightWheel.app[0].io packetSent:vector(packetBytes):sumweights 21
scalar InVehicleNetworkShowcase.frontRightWheel.app[0].io packetSent:vector(packetBytes):mean 175
scalar InVehicleNetworkShowcase.frontRightWheel.app[0].io packetSent:vector(packetBytes):stddev 0
scalar InVehicleNetworkShowcase.frontRightWheel.app[0].io packetSent:vector(packetBytes):min 175
scalar InVehicleNetworkShowcase.frontRightWheel.app[0].io packetSent:vector(packetBytes):max 175
scalar InVehicleNetworkShowcase.frontRightWheel.app[0].io packetSent:vector(packetBytes):starttime 0
scalar InVehicleNetworkShowcase.frontRightWheel.app[0].io packetSent:vector(packetBytes):endtime 0.01
scalar InVehicleNetworkShowcase.frontRightWheel.app[0].io packetReceived:vector(packetBytes):count 0
scalar InVehicleNetworkShowcase.frontRightWheel.app[0].io packetReceived:vector(packetBytes):sum 0
scalar InVehicleNetworkShowcase.frontRightWheel.app[0].io packetReceived:vector(packetBytes):sumweights 0
scalar InVehicleNetworkShowcase.frontRightWheel.app[0].io packetReceived:vector(packetBytes):mean -nan
scalar InVehicleNetworkShowcase.frontRightWheel.app[0].io packetReceived:vector(packetBytes):stddev nan
scalar InVehicleNetworkShowcase.frontRightWheel.app[0].io packetReceived:vector(packetBytes):min inf
scalar InVehicleNetworkShowcase.frontRightWheel.app[0].io packetReceived:vector(packetBytes):max -inf
scalar InVehicleNetworkShowcase.frontRightWheel.app[0].io packetReceived:vector(packetBytes):starttime nan
scalar InVehicleNetworkShowcase.frontRightWheel.app[0].io packetReceived:vector(packetBytes):endtime nan

