version 3
run Paper-0-20251118-11:41:05-109875
attr configname Paper
attr datetime 20251118-11:41:05
attr datetimef 20251118-114105
attr experiment Paper
attr inifile paper.ini
attr iterationvars "$numNodes=1, $meanProductionInterval=3"
attr iterationvarsd numNodes=1/meanProductionInterval=3
attr iterationvarsf numNodes=1,meanProductionInterval=3-
attr measurement "$numNodes=1, $meanProductionInterval=3"
attr network MultidropNetwork
attr processid 109875
attr repetition 0
attr replication #0
attr resultdir results
attr runnumber 0
attr seedset 0
itervar meanProductionInterval 3
itervar numNodes 1
config **.param-recording false
config image-path /home/zoli/Projects/OMNET/inet/images
config output-scalar-file results/paper.ini-Paper-#0.sca
config output-scalar-precision 17
config output-vector-file results/paper.ini-Paper-#0.vec
config output-vector-precision 17
config record-eventlog false
config sim-time-limit 1s
config description "Reproducing the results of the paper titled Network Performance Evaluation of IEEE 802.3cg"
config network MultidropNetwork
config sim-time-limit 1s
config *.numNodes 1
config *.controller.typename EthernetPlcaHost
config *.node[*].typename EthernetPlcaHost
config *.node[*].numApps 1
config *.node[*].app[0].typename EthernetSourceApp
config *.node[*].app[0].io.interface "\"eth0\""
config *.node[*].app[0].io.remoteAddress "\"controller\""
config *.node[*].app[0].source.packetLength "intuniform(46B, 1500B)"
config *.node[*].app[0].source.productionInterval "poisson(3) * 1ms"
config *.controller.numApps 1
config *.controller.app[0].typename EthernetSinkApp
config *.controller.app[0].io.interface "\"eth0\""
config *.controller.app[0].io.localAddress "\"controller\""
config *.visualizer.interfaceTableVisualizer.displayInterfaceTables true
config *.visualizer.interfaceTableVisualizer.format "\"%N%\\\\%m\""

scalar MultidropNetwork.controller.ethernet pauseSent:count 0
scalar MultidropNetwork.controller.ethernet pauseSent:sum 0
scalar MultidropNetwork.controller.ethernet decapPk:count 0
scalar MultidropNetwork.controller.ethernet decapPk:sum(packetBytes) 0
scalar MultidropNetwork.controller.ethernet encapPk:count 0
scalar MultidropNetwork.controller.ethernet encapPk:sum(packetBytes) 0
scalar MultidropNetwork.controller.eth[0].queue queueLength:last 0
scalar MultidropNetwork.controller.eth[0].queue queueLength:max 0
scalar MultidropNetwork.controller.eth[0].queue queueLength:timeavg 0
scalar MultidropNetwork.controller.eth[0].queue queueBitLength:last 0
scalar MultidropNetwork.controller.eth[0].queue queueBitLength:max 0
scalar MultidropNetwork.controller.eth[0].queue queueBitLength:timeavg 0
scalar MultidropNetwork.controller.eth[0].queue outgoingPackets:count 0
scalar MultidropNetwork.controller.eth[0].queue outgoingPacketLengths:sum 0
scalar MultidropNetwork.controller.eth[0].queue incomingPackets:count 0
scalar MultidropNetwork.controller.eth[0].queue incomingPacketLengths:sum 0
scalar MultidropNetwork.controller.eth[0].queue droppedPacketsQueueOverflow:count 0
scalar MultidropNetwork.controller.eth[0].queue droppedPacketLengthsQueueOverflow:sum 0
scalar MultidropNetwork.controller.eth[0].mac state:count 1007
scalar MultidropNetwork.controller.eth[0].mac collision:count 2
scalar MultidropNetwork.controller.eth[0].mac carrierSense:count 672
scalar MultidropNetwork.controller.eth[0].plca transmitOpportunityUsed:count 93204
scalar MultidropNetwork.controller.eth[0].plca packetInterval:count 0
scalar MultidropNetwork.controller.eth[0].plca packetPendingDelay:count 0
scalar MultidropNetwork.controller.eth[0].plca txCmd:count 186409
scalar MultidropNetwork.controller.eth[0].plca rxCmd:count 1341
scalar MultidropNetwork.controller.eth[0].plca dataState:count 1677
scalar MultidropNetwork.controller.eth[0].plca controlState:count 746302
scalar MultidropNetwork.controller.eth[0].plca collision:count 2
scalar MultidropNetwork.controller.eth[0].plca carrierSense:count 187080
scalar MultidropNetwork.controller.eth[0].phy busUsed:count 187750
scalar MultidropNetwork.controller.eth[0].phy busUtilization:count 939
scalar MultidropNetwork.controller.eth[0].phy transmittedSignalType:count 186410
scalar MultidropNetwork.controller.eth[0].phy receivedSignalType:count 1342
scalar MultidropNetwork.controller.eth[0].phy state:count 281624
scalar MultidropNetwork.controller.eth[0] packetDropInterfaceDown:count 0
scalar MultidropNetwork.controller.eth[0] packetDropInterfaceDown:sum(packetBytes) 0
scalar MultidropNetwork.controller.eth[0] packetDropNoCarrier:count 0
scalar MultidropNetwork.controller.eth[0] packetDropNoCarrier:sum(packetBytes) 0
scalar MultidropNetwork.controller.app[0].sink packets:count 335
scalar MultidropNetwork.controller.app[0].sink packetLengths:sum 2098280
scalar MultidropNetwork.controller.app[0].sink droppedPackets:count 335
scalar MultidropNetwork.controller.app[0].sink droppedPacketLengths:sum 2098280
scalar MultidropNetwork.controller.app[0].io "packets sent" 0
scalar MultidropNetwork.controller.app[0].io "packets received" 335
scalar MultidropNetwork.controller.app[0].io packetReceived:count 335
scalar MultidropNetwork.controller.app[0].io packetReceived:sum(packetBytes) 262285
scalar MultidropNetwork.controller.app[0].io packetSent:count 0
scalar MultidropNetwork.controller.app[0].io packetSent:sum(packetBytes) 0
scalar MultidropNetwork.node[0].ethernet pauseSent:count 0
scalar MultidropNetwork.node[0].ethernet pauseSent:sum 0
scalar MultidropNetwork.node[0].ethernet decapPk:count 0
scalar MultidropNetwork.node[0].ethernet decapPk:sum(packetBytes) 0
scalar MultidropNetwork.node[0].ethernet encapPk:count 335
scalar MultidropNetwork.node[0].ethernet encapPk:sum(packetBytes) 262285
scalar MultidropNetwork.node[0].eth[0].queue queueLength:last 0
scalar MultidropNetwork.node[0].eth[0].queue queueLength:max 2
scalar MultidropNetwork.node[0].eth[0].queue queueLength:timeavg 0.010380222499999999
scalar MultidropNetwork.node[0].eth[0].queue queueBitLength:last 0
scalar MultidropNetwork.node[0].eth[0].queue queueBitLength:max 14024
scalar MultidropNetwork.node[0].eth[0].queue queueBitLength:timeavg 74.163230103999979
scalar MultidropNetwork.node[0].eth[0].queue outgoingPackets:count 335
scalar MultidropNetwork.node[0].eth[0].queue outgoingPacketLengths:sum 2146520
scalar MultidropNetwork.node[0].eth[0].queue incomingPackets:count 335
scalar MultidropNetwork.node[0].eth[0].queue incomingPacketLengths:sum 2146520
scalar MultidropNetwork.node[0].eth[0].queue droppedPacketsQueueOverflow:count 0
scalar MultidropNetwork.node[0].eth[0].queue droppedPacketLengthsQueueOverflow:sum 0
scalar MultidropNetwork.node[0].eth[0].mac state:count 1837
scalar MultidropNetwork.node[0].eth[0].mac collision:count 210
scalar MultidropNetwork.node[0].eth[0].mac carrierSense:count 880
scalar MultidropNetwork.node[0].eth[0].plca transmitOpportunityUsed:count 93204
scalar MultidropNetwork.node[0].eth[0].plca packetInterval:count 334
scalar MultidropNetwork.node[0].eth[0].plca packetPendingDelay:count 335
scalar MultidropNetwork.node[0].eth[0].plca txCmd:count 671
scalar MultidropNetwork.node[0].eth[0].plca rxCmd:count 186409
scalar MultidropNetwork.node[0].eth[0].plca dataState:count 1758
scalar MultidropNetwork.node[0].eth[0].plca controlState:count 745967
scalar MultidropNetwork.node[0].eth[0].plca collision:count 2
scalar MultidropNetwork.node[0].eth[0].plca carrierSense:count 187080
scalar MultidropNetwork.node[0].eth[0].phy busUsed:count 187750
scalar MultidropNetwork.node[0].eth[0].phy busUtilization:count 939
scalar MultidropNetwork.node[0].eth[0].phy transmittedSignalType:count 1342
scalar MultidropNetwork.node[0].eth[0].phy receivedSignalType:count 186410
scalar MultidropNetwork.node[0].eth[0].phy state:count 281289
scalar MultidropNetwork.node[0].eth[0] packetDropInterfaceDown:count 0
scalar MultidropNetwork.node[0].eth[0] packetDropInterfaceDown:sum(packetBytes) 0
scalar MultidropNetwork.node[0].eth[0] packetDropNoCarrier:count 0
scalar MultidropNetwork.node[0].eth[0] packetDropNoCarrier:sum(packetBytes) 0
scalar MultidropNetwork.node[0].app[0].source packets:count 335
scalar MultidropNetwork.node[0].app[0].source packetLengths:sum 2098280
scalar MultidropNetwork.node[0].app[0].io "packets sent" 335
scalar MultidropNetwork.node[0].app[0].io "packets received" 0
scalar MultidropNetwork.node[0].app[0].io packetReceived:count 0
scalar MultidropNetwork.node[0].app[0].io packetReceived:sum(packetBytes) 0
scalar MultidropNetwork.node[0].app[0].io packetSent:count 335
scalar MultidropNetwork.node[0].app[0].io packetSent:sum(packetBytes) 262285
scalar MultidropNetwork.j[0] packetReceived:count 94209
scalar MultidropNetwork.j[0] packetReceived:sum(packetBytes) 578655
scalar MultidropNetwork.controller.eth[0].queue queueingTime:histogram:count 0
scalar MultidropNetwork.controller.eth[0].queue queueingTime:histogram:sumweights 0
scalar MultidropNetwork.controller.eth[0].queue queueingTime:histogram:mean -nan
scalar MultidropNetwork.controller.eth[0].queue queueingTime:histogram:stddev nan
scalar MultidropNetwork.controller.eth[0].queue queueingTime:histogram:min nan
scalar MultidropNetwork.controller.eth[0].queue queueingTime:histogram:max nan
scalar MultidropNetwork.controller.eth[0].queue queueingTime:histogram:numbins 1
scalar MultidropNetwork.controller.eth[0].queue queueingTime:histogram:rangemin 0
scalar MultidropNetwork.controller.eth[0].queue queueingTime:histogram:rangemax 1
scalar MultidropNetwork.controller.eth[0].queue queueingTime:histogram:underflows 0
scalar MultidropNetwork.controller.eth[0].queue queueingTime:histogram:overflows 0
scalar MultidropNetwork.controller.eth[0].queue outgoingPacketLengths:histogram:count 0
scalar MultidropNetwork.controller.eth[0].queue outgoingPacketLengths:histogram:sumweights 0
scalar MultidropNetwork.controller.eth[0].queue outgoingPacketLengths:histogram:mean -nan
scalar MultidropNetwork.controller.eth[0].queue outgoingPacketLengths:histogram:stddev nan
scalar MultidropNetwork.controller.eth[0].queue outgoingPacketLengths:histogram:min nan
scalar MultidropNetwork.controller.eth[0].queue outgoingPacketLengths:histogram:max nan
scalar MultidropNetwork.controller.eth[0].queue outgoingPacketLengths:histogram:numbins 1
scalar MultidropNetwork.controller.eth[0].queue outgoingPacketLengths:histogram:rangemin 0
scalar MultidropNetwork.controller.eth[0].queue outgoingPacketLengths:histogram:rangemax 1
scalar MultidropNetwork.controller.eth[0].queue outgoingPacketLengths:histogram:underflows 0
scalar MultidropNetwork.controller.eth[0].queue outgoingPacketLengths:histogram:overflows 0
scalar MultidropNetwork.controller.eth[0].queue flowQueueingTime:histogram:count 0
scalar MultidropNetwork.controller.eth[0].queue flowQueueingTime:histogram:sumweights 0
scalar MultidropNetwork.controller.eth[0].queue flowQueueingTime:histogram:mean -nan
scalar MultidropNetwork.controller.eth[0].queue flowQueueingTime:histogram:stddev nan
scalar MultidropNetwork.controller.eth[0].queue flowQueueingTime:histogram:min nan
scalar MultidropNetwork.controller.eth[0].queue flowQueueingTime:histogram:max nan
scalar MultidropNetwork.controller.eth[0].queue flowQueueingTime:histogram:numbins 1
scalar MultidropNetwork.controller.eth[0].queue flowQueueingTime:histogram:rangemin 0
scalar MultidropNetwork.controller.eth[0].queue flowQueueingTime:histogram:rangemax 1
scalar MultidropNetwork.controller.eth[0].queue flowQueueingTime:histogram:underflows 0
scalar MultidropNetwork.controller.eth[0].queue flowQueueingTime:histogram:overflows 0
scalar MultidropNetwork.controller.eth[0].queue incomingPacketLengths:histogram:count 0
scalar MultidropNetwork.controller.eth[0].queue incomingPacketLengths:histogram:sumweights 0
scalar MultidropNetwork.controller.eth[0].queue incomingPacketLengths:histogram:mean -nan
scalar MultidropNetwork.controller.eth[0].queue incomingPacketLengths:histogram:stddev nan
scalar MultidropNetwork.controller.eth[0].queue incomingPacketLengths:histogram:min nan
scalar MultidropNetwork.controller.eth[0].queue incomingPacketLengths:histogram:max nan
scalar MultidropNetwork.controller.eth[0].queue incomingPacketLengths:histogram:numbins 1
scalar MultidropNetwork.controller.eth[0].queue incomingPacketLengths:histogram:rangemin 0
scalar MultidropNetwork.controller.eth[0].queue incomingPacketLengths:histogram:rangemax 1
scalar MultidropNetwork.controller.eth[0].queue incomingPacketLengths:histogram:underflows 0
scalar MultidropNetwork.controller.eth[0].queue incomingPacketLengths:histogram:overflows 0
scalar MultidropNetwork.controller.eth[0].plca packetInterval:histogram:count 0
scalar MultidropNetwork.controller.eth[0].plca packetInterval:histogram:sumweights 0
scalar MultidropNetwork.controller.eth[0].plca packetInterval:histogram:mean -nan
scalar MultidropNetwork.controller.eth[0].plca packetInterval:histogram:stddev nan
scalar MultidropNetwork.controller.eth[0].plca packetInterval:histogram:min nan
scalar MultidropNetwork.controller.eth[0].plca packetInterval:histogram:max nan
scalar MultidropNetwork.controller.eth[0].plca packetInterval:histogram:numbins 1
scalar MultidropNetwork.controller.eth[0].plca packetInterval:histogram:rangemin 0
scalar MultidropNetwork.controller.eth[0].plca packetInterval:histogram:rangemax 1
scalar MultidropNetwork.controller.eth[0].plca packetInterval:histogram:underflows 0
scalar MultidropNetwork.controller.eth[0].plca packetInterval:histogram:overflows 0
scalar MultidropNetwork.controller.eth[0].plca packetPendingDelay:histogram:count 0
scalar MultidropNetwork.controller.eth[0].plca packetPendingDelay:histogram:sumweights 0
scalar MultidropNetwork.controller.eth[0].plca packetPendingDelay:histogram:mean -nan
scalar MultidropNetwork.controller.eth[0].plca packetPendingDelay:histogram:stddev nan
scalar MultidropNetwork.controller.eth[0].plca packetPendingDelay:histogram:min nan
scalar MultidropNetwork.controller.eth[0].plca packetPendingDelay:histogram:max nan
scalar MultidropNetwork.controller.eth[0].plca packetPendingDelay:histogram:numbins 1
scalar MultidropNetwork.controller.eth[0].plca packetPendingDelay:histogram:rangemin 0
scalar MultidropNetwork.controller.eth[0].plca packetPendingDelay:histogram:rangemax 1
scalar MultidropNetwork.controller.eth[0].plca packetPendingDelay:histogram:underflows 0
scalar MultidropNetwork.controller.eth[0].plca packetPendingDelay:histogram:overflows 0
scalar MultidropNetwork.controller.eth[0].phy throughput:histogram:count 933
scalar MultidropNetwork.controller.eth[0].phy throughput:histogram:sumweights 933
scalar MultidropNetwork.controller.eth[0].phy throughput:histogram:mean 2062108.6067495907
scalar MultidropNetwork.controller.eth[0].phy throughput:histogram:stddev 511525.70862867503
scalar MultidropNetwork.controller.eth[0].phy throughput:histogram:min 382952.19377993728
scalar MultidropNetwork.controller.eth[0].phy throughput:histogram:max 2380668.9679800025
scalar MultidropNetwork.controller.eth[0].phy throughput:histogram:numbins 50
scalar MultidropNetwork.controller.eth[0].phy throughput:histogram:rangemin 300000
scalar MultidropNetwork.controller.eth[0].phy throughput:histogram:rangemax 2800000
scalar MultidropNetwork.controller.eth[0].phy throughput:histogram:underflows 0
scalar MultidropNetwork.controller.eth[0].phy throughput:histogram:overflows 0
scalar MultidropNetwork.controller.eth[0].phy transmissionTime:histogram:count 93204
scalar MultidropNetwork.controller.eth[0].phy transmissionTime:histogram:sumweights 93204
scalar MultidropNetwork.controller.eth[0].phy transmissionTime:histogram:mean 2.0000000000015568e-06
scalar MultidropNetwork.controller.eth[0].phy transmissionTime:histogram:stddev 0
scalar MultidropNetwork.controller.eth[0].phy transmissionTime:histogram:min 1.9999999999999999e-06
scalar MultidropNetwork.controller.eth[0].phy transmissionTime:histogram:max 1.9999999999999999e-06
scalar MultidropNetwork.controller.eth[0].phy transmissionTime:histogram:numbins 51
scalar MultidropNetwork.controller.eth[0].phy transmissionTime:histogram:rangemin 0
scalar MultidropNetwork.controller.eth[0].phy transmissionTime:histogram:rangemax 0.51000000000000001
scalar MultidropNetwork.controller.eth[0].phy transmissionTime:histogram:underflows 0
scalar MultidropNetwork.controller.eth[0].phy transmissionTime:histogram:overflows 0
scalar MultidropNetwork.controller.app[0].sink packetLengths:histogram:count 335
scalar MultidropNetwork.controller.app[0].sink packetLengths:histogram:sumweights 335
scalar MultidropNetwork.controller.app[0].sink packetLengths:histogram:mean 6263.5223880597014
scalar MultidropNetwork.controller.app[0].sink packetLengths:histogram:stddev 3375.5978080368263
scalar MultidropNetwork.controller.app[0].sink packetLengths:histogram:min 368
scalar MultidropNetwork.controller.app[0].sink packetLengths:histogram:max 11968
scalar MultidropNetwork.controller.app[0].sink packetLengths:histogram:numbins 75
scalar MultidropNetwork.controller.app[0].sink packetLengths:histogram:rangemin 0
scalar MultidropNetwork.controller.app[0].sink packetLengths:histogram:rangemax 15000
scalar MultidropNetwork.controller.app[0].sink packetLengths:histogram:underflows 0
scalar MultidropNetwork.controller.app[0].sink packetLengths:histogram:overflows 0
scalar MultidropNetwork.controller.app[0].sink meanBitLifeTimePerPacket:histogram:count 335
scalar MultidropNetwork.controller.app[0].sink meanBitLifeTimePerPacket:histogram:sumweights 335
scalar MultidropNetwork.controller.app[0].sink meanBitLifeTimePerPacket:histogram:mean 0.00070171324477611948
scalar MultidropNetwork.controller.app[0].sink meanBitLifeTimePerPacket:histogram:stddev 0.00037679808448865942
scalar MultidropNetwork.controller.app[0].sink meanBitLifeTimePerPacket:histogram:min 6.0449999999999999e-05
scalar MultidropNetwork.controller.app[0].sink meanBitLifeTimePerPacket:histogram:max 0.002279498
scalar MultidropNetwork.controller.app[0].sink meanBitLifeTimePerPacket:histogram:numbins 47
scalar MultidropNetwork.controller.app[0].sink meanBitLifeTimePerPacket:histogram:rangemin 0
scalar MultidropNetwork.controller.app[0].sink meanBitLifeTimePerPacket:histogram:rangemax 0.0023500000000000001
scalar MultidropNetwork.controller.app[0].sink meanBitLifeTimePerPacket:histogram:underflows 0
scalar MultidropNetwork.controller.app[0].sink meanBitLifeTimePerPacket:histogram:overflows 0
scalar MultidropNetwork.controller.app[0].sink packetLifeTime:histogram:count 335
scalar MultidropNetwork.controller.app[0].sink packetLifeTime:histogram:sumweights 335
scalar MultidropNetwork.controller.app[0].sink packetLifeTime:histogram:mean 0.00070171324477611948
scalar MultidropNetwork.controller.app[0].sink packetLifeTime:histogram:stddev 0.00037679808448865942
scalar MultidropNetwork.controller.app[0].sink packetLifeTime:histogram:min 6.0449999999999999e-05
scalar MultidropNetwork.controller.app[0].sink packetLifeTime:histogram:max 0.002279498
scalar MultidropNetwork.controller.app[0].sink packetLifeTime:histogram:numbins 47
scalar MultidropNetwork.controller.app[0].sink packetLifeTime:histogram:rangemin 0
scalar MultidropNetwork.controller.app[0].sink packetLifeTime:histogram:rangemax 0.0023500000000000001
scalar MultidropNetwork.controller.app[0].sink packetLifeTime:histogram:underflows 0
scalar MultidropNetwork.controller.app[0].sink packetLifeTime:histogram:overflows 0
scalar MultidropNetwork.controller.app[0].sink packetJitter:histogram:count 335
scalar MultidropNetwork.controller.app[0].sink packetJitter:histogram:sumweights 335
scalar MultidropNetwork.controller.app[0].sink packetJitter:histogram:mean 1.6156537313432815e-06
scalar MultidropNetwork.controller.app[0].sink packetJitter:histogram:stddev 0.00052656367464763341
scalar MultidropNetwork.controller.app[0].sink packetJitter:histogram:min -0.001631984
scalar MultidropNetwork.controller.app[0].sink packetJitter:histogram:max 0.0011872160000000001
scalar MultidropNetwork.controller.app[0].sink packetJitter:histogram:numbins 79
scalar MultidropNetwork.controller.app[0].sink packetJitter:histogram:rangemin -0.00215
scalar MultidropNetwork.controller.app[0].sink packetJitter:histogram:rangemax 0.0018000000000000004
scalar MultidropNetwork.controller.app[0].sink packetJitter:histogram:underflows 0
scalar MultidropNetwork.controller.app[0].sink packetJitter:histogram:overflows 0
scalar MultidropNetwork.controller.app[0].sink packetDelayDifferenceToMean:histogram:count 335
scalar MultidropNetwork.controller.app[0].sink packetDelayDifferenceToMean:histogram:sumweights 335
scalar MultidropNetwork.controller.app[0].sink packetDelayDifferenceToMean:histogram:mean 7.1990953174479653e-06
scalar MultidropNetwork.controller.app[0].sink packetDelayDifferenceToMean:histogram:stddev 0.00037356502978037046
scalar MultidropNetwork.controller.app[0].sink packetDelayDifferenceToMean:histogram:min -0.001562865258064516
scalar MultidropNetwork.controller.app[0].sink packetDelayDifferenceToMean:histogram:max 0.00064654978333333348
scalar MultidropNetwork.controller.app[0].sink packetDelayDifferenceToMean:histogram:numbins 54
scalar MultidropNetwork.controller.app[0].sink packetDelayDifferenceToMean:histogram:rangemin -0.0016000000000000001
scalar MultidropNetwork.controller.app[0].sink packetDelayDifferenceToMean:histogram:rangemax 0.0011000000000000001
scalar MultidropNetwork.controller.app[0].sink packetDelayDifferenceToMean:histogram:underflows 0
scalar MultidropNetwork.controller.app[0].sink packetDelayDifferenceToMean:histogram:overflows 0
scalar MultidropNetwork.controller.app[0].sink packetDelayVariation:histogram:count 335
scalar MultidropNetwork.controller.app[0].sink packetDelayVariation:histogram:sumweights 335
scalar MultidropNetwork.controller.app[0].sink packetDelayVariation:histogram:mean 0.00038180878744818741
scalar MultidropNetwork.controller.app[0].sink packetDelayVariation:histogram:stddev 3.5194778449180878e-05
scalar MultidropNetwork.controller.app[0].sink packetDelayVariation:histogram:min 0
scalar MultidropNetwork.controller.app[0].sink packetDelayVariation:histogram:max 0.0004448284021847745
scalar MultidropNetwork.controller.app[0].sink packetDelayVariation:histogram:numbins 56
scalar MultidropNetwork.controller.app[0].sink packetDelayVariation:histogram:rangemin 0
scalar MultidropNetwork.controller.app[0].sink packetDelayVariation:histogram:rangemax 0.00056000000000000006
scalar MultidropNetwork.controller.app[0].sink packetDelayVariation:histogram:underflows 0
scalar MultidropNetwork.controller.app[0].sink packetDelayVariation:histogram:overflows 0
scalar MultidropNetwork.controller.app[0].sink droppedPacketLengths:histogram:count 335
scalar MultidropNetwork.controller.app[0].sink droppedPacketLengths:histogram:sumweights 335
scalar MultidropNetwork.controller.app[0].sink droppedPacketLengths:histogram:mean 6263.5223880597014
scalar MultidropNetwork.controller.app[0].sink droppedPacketLengths:histogram:stddev 3375.5978080368263
scalar MultidropNetwork.controller.app[0].sink droppedPacketLengths:histogram:min 368
scalar MultidropNetwork.controller.app[0].sink droppedPacketLengths:histogram:max 11968
scalar MultidropNetwork.controller.app[0].sink droppedPacketLengths:histogram:numbins 75
scalar MultidropNetwork.controller.app[0].sink droppedPacketLengths:histogram:rangemin 0
scalar MultidropNetwork.controller.app[0].sink droppedPacketLengths:histogram:rangemax 15000
scalar MultidropNetwork.controller.app[0].sink droppedPacketLengths:histogram:underflows 0
scalar MultidropNetwork.controller.app[0].sink droppedPacketLengths:histogram:overflows 0
scalar MultidropNetwork.node[0].eth[0].queue queueingTime:histogram:count 335
scalar MultidropNetwork.node[0].eth[0].queue queueingTime:histogram:sumweights 335
scalar MultidropNetwork.node[0].eth[0].queue queueingTime:histogram:mean 3.0985738805970146e-05
scalar MultidropNetwork.node[0].eth[0].queue queueingTime:histogram:stddev 0.00015223739563103133
scalar MultidropNetwork.node[0].eth[0].queue queueingTime:histogram:min 0
scalar MultidropNetwork.node[0].eth[0].queue queueingTime:histogram:max 0.0012347335
scalar MultidropNetwork.node[0].eth[0].queue queueingTime:histogram:numbins 62
scalar MultidropNetwork.node[0].eth[0].queue queueingTime:histogram:rangemin 0
scalar MultidropNetwork.node[0].eth[0].queue queueingTime:histogram:rangemax 0.00124
scalar MultidropNetwork.node[0].eth[0].queue queueingTime:histogram:underflows 0
scalar MultidropNetwork.node[0].eth[0].queue queueingTime:histogram:overflows 0
scalar MultidropNetwork.node[0].eth[0].queue outgoingPacketLengths:histogram:count 335
scalar MultidropNetwork.node[0].eth[0].queue outgoingPacketLengths:histogram:sumweights 335
scalar MultidropNetwork.node[0].eth[0].queue outgoingPacketLengths:histogram:mean 6407.5223880597014
scalar MultidropNetwork.node[0].eth[0].queue outgoingPacketLengths:histogram:stddev 3375.5978080368263
scalar MultidropNetwork.node[0].eth[0].queue outgoingPacketLengths:histogram:min 512
scalar MultidropNetwork.node[0].eth[0].queue outgoingPacketLengths:histogram:max 12112
scalar MultidropNetwork.node[0].eth[0].queue outgoingPacketLengths:histogram:numbins 76
scalar MultidropNetwork.node[0].eth[0].queue outgoingPacketLengths:histogram:rangemin 0
scalar MultidropNetwork.node[0].eth[0].queue outgoingPacketLengths:histogram:rangemax 15200
scalar MultidropNetwork.node[0].eth[0].queue outgoingPacketLengths:histogram:underflows 0
scalar MultidropNetwork.node[0].eth[0].queue outgoingPacketLengths:histogram:overflows 0
scalar MultidropNetwork.node[0].eth[0].queue flowQueueingTime:histogram:count 0
scalar MultidropNetwork.node[0].eth[0].queue flowQueueingTime:histogram:sumweights 0
scalar MultidropNetwork.node[0].eth[0].queue flowQueueingTime:histogram:mean -nan
scalar MultidropNetwork.node[0].eth[0].queue flowQueueingTime:histogram:stddev nan
scalar MultidropNetwork.node[0].eth[0].queue flowQueueingTime:histogram:min nan
scalar MultidropNetwork.node[0].eth[0].queue flowQueueingTime:histogram:max nan
scalar MultidropNetwork.node[0].eth[0].queue flowQueueingTime:histogram:numbins 1
scalar MultidropNetwork.node[0].eth[0].queue flowQueueingTime:histogram:rangemin 0
scalar MultidropNetwork.node[0].eth[0].queue flowQueueingTime:histogram:rangemax 1
scalar MultidropNetwork.node[0].eth[0].queue flowQueueingTime:histogram:underflows 0
scalar MultidropNetwork.node[0].eth[0].queue flowQueueingTime:histogram:overflows 0
scalar MultidropNetwork.node[0].eth[0].queue incomingPacketLengths:histogram:count 335
scalar MultidropNetwork.node[0].eth[0].queue incomingPacketLengths:histogram:sumweights 335
scalar MultidropNetwork.node[0].eth[0].queue incomingPacketLengths:histogram:mean 6407.5223880597014
scalar MultidropNetwork.node[0].eth[0].queue incomingPacketLengths:histogram:stddev 3375.5978080368263
scalar MultidropNetwork.node[0].eth[0].queue incomingPacketLengths:histogram:min 512
scalar MultidropNetwork.node[0].eth[0].queue incomingPacketLengths:histogram:max 12112
scalar MultidropNetwork.node[0].eth[0].queue incomingPacketLengths:histogram:numbins 76
scalar MultidropNetwork.node[0].eth[0].queue incomingPacketLengths:histogram:rangemin 0
scalar MultidropNetwork.node[0].eth[0].queue incomingPacketLengths:histogram:rangemax 15200
scalar MultidropNetwork.node[0].eth[0].queue incomingPacketLengths:histogram:underflows 0
scalar MultidropNetwork.node[0].eth[0].queue incomingPacketLengths:histogram:overflows 0
scalar MultidropNetwork.node[0].eth[0].plca packetInterval:histogram:count 334
scalar MultidropNetwork.node[0].eth[0].plca packetInterval:histogram:sumweights 334
scalar MultidropNetwork.node[0].eth[0].plca packetInterval:histogram:mean 0.0029760527634730524
scalar MultidropNetwork.node[0].eth[0].plca packetInterval:histogram:stddev 0.0015809102655451508
scalar MultidropNetwork.node[0].eth[0].plca packetInterval:histogram:min 8.1615999999999999e-05
scalar MultidropNetwork.node[0].eth[0].plca packetInterval:histogram:max 0.0080612289999999996
scalar MultidropNetwork.node[0].eth[0].plca packetInterval:histogram:numbins 87
scalar MultidropNetwork.node[0].eth[0].plca packetInterval:histogram:rangemin 0
scalar MultidropNetwork.node[0].eth[0].plca packetInterval:histogram:rangemax 0.0087000000000000011
scalar MultidropNetwork.node[0].eth[0].plca packetInterval:histogram:underflows 0
scalar MultidropNetwork.node[0].eth[0].plca packetInterval:histogram:overflows 0
scalar MultidropNetwork.node[0].eth[0].plca packetPendingDelay:histogram:count 335
scalar MultidropNetwork.node[0].eth[0].plca packetPendingDelay:histogram:sumweights 335
scalar MultidropNetwork.node[0].eth[0].plca packetPendingDelay:histogram:mean 2.2767767164179097e-05
scalar MultidropNetwork.node[0].eth[0].plca packetPendingDelay:histogram:stddev 2.9579216331344263e-05
scalar MultidropNetwork.node[0].eth[0].plca packetPendingDelay:histogram:min 1.35e-08
scalar MultidropNetwork.node[0].eth[0].plca packetPendingDelay:histogram:max 6.83495e-05
scalar MultidropNetwork.node[0].eth[0].plca packetPendingDelay:histogram:numbins 86
scalar MultidropNetwork.node[0].eth[0].plca packetPendingDelay:histogram:rangemin 0
scalar MultidropNetwork.node[0].eth[0].plca packetPendingDelay:histogram:rangemax 8.6000000000000017e-05
scalar MultidropNetwork.node[0].eth[0].plca packetPendingDelay:histogram:underflows 0
scalar MultidropNetwork.node[0].eth[0].plca packetPendingDelay:histogram:overflows 0
scalar MultidropNetwork.node[0].eth[0].phy throughput:histogram:count 10
scalar MultidropNetwork.node[0].eth[0].phy throughput:histogram:sumweights 10
scalar MultidropNetwork.node[0].eth[0].phy throughput:histogram:mean 2177944
scalar MultidropNetwork.node[0].eth[0].phy throughput:histogram:stddev 149599.48211437394
scalar MultidropNetwork.node[0].eth[0].phy throughput:histogram:min 1918240.0000000002
scalar MultidropNetwork.node[0].eth[0].phy throughput:histogram:max 2422320
scalar MultidropNetwork.node[0].eth[0].phy throughput:histogram:numbins 76
scalar MultidropNetwork.node[0].eth[0].phy throughput:histogram:rangemin 1790000
scalar MultidropNetwork.node[0].eth[0].phy throughput:histogram:rangemax 2550000
scalar MultidropNetwork.node[0].eth[0].phy throughput:histogram:underflows 0
scalar MultidropNetwork.node[0].eth[0].phy throughput:histogram:overflows 0
scalar MultidropNetwork.node[0].eth[0].phy transmissionTime:histogram:count 670
scalar MultidropNetwork.node[0].eth[0].phy transmissionTime:histogram:sumweights 670
scalar MultidropNetwork.node[0].eth[0].phy transmissionTime:histogram:mean 0.00032546626865671629
scalar MultidropNetwork.node[0].eth[0].phy transmissionTime:histogram:stddev 0.00040131119181024001
scalar MultidropNetwork.node[0].eth[0].phy transmissionTime:histogram:min 0
scalar MultidropNetwork.node[0].eth[0].phy transmissionTime:histogram:max 0.0012183999999999999
scalar MultidropNetwork.node[0].eth[0].phy transmissionTime:histogram:numbins 76
scalar MultidropNetwork.node[0].eth[0].phy transmissionTime:histogram:rangemin 0
scalar MultidropNetwork.node[0].eth[0].phy transmissionTime:histogram:rangemax 0.0015200000000000001
scalar MultidropNetwork.node[0].eth[0].phy transmissionTime:histogram:underflows 0
scalar MultidropNetwork.node[0].eth[0].phy transmissionTime:histogram:overflows 0
scalar MultidropNetwork.node[0].app[0].source packetLengths:histogram:count 335
scalar MultidropNetwork.node[0].app[0].source packetLengths:histogram:sumweights 335
scalar MultidropNetwork.node[0].app[0].source packetLengths:histogram:mean 6263.5223880597014
scalar MultidropNetwork.node[0].app[0].source packetLengths:histogram:stddev 3375.5978080368263
scalar MultidropNetwork.node[0].app[0].source packetLengths:histogram:min 368
scalar MultidropNetwork.node[0].app[0].source packetLengths:histogram:max 11968
scalar MultidropNetwork.node[0].app[0].source packetLengths:histogram:numbins 75
scalar MultidropNetwork.node[0].app[0].source packetLengths:histogram:rangemin 0
scalar MultidropNetwork.node[0].app[0].source packetLengths:histogram:rangemax 15000
scalar MultidropNetwork.node[0].app[0].source packetLengths:histogram:underflows 0
scalar MultidropNetwork.node[0].app[0].source packetLengths:histogram:overflows 0
statistic MultidropNetwork.controller.eth[0].queue queueingTime:histogram
field count 0
field mean -nan
field stddev nan
field min nan
field max nan
field sum 0
field sqrsum 0
bin	-inf	0
bin	0	0
bin	1	0
statistic MultidropNetwork.controller.eth[0].queue outgoingPacketLengths:histogram
field count 0
field mean -nan
field stddev nan
field min nan
field max nan
field sum 0
field sqrsum 0
bin	-inf	0
bin	0	0
bin	1	0
statistic MultidropNetwork.controller.eth[0].queue flowQueueingTime:histogram
field count 0
field mean -nan
field stddev nan
field min nan
field max nan
field sum 0
field sqrsum 0
bin	-inf	0
bin	0	0
bin	1	0
statistic MultidropNetwork.controller.eth[0].queue incomingPacketLengths:histogram
field count 0
field mean -nan
field stddev nan
field min nan
field max nan
field sum 0
field sqrsum 0
bin	-inf	0
bin	0	0
bin	1	0
statistic MultidropNetwork.controller.eth[0].plca packetInterval:histogram
field count 0
field mean -nan
field stddev nan
field min nan
field max nan
field sum 0
field sqrsum 0
bin	-inf	0
bin	0	0
bin	1	0
statistic MultidropNetwork.controller.eth[0].plca packetPendingDelay:histogram
field count 0
field mean -nan
field stddev nan
field min nan
field max nan
field sum 0
field sqrsum 0
bin	-inf	0
bin	0	0
bin	1	0
statistic MultidropNetwork.controller.eth[0].phy throughput:histogram
field count 933
field mean 2062108.6067495907
field stddev 511525.70862867503
field min 382952.19377993728
field max 2380668.9679800025
field sum 1923947330.0973682
field sqrsum 4211254117474759
bin	-inf	0
bin	300000	0
bin	350000	1
bin	400000	0
bin	450000	0
bin	500000	1
bin	550000	1
bin	600000	2
bin	650000	2
bin	700000	2
bin	750000	2
bin	800000	4
bin	850000	5
bin	900000	2
bin	950000	19
bin	1000000	15
bin	1050000	20
bin	1100000	17
bin	1150000	14
bin	1200000	19
bin	1250000	18
bin	1300000	15
bin	1350000	12
bin	1400000	14
bin	1450000	11
bin	1500000	9
bin	1550000	3
bin	1600000	12
bin	1650000	11
bin	1700000	10
bin	1750000	6
bin	1800000	8
bin	1850000	7
bin	1900000	8
bin	1950000	4
bin	2000000	6
bin	2050000	4
bin	2100000	8
bin	2150000	5
bin	2200000	2
bin	2250000	0
bin	2300000	0
bin	2350000	634
bin	2400000	0
bin	2450000	0
bin	2500000	0
bin	2550000	0
bin	2600000	0
bin	2650000	0
bin	2700000	0
bin	2750000	0
bin	2800000	0
statistic MultidropNetwork.controller.eth[0].phy transmissionTime:histogram
field count 93204
field mean 2.0000000000015568e-06
field stddev 0
field min 1.9999999999999999e-06
field max 1.9999999999999999e-06
field sum 0.1864080000001451
field sqrsum 3.7281600000034376e-07
bin	-inf	0
bin	0	93204
bin	0.01	0
bin	0.02	0
bin	0.029999999999999999	0
bin	0.040000000000000001	0
bin	0.050000000000000003	0
bin	0.059999999999999998	0
bin	0.070000000000000007	0
bin	0.080000000000000002	0
bin	0.089999999999999997	0
bin	0.10000000000000001	0
bin	0.11	0
bin	0.12	0
bin	0.13	0
bin	0.14000000000000001	0
bin	0.14999999999999999	0
bin	0.16	0
bin	0.17000000000000001	0
bin	0.17999999999999999	0
bin	0.19	0
bin	0.20000000000000001	0
bin	0.20999999999999999	0
bin	0.22	0
bin	0.23000000000000001	0
bin	0.23999999999999999	0
bin	0.25	0
bin	0.26000000000000001	0
bin	0.27000000000000002	0
bin	0.28000000000000003	0
bin	0.28999999999999998	0
bin	0.29999999999999999	0
bin	0.31	0
bin	0.32000000000000001	0
bin	0.33000000000000002	0
bin	0.34000000000000002	0
bin	0.35000000000000003	0
bin	0.35999999999999999	0
bin	0.37	0
bin	0.38	0
bin	0.39000000000000001	0
bin	0.40000000000000002	0
bin	0.41000000000000003	0
bin	0.41999999999999998	0
bin	0.42999999999999999	0
bin	0.44	0
bin	0.45000000000000001	0
bin	0.46000000000000002	0
bin	0.47000000000000003	0
bin	0.47999999999999998	0
bin	0.48999999999999999	0
bin	0.5	0
bin	0.51000000000000001	0
statistic MultidropNetwork.controller.app[0].sink packetLengths:histogram
field count 335
field mean 6263.5223880597014
field stddev 3375.5978080368263
field min 368
field max 11968
field sum 2098280
field sqrsum 16948440384
bin	-inf	0
bin	0	0
bin	200	2
bin	400	6
bin	600	5
bin	800	5
bin	1000	4
bin	1200	8
bin	1400	4
bin	1600	7
bin	1800	6
bin	2000	6
bin	2200	3
bin	2400	5
bin	2600	4
bin	2800	9
bin	3000	2
bin	3200	11
bin	3400	7
bin	3600	4
bin	3800	6
bin	4000	2
bin	4200	6
bin	4400	6
bin	4600	3
bin	4800	6
bin	5000	4
bin	5200	8
bin	5400	8
bin	5600	6
bin	5800	6
bin	6000	3
bin	6200	4
bin	6400	12
bin	6600	3
bin	6800	6
bin	7000	9
bin	7200	4
bin	7400	9
bin	7600	6
bin	7800	7
bin	8000	3
bin	8200	2
bin	8400	5
bin	8600	8
bin	8800	6
bin	9000	6
bin	9200	7
bin	9400	5
bin	9600	9
bin	9800	5
bin	10000	2
bin	10200	11
bin	10400	3
bin	10600	3
bin	10800	4
bin	11000	7
bin	11200	6
bin	11400	4
bin	11600	6
bin	11800	11
bin	12000	0
bin	12200	0
bin	12400	0
bin	12600	0
bin	12800	0
bin	13000	0
bin	13200	0
bin	13400	0
bin	13600	0
bin	13800	0
bin	14000	0
bin	14200	0
bin	14400	0
bin	14600	0
bin	14800	0
bin	15000	0
statistic MultidropNetwork.controller.app[0].sink meanBitLifeTimePerPacket:histogram
field count 335
field mean 0.00070171324477611948
field stddev 0.00037679808448865942
field min 6.0449999999999999e-05
field max 0.002279498
field sum 0.23507393700000001
field sqrsum 0.00021237474511699093
bin	-inf	0
bin	0	0
bin	5.0000000000000002e-05	7
bin	0.0001	14
bin	0.00015000000000000001	11
bin	0.00020000000000000001	13
bin	0.00025000000000000001	12
bin	0.00030000000000000003	14
bin	0.00035	17
bin	0.00040000000000000002	12
bin	0.00045000000000000004	10
bin	0.00050000000000000001	13
bin	0.00055000000000000003	20
bin	0.00060000000000000006	10
bin	0.00065000000000000008	15
bin	0.00069999999999999999	18
bin	0.00075000000000000002	18
bin	0.00080000000000000004	11
bin	0.00085000000000000006	10
bin	0.00090000000000000008	13
bin	0.00095	16
bin	0.001	13
bin	0.0010500000000000002	13
bin	0.0011000000000000001	12
bin	0.00115	15
bin	0.0012000000000000001	11
bin	0.00125	8
bin	0.0013000000000000002	2
bin	0.0013500000000000001	0
bin	0.0014	1
bin	0.0014500000000000001	0
bin	0.0015	0
bin	0.0015500000000000002	1
bin	0.0016000000000000001	0
bin	0.00165	1
bin	0.0017000000000000001	1
bin	0.00175	0
bin	0.0018000000000000002	1
bin	0.0018500000000000001	1
bin	0.0019	0
bin	0.0019500000000000001	0
bin	0.002	0
bin	0.0020500000000000002	0
bin	0.0021000000000000003	0
bin	0.00215	0
bin	0.0022000000000000001	0
bin	0.0022500000000000003	1
bin	0.0023	0
bin	0.0023500000000000001	0
statistic MultidropNetwork.controller.app[0].sink packetLifeTime:histogram
field count 335
field mean 0.00070171324477611948
field stddev 0.00037679808448865942
field min 6.0449999999999999e-05
field max 0.002279498
field sum 0.23507393700000001
field sqrsum 0.00021237474511699093
bin	-inf	0
bin	0	0
bin	5.0000000000000002e-05	7
bin	0.0001	14
bin	0.00015000000000000001	11
bin	0.00020000000000000001	13
bin	0.00025000000000000001	12
bin	0.00030000000000000003	14
bin	0.00035	17
bin	0.00040000000000000002	12
bin	0.00045000000000000004	10
bin	0.00050000000000000001	13
bin	0.00055000000000000003	20
bin	0.00060000000000000006	10
bin	0.00065000000000000008	15
bin	0.00069999999999999999	18
bin	0.00075000000000000002	18
bin	0.00080000000000000004	11
bin	0.00085000000000000006	10
bin	0.00090000000000000008	13
bin	0.00095	16
bin	0.001	13
bin	0.0010500000000000002	13
bin	0.0011000000000000001	12
bin	0.00115	15
bin	0.0012000000000000001	11
bin	0.00125	8
bin	0.0013000000000000002	2
bin	0.0013500000000000001	0
bin	0.0014	1
bin	0.0014500000000000001	0
bin	0.0015	0
bin	0.0015500000000000002	1
bin	0.0016000000000000001	0
bin	0.00165	1
bin	0.0017000000000000001	1
bin	0.00175	0
bin	0.0018000000000000002	1
bin	0.0018500000000000001	1
bin	0.0019	0
bin	0.0019500000000000001	0
bin	0.002	0
bin	0.0020500000000000002	0
bin	0.0021000000000000003	0
bin	0.00215	0
bin	0.0022000000000000001	0
bin	0.0022500000000000003	1
bin	0.0023	0
bin	0.0023500000000000001	0
statistic MultidropNetwork.controller.app[0].sink packetJitter:histogram
field count 335
field mean 1.6156537313432815e-06
field stddev 0.00052656367464763341
field min -0.001631984
field max 0.0011872160000000001
field sum 0.00054124399999999932
field sqrsum 9.260882181800001e-05
bin	-inf	0
bin	-0.00215	0
bin	-0.0020999999999999999	0
bin	-0.0020500000000000002	0
bin	-0.002	0
bin	-0.0019499999999999999	0
bin	-0.0019	0
bin	-0.0018500000000000001	0
bin	-0.0018	0
bin	-0.00175	0
bin	-0.0016999999999999999	0
bin	-0.00165	1
bin	-0.0015999999999999999	0
bin	-0.0015499999999999999	0
bin	-0.0015	1
bin	-0.0014499999999999999	0
bin	-0.0014	0
bin	-0.0013500000000000001	0
bin	-0.0012999999999999999	0
bin	-0.0012499999999999998	0
bin	-0.0012000000000000001	2
bin	-0.00115	0
bin	-0.0010999999999999998	2
bin	-0.0010499999999999999	4
bin	-0.001	0
bin	-0.00094999999999999989	3
bin	-0.00089999999999999998	4
bin	-0.00084999999999999984	5
bin	-0.00079999999999999993	4
bin	-0.00075000000000000002	7
bin	-0.00069999999999999988	5
bin	-0.00064999999999999997	6
bin	-0.00059999999999999984	8
bin	-0.00054999999999999992	10
bin	-0.00050000000000000001	10
bin	-0.00044999999999999988	8
bin	-0.00039999999999999996	7
bin	-0.00034999999999999983	10
bin	-0.00029999999999999992	11
bin	-0.00025000000000000001	11
bin	-0.00019999999999999987	13
bin	-0.00014999999999999996	11
bin	-9.9999999999999829e-05	10
bin	-4.9999999999999697e-05	12
bin	0	13
bin	5.0000000000000131e-05	14
bin	0.00010000000000000026	9
bin	0.00014999999999999996	18
bin	0.00020000000000000009	9
bin	0.00025000000000000022	8
bin	0.00029999999999999992	8
bin	0.00035000000000000005	5
bin	0.00040000000000000018	12
bin	0.00045000000000000031	11
bin	0.00050000000000000001	5
bin	0.00055000000000000014	11
bin	0.00060000000000000027	6
bin	0.00064999999999999997	11
bin	0.0007000000000000001	3
bin	0.00075000000000000023	5
bin	0.00079999999999999993	3
bin	0.00085000000000000006	2
bin	0.00090000000000000019	4
bin	0.00095000000000000032	6
bin	0.001	3
bin	0.0010500000000000002	1
bin	0.0011000000000000003	2
bin	0.00115	1
bin	0.0012000000000000001	0
bin	0.0012500000000000002	0
bin	0.0013000000000000004	0
bin	0.0013500000000000001	0
bin	0.0014000000000000002	0
bin	0.0014500000000000003	0
bin	0.0015	0
bin	0.0015500000000000002	0
bin	0.0016000000000000003	0
bin	0.00165	0
bin	0.0017000000000000001	0
bin	0.0017500000000000003	0
bin	0.0018000000000000004	0
statistic MultidropNetwork.controller.app[0].sink packetDelayDifferenceToMean:histogram
field count 335
field mean 7.1990953174479653e-06
field stddev 0.00037356502978037046
field min -0.001562865258064516
field max 0.00064654978333333348
field sum 0.0024116969313450684
field sqrsum 4.6627339748671775e-05
bin	-inf	0
bin	-0.0016000000000000001	1
bin	-0.0015500000000000002	0
bin	-0.0015	0
bin	-0.0014500000000000001	0
bin	-0.0014	0
bin	-0.0013500000000000001	0
bin	-0.0012999999999999999	0
bin	-0.00125	0
bin	-0.0012000000000000001	0
bin	-0.00115	1
bin	-0.0011000000000000001	0
bin	-0.0010500000000000002	1
bin	-0.001	1
bin	-0.00095	2
bin	-0.00090000000000000008	0
bin	-0.00085000000000000006	0
bin	-0.00080000000000000004	0
bin	-0.00075000000000000002	0
bin	-0.00069999999999999999	1
bin	-0.00065000000000000008	2
bin	-0.00060000000000000006	7
bin	-0.00054999999999999992	10
bin	-0.00050000000000000001	14
bin	-0.0004500000000000001	12
bin	-0.00039999999999999996	14
bin	-0.00035000000000000005	14
bin	-0.00029999999999999992	17
bin	-0.00025000000000000001	9
bin	-0.00020000000000000009	9
bin	-0.00014999999999999996	11
bin	-0.00010000000000000005	20
bin	-4.9999999999999914e-05	15
bin	0	20
bin	4.9999999999999914e-05	10
bin	0.00010000000000000005	17
bin	0.00014999999999999996	15
bin	0.00020000000000000009	9
bin	0.00025000000000000001	13
bin	0.00029999999999999992	13
bin	0.00035000000000000005	16
bin	0.00039999999999999996	14
bin	0.0004500000000000001	15
bin	0.00050000000000000023	12
bin	0.00054999999999999992	13
bin	0.00060000000000000006	7
bin	0.00065000000000000019	0
bin	0.00069999999999999988	0
bin	0.00075000000000000002	0
bin	0.00080000000000000015	0
bin	0.00084999999999999984	0
bin	0.00089999999999999998	0
bin	0.00095000000000000011	0
bin	0.0010000000000000002	0
bin	0.0010499999999999999	0
bin	0.0011000000000000001	0
statistic MultidropNetwork.controller.app[0].sink packetDelayVariation:histogram
field count 335
field mean 0.00038180878744818741
field stddev 3.5194778449180878e-05
field min 0
field max 0.0004448284021847745
field sum 0.12790594379514278
field sqrsum 4.9249329899488507e-05
bin	-inf	0
bin	0	2
bin	1.0000000000000001e-05	0
bin	2.0000000000000002e-05	0
bin	3.0000000000000004e-05	0
bin	4.0000000000000003e-05	0
bin	5.0000000000000002e-05	0
bin	6.0000000000000008e-05	0
bin	7.0000000000000007e-05	0
bin	8.0000000000000007e-05	0
bin	9.0000000000000006e-05	0
bin	0.0001	0
bin	0.00011	0
bin	0.00012000000000000002	0
bin	0.00013000000000000002	0
bin	0.00014000000000000001	0
bin	0.00015000000000000001	0
bin	0.00016000000000000001	0
bin	0.00017000000000000001	0
bin	0.00018000000000000001	0
bin	0.00019000000000000001	0
bin	0.00020000000000000001	0
bin	0.00021000000000000001	1
bin	0.00022000000000000001	0
bin	0.00023000000000000001	1
bin	0.00024000000000000003	0
bin	0.00025000000000000001	1
bin	0.00026000000000000003	0
bin	0.00027	0
bin	0.00028000000000000003	0
bin	0.00029	1
bin	0.00030000000000000003	0
bin	0.00031	0
bin	0.00032000000000000003	0
bin	0.00033000000000000005	0
bin	0.00034000000000000002	0
bin	0.00035000000000000005	0
bin	0.00036000000000000002	4
bin	0.00037000000000000005	124
bin	0.00038000000000000002	127
bin	0.00039000000000000005	32
bin	0.00040000000000000002	21
bin	0.00041000000000000005	15
bin	0.00042000000000000002	3
bin	0.00043000000000000004	2
bin	0.00044000000000000002	1
bin	0.00045000000000000004	0
bin	0.00046000000000000001	0
bin	0.00047000000000000004	0
bin	0.00048000000000000007	0
bin	0.00049000000000000009	0
bin	0.00050000000000000001	0
bin	0.00051000000000000004	0
bin	0.00052000000000000006	0
bin	0.00053000000000000009	0
bin	0.00054000000000000001	0
bin	0.00055000000000000003	0
bin	0.00056000000000000006	0
statistic MultidropNetwork.controller.app[0].sink droppedPacketLengths:histogram
field count 335
field mean 6263.5223880597014
field stddev 3375.5978080368263
field min 368
field max 11968
field sum 2098280
field sqrsum 16948440384
bin	-inf	0
bin	0	0
bin	200	2
bin	400	6
bin	600	5
bin	800	5
bin	1000	4
bin	1200	8
bin	1400	4
bin	1600	7
bin	1800	6
bin	2000	6
bin	2200	3
bin	2400	5
bin	2600	4
bin	2800	9
bin	3000	2
bin	3200	11
bin	3400	7
bin	3600	4
bin	3800	6
bin	4000	2
bin	4200	6
bin	4400	6
bin	4600	3
bin	4800	6
bin	5000	4
bin	5200	8
bin	5400	8
bin	5600	6
bin	5800	6
bin	6000	3
bin	6200	4
bin	6400	12
bin	6600	3
bin	6800	6
bin	7000	9
bin	7200	4
bin	7400	9
bin	7600	6
bin	7800	7
bin	8000	3
bin	8200	2
bin	8400	5
bin	8600	8
bin	8800	6
bin	9000	6
bin	9200	7
bin	9400	5
bin	9600	9
bin	9800	5
bin	10000	2
bin	10200	11
bin	10400	3
bin	10600	3
bin	10800	4
bin	11000	7
bin	11200	6
bin	11400	4
bin	11600	6
bin	11800	11
bin	12000	0
bin	12200	0
bin	12400	0
bin	12600	0
bin	12800	0
bin	13000	0
bin	13200	0
bin	13400	0
bin	13600	0
bin	13800	0
bin	14000	0
bin	14200	0
bin	14400	0
bin	14600	0
bin	14800	0
bin	15000	0
statistic MultidropNetwork.node[0].eth[0].queue queueingTime:histogram
field count 335
field mean 3.0985738805970146e-05
field stddev 0.00015223739563103133
field min 0
field max 0.0012347335
field sum 0.010380222499999999
field sqrsum 8.062497889058251e-06
bin	-inf	0
bin	0	310
bin	2.0000000000000002e-05	1
bin	4.0000000000000003e-05	1
bin	6.0000000000000008e-05	3
bin	8.0000000000000007e-05	1
bin	0.0001	0
bin	0.00012000000000000002	1
bin	0.00014000000000000001	3
bin	0.00016000000000000001	2
bin	0.00018000000000000001	0
bin	0.00020000000000000001	1
bin	0.00022000000000000001	0
bin	0.00024000000000000003	0
bin	0.00026000000000000003	0
bin	0.00028000000000000003	2
bin	0.00030000000000000003	1
bin	0.00032000000000000003	0
bin	0.00034000000000000002	0
bin	0.00036000000000000002	0
bin	0.00038000000000000002	0
bin	0.00040000000000000002	0
bin	0.00042000000000000002	0
bin	0.00044000000000000002	0
bin	0.00046000000000000001	0
bin	0.00048000000000000007	1
bin	0.00050000000000000001	0
bin	0.00052000000000000006	0
bin	0.00054000000000000001	0
bin	0.00056000000000000006	0
bin	0.00058	0
bin	0.00060000000000000006	0
bin	0.00062	0
bin	0.00064000000000000005	0
bin	0.0006600000000000001	0
bin	0.00068000000000000005	2
bin	0.0007000000000000001	0
bin	0.00072000000000000005	1
bin	0.0007400000000000001	0
bin	0.00076000000000000004	0
bin	0.00078000000000000009	0
bin	0.00080000000000000004	0
bin	0.00082000000000000009	0
bin	0.00084000000000000003	1
bin	0.00086000000000000009	0
bin	0.00088000000000000003	0
bin	0.00090000000000000008	0
bin	0.00092000000000000003	0
bin	0.00094000000000000008	0
bin	0.00096000000000000013	0
bin	0.00098000000000000019	1
bin	0.001	0
bin	0.0010200000000000001	0
bin	0.0010400000000000001	0
bin	0.0010600000000000002	0
bin	0.00108	0
bin	0.0011000000000000001	1
bin	0.0011200000000000001	0
bin	0.00114	0
bin	0.00116	0
bin	0.0011800000000000001	0
bin	0.0012000000000000001	1
bin	0.0012199999999999999	1
bin	0.00124	0
statistic MultidropNetwork.node[0].eth[0].queue outgoingPacketLengths:histogram
field count 335
field mean 6407.5223880597014
field stddev 3375.5978080368263
field min 512
field max 12112
field sum 2146520
field sqrsum 17559691584
bin	-inf	0
bin	0	0
bin	200	0
bin	400	3
bin	600	7
bin	800	7
bin	1000	2
bin	1200	4
bin	1400	8
bin	1600	4
bin	1800	7
bin	2000	7
bin	2200	4
bin	2400	5
bin	2600	4
bin	2800	5
bin	3000	7
bin	3200	5
bin	3400	9
bin	3600	8
bin	3800	4
bin	4000	5
bin	4200	2
bin	4400	7
bin	4600	4
bin	4800	4
bin	5000	7
bin	5200	3
bin	5400	12
bin	5600	4
bin	5800	5
bin	6000	6
bin	6200	4
bin	6400	4
bin	6600	12
bin	6800	4
bin	7000	7
bin	7200	9
bin	7400	4
bin	7600	7
bin	7800	8
bin	8000	5
bin	8200	3
bin	8400	4
bin	8600	3
bin	8800	9
bin	9000	4
bin	9200	7
bin	9400	8
bin	9600	8
bin	9800	5
bin	10000	4
bin	10200	6
bin	10400	8
bin	10600	2
bin	10800	5
bin	11000	3
bin	11200	7
bin	11400	5
bin	11600	7
bin	11800	5
bin	12000	9
bin	12200	0
bin	12400	0
bin	12600	0
bin	12800	0
bin	13000	0
bin	13200	0
bin	13400	0
bin	13600	0
bin	13800	0
bin	14000	0
bin	14200	0
bin	14400	0
bin	14600	0
bin	14800	0
bin	15000	0
bin	15200	0
statistic MultidropNetwork.node[0].eth[0].queue flowQueueingTime:histogram
field count 0
field mean -nan
field stddev nan
field min nan
field max nan
field sum 0
field sqrsum 0
bin	-inf	0
bin	0	0
bin	1	0
statistic MultidropNetwork.node[0].eth[0].queue incomingPacketLengths:histogram
field count 335
field mean 6407.5223880597014
field stddev 3375.5978080368263
field min 512
field max 12112
field sum 2146520
field sqrsum 17559691584
bin	-inf	0
bin	0	0
bin	200	0
bin	400	3
bin	600	7
bin	800	7
bin	1000	2
bin	1200	4
bin	1400	8
bin	1600	4
bin	1800	7
bin	2000	7
bin	2200	4
bin	2400	5
bin	2600	4
bin	2800	5
bin	3000	7
bin	3200	5
bin	3400	9
bin	3600	8
bin	3800	4
bin	4000	5
bin	4200	2
bin	4400	7
bin	4600	4
bin	4800	4
bin	5000	7
bin	5200	3
bin	5400	12
bin	5600	4
bin	5800	5
bin	6000	6
bin	6200	4
bin	6400	4
bin	6600	12
bin	6800	4
bin	7000	7
bin	7200	9
bin	7400	4
bin	7600	7
bin	7800	8
bin	8000	5
bin	8200	3
bin	8400	4
bin	8600	3
bin	8800	9
bin	9000	4
bin	9200	7
bin	9400	8
bin	9600	8
bin	9800	5
bin	10000	4
bin	10200	6
bin	10400	8
bin	10600	2
bin	10800	5
bin	11000	3
bin	11200	7
bin	11400	5
bin	11600	7
bin	11800	5
bin	12000	9
bin	12200	0
bin	12400	0
bin	12600	0
bin	12800	0
bin	13000	0
bin	13200	0
bin	13400	0
bin	13600	0
bin	13800	0
bin	14000	0
bin	14200	0
bin	14400	0
bin	14600	0
bin	14800	0
bin	15000	0
bin	15200	0
statistic MultidropNetwork.node[0].eth[0].plca packetInterval:histogram
field count 334
field mean 0.0029760527634730524
field stddev 0.0015809102655451508
field min 8.1615999999999999e-05
field max 0.0080612289999999996
field sum 0.9940016229999995
field sqrsum 0.0037904606071719588
bin	-inf	0
bin	0	1
bin	0.0001	1
bin	0.00020000000000000001	1
bin	0.00030000000000000003	0
bin	0.00040000000000000002	2
bin	0.00050000000000000001	1
bin	0.00060000000000000006	2
bin	0.00069999999999999999	1
bin	0.00080000000000000004	1
bin	0.00090000000000000008	18
bin	0.001	26
bin	0.0011000000000000001	6
bin	0.0012000000000000001	2
bin	0.0013000000000000002	0
bin	0.0014	0
bin	0.0015	1
bin	0.0016000000000000001	1
bin	0.0017000000000000001	0
bin	0.0018000000000000002	2
bin	0.0019	41
bin	0.002	38
bin	0.0021000000000000003	0
bin	0.0022000000000000001	0
bin	0.0023	1
bin	0.0024000000000000002	0
bin	0.0025000000000000001	0
bin	0.0026000000000000003	0
bin	0.0027000000000000001	1
bin	0.0028	2
bin	0.0029000000000000002	33
bin	0.0030000000000000001	39
bin	0.0031000000000000003	0
bin	0.0032000000000000002	0
bin	0.0033	0
bin	0.0034000000000000002	0
bin	0.0035000000000000001	0
bin	0.0036000000000000003	0
bin	0.0037000000000000002	0
bin	0.0038	2
bin	0.0039000000000000003	26
bin	0.0040000000000000001	27
bin	0.0041000000000000003	0
bin	0.0042000000000000006	0
bin	0.0043	0
bin	0.0044000000000000003	0
bin	0.0045000000000000005	0
bin	0.0045999999999999999	0
bin	0.0047000000000000002	0
bin	0.0048000000000000004	0
bin	0.0048999999999999998	19
bin	0.0050000000000000001	15
bin	0.0051000000000000004	0
bin	0.0052000000000000006	0
bin	0.0053	1
bin	0.0054000000000000003	0
bin	0.0055000000000000005	0
bin	0.0055999999999999999	0
bin	0.0057000000000000002	0
bin	0.0058000000000000005	0
bin	0.0058999999999999999	10
bin	0.0060000000000000001	2
bin	0.0061000000000000004	1
bin	0.0062000000000000006	0
bin	0.0063	0
bin	0.0064000000000000003	0
bin	0.0065000000000000006	0
bin	0.0066	0
bin	0.0067000000000000002	0
bin	0.0068000000000000005	0
bin	0.0069000000000000008	6
bin	0.0070000000000000001	3
bin	0.0071000000000000004	0
bin	0.0072000000000000007	0
bin	0.0073000000000000001	0
bin	0.0074000000000000003	0
bin	0.0075000000000000006	0
bin	0.0076	0
bin	0.0077000000000000002	0
bin	0.0078000000000000005	0
bin	0.0079000000000000008	0
bin	0.0080000000000000002	1
bin	0.0080999999999999996	0
bin	0.0082000000000000007	0
bin	0.0083000000000000001	0
bin	0.0084000000000000012	0
bin	0.0085000000000000006	0
bin	0.0086	0
bin	0.0087000000000000011	0
statistic MultidropNetwork.node[0].eth[0].plca packetPendingDelay:histogram
field count 335
field mean 2.2767767164179097e-05
field stddev 2.9579216331344263e-05
field min 1.35e-08
field max 6.83495e-05
field sum 0.0076272019999999979
field sqrsum 4.6588099220149975e-07
bin	-inf	0
bin	0	30
bin	1.0000000000000002e-06	41
bin	2.0000000000000003e-06	35
bin	3.0000000000000005e-06	38
bin	4.0000000000000007e-06	72
bin	5.0000000000000013e-06	15
bin	6.000000000000001e-06	0
bin	7.0000000000000007e-06	0
bin	8.0000000000000013e-06	0
bin	9.0000000000000019e-06	0
bin	1.0000000000000003e-05	0
bin	1.1000000000000001e-05	0
bin	1.2000000000000002e-05	0
bin	1.3000000000000003e-05	0
bin	1.4000000000000001e-05	0
bin	1.5000000000000002e-05	0
bin	1.6000000000000003e-05	0
bin	1.7000000000000003e-05	0
bin	1.8000000000000004e-05	0
bin	1.9000000000000004e-05	0
bin	2.0000000000000005e-05	0
bin	2.1000000000000002e-05	0
bin	2.2000000000000003e-05	0
bin	2.3000000000000003e-05	0
bin	2.4000000000000004e-05	0
bin	2.5000000000000005e-05	0
bin	2.6000000000000005e-05	0
bin	2.7000000000000006e-05	0
bin	2.8000000000000003e-05	0
bin	2.9000000000000004e-05	0
bin	3.0000000000000004e-05	0
bin	3.1000000000000008e-05	0
bin	3.2000000000000005e-05	0
bin	3.3000000000000003e-05	0
bin	3.4000000000000007e-05	0
bin	3.5000000000000004e-05	0
bin	3.6000000000000008e-05	0
bin	3.7000000000000005e-05	0
bin	3.8000000000000009e-05	0
bin	3.9000000000000006e-05	0
bin	4.000000000000001e-05	0
bin	4.1000000000000007e-05	0
bin	4.2000000000000004e-05	0
bin	4.3000000000000008e-05	0
bin	4.4000000000000006e-05	0
bin	4.500000000000001e-05	0
bin	4.6000000000000007e-05	0
bin	4.7000000000000011e-05	0
bin	4.8000000000000008e-05	0
bin	4.9000000000000005e-05	0
bin	5.0000000000000009e-05	0
bin	5.1000000000000006e-05	0
bin	5.200000000000001e-05	0
bin	5.3000000000000008e-05	0
bin	5.4000000000000012e-05	0
bin	5.5000000000000009e-05	0
bin	5.6000000000000006e-05	0
bin	5.700000000000001e-05	0
bin	5.8000000000000007e-05	0
bin	5.9000000000000011e-05	0
bin	6.0000000000000008e-05	0
bin	6.1000000000000012e-05	0
bin	6.2000000000000016e-05	0
bin	6.3000000000000013e-05	0
bin	6.4000000000000011e-05	0
bin	6.5000000000000008e-05	27
bin	6.6000000000000005e-05	34
bin	6.7000000000000016e-05	32
bin	6.8000000000000013e-05	11
bin	6.900000000000001e-05	0
bin	7.0000000000000007e-05	0
bin	7.1000000000000018e-05	0
bin	7.2000000000000015e-05	0
bin	7.3000000000000013e-05	0
bin	7.400000000000001e-05	0
bin	7.5000000000000007e-05	0
bin	7.6000000000000018e-05	0
bin	7.7000000000000015e-05	0
bin	7.8000000000000012e-05	0
bin	7.9000000000000009e-05	0
bin	8.000000000000002e-05	0
bin	8.1000000000000017e-05	0
bin	8.2000000000000015e-05	0
bin	8.3000000000000012e-05	0
bin	8.4000000000000009e-05	0
bin	8.500000000000002e-05	0
bin	8.6000000000000017e-05	0
statistic MultidropNetwork.node[0].eth[0].phy throughput:histogram
field count 10
field mean 2177944
field stddev 149599.48211437394
field min 1918240.0000000002
field max 2422320
field sum 21779440
field sqrsum 47635820716800
bin	-inf	0
bin	1790000	0
bin	1800000	0
bin	1810000	0
bin	1820000	0
bin	1830000	0
bin	1840000	0
bin	1850000	0
bin	1860000	0
bin	1870000	0
bin	1880000	0
bin	1890000	0
bin	1900000	0
bin	1910000	1
bin	1920000	0
bin	1930000	0
bin	1940000	0
bin	1950000	0
bin	1960000	0
bin	1970000	0
bin	1980000	0
bin	1990000	0
bin	2000000	0
bin	2010000	0
bin	2020000	0
bin	2030000	0
bin	2040000	0
bin	2050000	0
bin	2060000	1
bin	2070000	2
bin	2080000	0
bin	2090000	0
bin	2100000	0
bin	2110000	0
bin	2120000	0
bin	2130000	0
bin	2140000	0
bin	2150000	1
bin	2160000	0
bin	2170000	0
bin	2180000	0
bin	2190000	0
bin	2200000	1
bin	2210000	0
bin	2220000	0
bin	2230000	1
bin	2240000	0
bin	2250000	0
bin	2260000	0
bin	2270000	0
bin	2280000	1
bin	2290000	0
bin	2300000	0
bin	2310000	0
bin	2320000	0
bin	2330000	1
bin	2340000	0
bin	2350000	0
bin	2360000	0
bin	2370000	0
bin	2380000	0
bin	2390000	0
bin	2400000	0
bin	2410000	0
bin	2420000	1
bin	2430000	0
bin	2440000	0
bin	2450000	0
bin	2460000	0
bin	2470000	0
bin	2480000	0
bin	2490000	0
bin	2500000	0
bin	2510000	0
bin	2520000	0
bin	2530000	0
bin	2540000	0
bin	2550000	0
statistic MultidropNetwork.node[0].eth[0].phy transmissionTime:histogram
field count 670
field mean 0.00032546626865671629
field stddev 0.00040131119181024001
field min 0
field max 0.0012183999999999999
field sum 0.21806239999999991
field sqrsum 0.00017871485568000015
bin	-inf	0
bin	0	335
bin	2.0000000000000002e-05	0
bin	4.0000000000000003e-05	1
bin	6.0000000000000008e-05	7
bin	8.0000000000000007e-05	5
bin	0.0001	5
bin	0.00012000000000000002	4
bin	0.00014000000000000001	7
bin	0.00016000000000000001	5
bin	0.00018000000000000001	7
bin	0.00020000000000000001	6
bin	0.00022000000000000001	6
bin	0.00024000000000000003	3
bin	0.00026000000000000003	5
bin	0.00028000000000000003	4
bin	0.00030000000000000003	8
bin	0.00032000000000000003	3
bin	0.00034000000000000002	11
bin	0.00036000000000000002	6
bin	0.00038000000000000002	5
bin	0.00040000000000000002	6
bin	0.00042000000000000002	2
bin	0.00044000000000000002	6
bin	0.00046000000000000001	5
bin	0.00048000000000000007	4
bin	0.00050000000000000001	6
bin	0.00052000000000000006	4
bin	0.00054000000000000001	7
bin	0.00056000000000000006	9
bin	0.00058	5
bin	0.00060000000000000006	6
bin	0.00062	4
bin	0.00064000000000000005	4
bin	0.0006600000000000001	12
bin	0.00068000000000000005	3
bin	0.0007000000000000001	6
bin	0.00072000000000000005	9
bin	0.0007400000000000001	4
bin	0.00076000000000000004	9
bin	0.00078000000000000009	6
bin	0.00080000000000000004	7
bin	0.00082000000000000009	3
bin	0.00084000000000000003	2
bin	0.00086000000000000009	5
bin	0.00088000000000000003	7
bin	0.00090000000000000008	6
bin	0.00092000000000000003	7
bin	0.00094000000000000008	7
bin	0.00096000000000000013	5
bin	0.00098000000000000019	9
bin	0.001	5
bin	0.0010200000000000001	2
bin	0.0010400000000000001	10
bin	0.0010600000000000002	4
bin	0.00108	3
bin	0.0011000000000000001	4
bin	0.0011200000000000001	7
bin	0.0011400000000000002	5
bin	0.00116	5
bin	0.0011800000000000001	6
bin	0.0012000000000000001	11
bin	0.0012200000000000002	0
bin	0.00124	0
bin	0.0012600000000000001	0
bin	0.0012800000000000001	0
bin	0.0013000000000000002	0
bin	0.0013200000000000002	0
bin	0.00134	0
bin	0.0013600000000000001	0
bin	0.0013800000000000002	0
bin	0.0014000000000000002	0
bin	0.00142	0
bin	0.0014400000000000001	0
bin	0.0014600000000000001	0
bin	0.0014800000000000002	0
bin	0.0015	0
bin	0.0015200000000000001	0
statistic MultidropNetwork.node[0].app[0].source packetLengths:histogram
field count 335
field mean 6263.5223880597014
field stddev 3375.5978080368263
field min 368
field max 11968
field sum 2098280
field sqrsum 16948440384
bin	-inf	0
bin	0	0
bin	200	2
bin	400	6
bin	600	5
bin	800	5
bin	1000	4
bin	1200	8
bin	1400	4
bin	1600	7
bin	1800	6
bin	2000	6
bin	2200	3
bin	2400	5
bin	2600	4
bin	2800	9
bin	3000	2
bin	3200	11
bin	3400	7
bin	3600	4
bin	3800	6
bin	4000	2
bin	4200	6
bin	4400	6
bin	4600	3
bin	4800	6
bin	5000	4
bin	5200	8
bin	5400	8
bin	5600	6
bin	5800	6
bin	6000	3
bin	6200	4
bin	6400	12
bin	6600	3
bin	6800	6
bin	7000	9
bin	7200	4
bin	7400	9
bin	7600	6
bin	7800	7
bin	8000	3
bin	8200	2
bin	8400	5
bin	8600	8
bin	8800	6
bin	9000	6
bin	9200	7
bin	9400	5
bin	9600	9
bin	9800	5
bin	10000	2
bin	10200	11
bin	10400	3
bin	10600	3
bin	10800	4
bin	11000	7
bin	11200	6
bin	11400	4
bin	11600	6
bin	11800	11
bin	12000	0
bin	12200	0
bin	12400	0
bin	12600	0
bin	12800	0
bin	13000	0
bin	13200	0
bin	13400	0
bin	13600	0
bin	13800	0
bin	14000	0
bin	14200	0
bin	14400	0
bin	14600	0
bin	14800	0
bin	15000	0
scalar MultidropNetwork.controller.ethernet encapPk:vector(packetBytes):count 0
scalar MultidropNetwork.controller.ethernet encapPk:vector(packetBytes):sum 0
scalar MultidropNetwork.controller.ethernet encapPk:vector(packetBytes):sumweights 0
scalar MultidropNetwork.controller.ethernet encapPk:vector(packetBytes):mean -nan
scalar MultidropNetwork.controller.ethernet encapPk:vector(packetBytes):stddev nan
scalar MultidropNetwork.controller.ethernet encapPk:vector(packetBytes):min inf
scalar MultidropNetwork.controller.ethernet encapPk:vector(packetBytes):max -inf
scalar MultidropNetwork.controller.ethernet encapPk:vector(packetBytes):starttime nan
scalar MultidropNetwork.controller.ethernet encapPk:vector(packetBytes):endtime nan
scalar MultidropNetwork.controller.ethernet decapPk:vector(packetBytes):count 0
scalar MultidropNetwork.controller.ethernet decapPk:vector(packetBytes):sum 0
scalar MultidropNetwork.controller.ethernet decapPk:vector(packetBytes):sumweights 0
scalar MultidropNetwork.controller.ethernet decapPk:vector(packetBytes):mean -nan
scalar MultidropNetwork.controller.ethernet decapPk:vector(packetBytes):stddev nan
scalar MultidropNetwork.controller.ethernet decapPk:vector(packetBytes):min inf
scalar MultidropNetwork.controller.ethernet decapPk:vector(packetBytes):max -inf
scalar MultidropNetwork.controller.ethernet decapPk:vector(packetBytes):starttime nan
scalar MultidropNetwork.controller.ethernet decapPk:vector(packetBytes):endtime nan
scalar MultidropNetwork.controller.ethernet pauseSent:vector:count 0
scalar MultidropNetwork.controller.ethernet pauseSent:vector:sum 0
scalar MultidropNetwork.controller.ethernet pauseSent:vector:sumweights 0
scalar MultidropNetwork.controller.ethernet pauseSent:vector:mean -nan
scalar MultidropNetwork.controller.ethernet pauseSent:vector:stddev nan
scalar MultidropNetwork.controller.ethernet pauseSent:vector:min inf
scalar MultidropNetwork.controller.ethernet pauseSent:vector:max -inf
scalar MultidropNetwork.controller.ethernet pauseSent:vector:starttime nan
scalar MultidropNetwork.controller.ethernet pauseSent:vector:endtime nan
scalar MultidropNetwork.controller.eth[0].queue queueLength:vector:count 5
scalar MultidropNetwork.controller.eth[0].queue queueLength:vector:sum 0
scalar MultidropNetwork.controller.eth[0].queue queueLength:vector:sumweights 5
scalar MultidropNetwork.controller.eth[0].queue queueLength:vector:mean 0
scalar MultidropNetwork.controller.eth[0].queue queueLength:vector:stddev 0
scalar MultidropNetwork.controller.eth[0].queue queueLength:vector:min 0
scalar MultidropNetwork.controller.eth[0].queue queueLength:vector:max 0
scalar MultidropNetwork.controller.eth[0].queue queueLength:vector:starttime 0
scalar MultidropNetwork.controller.eth[0].queue queueLength:vector:endtime 0
scalar MultidropNetwork.controller.eth[0].queue queueBitLength:vector:count 5
scalar MultidropNetwork.controller.eth[0].queue queueBitLength:vector:sum 0
scalar MultidropNetwork.controller.eth[0].queue queueBitLength:vector:sumweights 5
scalar MultidropNetwork.controller.eth[0].queue queueBitLength:vector:mean 0
scalar MultidropNetwork.controller.eth[0].queue queueBitLength:vector:stddev 0
scalar MultidropNetwork.controller.eth[0].queue queueBitLength:vector:min 0
scalar MultidropNetwork.controller.eth[0].queue queueBitLength:vector:max 0
scalar MultidropNetwork.controller.eth[0].queue queueBitLength:vector:starttime 0
scalar MultidropNetwork.controller.eth[0].queue queueBitLength:vector:endtime 0
scalar MultidropNetwork.controller.eth[0].queue queueingTime:vector:count 0
scalar MultidropNetwork.controller.eth[0].queue queueingTime:vector:sum 0
scalar MultidropNetwork.controller.eth[0].queue queueingTime:vector:sumweights 0
scalar MultidropNetwork.controller.eth[0].queue queueingTime:vector:mean -nan
scalar MultidropNetwork.controller.eth[0].queue queueingTime:vector:stddev nan
scalar MultidropNetwork.controller.eth[0].queue queueingTime:vector:min inf
scalar MultidropNetwork.controller.eth[0].queue queueingTime:vector:max -inf
scalar MultidropNetwork.controller.eth[0].queue queueingTime:vector:starttime nan
scalar MultidropNetwork.controller.eth[0].queue queueingTime:vector:endtime nan
scalar MultidropNetwork.controller.eth[0].queue incomingPacketLengths:vector:count 0
scalar MultidropNetwork.controller.eth[0].queue incomingPacketLengths:vector:sum 0
scalar MultidropNetwork.controller.eth[0].queue incomingPacketLengths:vector:sumweights 0
scalar MultidropNetwork.controller.eth[0].queue incomingPacketLengths:vector:mean -nan
scalar MultidropNetwork.controller.eth[0].queue incomingPacketLengths:vector:stddev nan
scalar MultidropNetwork.controller.eth[0].queue incomingPacketLengths:vector:min inf
scalar MultidropNetwork.controller.eth[0].queue incomingPacketLengths:vector:max -inf
scalar MultidropNetwork.controller.eth[0].queue incomingPacketLengths:vector:starttime nan
scalar MultidropNetwork.controller.eth[0].queue incomingPacketLengths:vector:endtime nan
scalar MultidropNetwork.controller.eth[0].queue incomingDataRate:vector:count 10
scalar MultidropNetwork.controller.eth[0].queue incomingDataRate:vector:sum 0
scalar MultidropNetwork.controller.eth[0].queue incomingDataRate:vector:sumweights 10
scalar MultidropNetwork.controller.eth[0].queue incomingDataRate:vector:mean 0
scalar MultidropNetwork.controller.eth[0].queue incomingDataRate:vector:stddev 0
scalar MultidropNetwork.controller.eth[0].queue incomingDataRate:vector:min 0
scalar MultidropNetwork.controller.eth[0].queue incomingDataRate:vector:max 0
scalar MultidropNetwork.controller.eth[0].queue incomingDataRate:vector:starttime 0.10000000000000001
scalar MultidropNetwork.controller.eth[0].queue incomingDataRate:vector:endtime 1
scalar MultidropNetwork.controller.eth[0].queue outgoingPacketLengths:vector:count 0
scalar MultidropNetwork.controller.eth[0].queue outgoingPacketLengths:vector:sum 0
scalar MultidropNetwork.controller.eth[0].queue outgoingPacketLengths:vector:sumweights 0
scalar MultidropNetwork.controller.eth[0].queue outgoingPacketLengths:vector:mean -nan
scalar MultidropNetwork.controller.eth[0].queue outgoingPacketLengths:vector:stddev nan
scalar MultidropNetwork.controller.eth[0].queue outgoingPacketLengths:vector:min inf
scalar MultidropNetwork.controller.eth[0].queue outgoingPacketLengths:vector:max -inf
scalar MultidropNetwork.controller.eth[0].queue outgoingPacketLengths:vector:starttime nan
scalar MultidropNetwork.controller.eth[0].queue outgoingPacketLengths:vector:endtime nan
scalar MultidropNetwork.controller.eth[0].queue outgoingDataRate:vector:count 10
scalar MultidropNetwork.controller.eth[0].queue outgoingDataRate:vector:sum 0
scalar MultidropNetwork.controller.eth[0].queue outgoingDataRate:vector:sumweights 10
scalar MultidropNetwork.controller.eth[0].queue outgoingDataRate:vector:mean 0
scalar MultidropNetwork.controller.eth[0].queue outgoingDataRate:vector:stddev 0
scalar MultidropNetwork.controller.eth[0].queue outgoingDataRate:vector:min 0
scalar MultidropNetwork.controller.eth[0].queue outgoingDataRate:vector:max 0
scalar MultidropNetwork.controller.eth[0].queue outgoingDataRate:vector:starttime 0.10000000000000001
scalar MultidropNetwork.controller.eth[0].queue outgoingDataRate:vector:endtime 1
scalar MultidropNetwork.controller.eth[0].queue droppedPacketLengthsQueueOverflow:vector:count 0
scalar MultidropNetwork.controller.eth[0].queue droppedPacketLengthsQueueOverflow:vector:sum 0
scalar MultidropNetwork.controller.eth[0].queue droppedPacketLengthsQueueOverflow:vector:sumweights 0
scalar MultidropNetwork.controller.eth[0].queue droppedPacketLengthsQueueOverflow:vector:mean -nan
scalar MultidropNetwork.controller.eth[0].queue droppedPacketLengthsQueueOverflow:vector:stddev nan
scalar MultidropNetwork.controller.eth[0].queue droppedPacketLengthsQueueOverflow:vector:min inf
scalar MultidropNetwork.controller.eth[0].queue droppedPacketLengthsQueueOverflow:vector:max -inf
scalar MultidropNetwork.controller.eth[0].queue droppedPacketLengthsQueueOverflow:vector:starttime nan
scalar MultidropNetwork.controller.eth[0].queue droppedPacketLengthsQueueOverflow:vector:endtime nan
scalar MultidropNetwork.controller.eth[0].queue flowQueueingTime:vector:count 0
scalar MultidropNetwork.controller.eth[0].queue flowQueueingTime:vector:sum 0
scalar MultidropNetwork.controller.eth[0].queue flowQueueingTime:vector:sumweights 0
scalar MultidropNetwork.controller.eth[0].queue flowQueueingTime:vector:mean -nan
scalar MultidropNetwork.controller.eth[0].queue flowQueueingTime:vector:stddev nan
scalar MultidropNetwork.controller.eth[0].queue flowQueueingTime:vector:min inf
scalar MultidropNetwork.controller.eth[0].queue flowQueueingTime:vector:max -inf
scalar MultidropNetwork.controller.eth[0].queue flowQueueingTime:vector:starttime nan
scalar MultidropNetwork.controller.eth[0].queue flowQueueingTime:vector:endtime nan
scalar MultidropNetwork.controller.eth[0].queue flowIncomingDataRate:vector:count 10
scalar MultidropNetwork.controller.eth[0].queue flowIncomingDataRate:vector:sum 0
scalar MultidropNetwork.controller.eth[0].queue flowIncomingDataRate:vector:sumweights 10
scalar MultidropNetwork.controller.eth[0].queue flowIncomingDataRate:vector:mean 0
scalar MultidropNetwork.controller.eth[0].queue flowIncomingDataRate:vector:stddev 0
scalar MultidropNetwork.controller.eth[0].queue flowIncomingDataRate:vector:min 0
scalar MultidropNetwork.controller.eth[0].queue flowIncomingDataRate:vector:max 0
scalar MultidropNetwork.controller.eth[0].queue flowIncomingDataRate:vector:starttime 0.10000000000000001
scalar MultidropNetwork.controller.eth[0].queue flowIncomingDataRate:vector:endtime 1
scalar MultidropNetwork.controller.eth[0].queue flowOutgoingDataRate:vector:count 10
scalar MultidropNetwork.controller.eth[0].queue flowOutgoingDataRate:vector:sum 0
scalar MultidropNetwork.controller.eth[0].queue flowOutgoingDataRate:vector:sumweights 10
scalar MultidropNetwork.controller.eth[0].queue flowOutgoingDataRate:vector:mean 0
scalar MultidropNetwork.controller.eth[0].queue flowOutgoingDataRate:vector:stddev 0
scalar MultidropNetwork.controller.eth[0].queue flowOutgoingDataRate:vector:min 0
scalar MultidropNetwork.controller.eth[0].queue flowOutgoingDataRate:vector:max 0
scalar MultidropNetwork.controller.eth[0].queue flowOutgoingDataRate:vector:starttime 0.10000000000000001
scalar MultidropNetwork.controller.eth[0].queue flowOutgoingDataRate:vector:endtime 1
scalar MultidropNetwork.controller.eth[0].mac carrierSense:vector:count 672
scalar MultidropNetwork.controller.eth[0].mac carrierSense:vector:sum 335
scalar MultidropNetwork.controller.eth[0].mac carrierSense:vector:sumweights 672
scalar MultidropNetwork.controller.eth[0].mac carrierSense:vector:mean 0.49851190476190477
scalar MultidropNetwork.controller.eth[0].mac carrierSense:vector:stddev 0.50037022344840143
scalar MultidropNetwork.controller.eth[0].mac carrierSense:vector:min 0
scalar MultidropNetwork.controller.eth[0].mac carrierSense:vector:max 1
scalar MultidropNetwork.controller.eth[0].mac carrierSense:vector:starttime 0
scalar MultidropNetwork.controller.eth[0].mac carrierSense:vector:endtime 1
scalar MultidropNetwork.controller.eth[0].mac collision:vector:count 2
scalar MultidropNetwork.controller.eth[0].mac collision:vector:sum 0
scalar MultidropNetwork.controller.eth[0].mac collision:vector:sumweights 2
scalar MultidropNetwork.controller.eth[0].mac collision:vector:mean 0
scalar MultidropNetwork.controller.eth[0].mac collision:vector:stddev 0
scalar MultidropNetwork.controller.eth[0].mac collision:vector:min 0
scalar MultidropNetwork.controller.eth[0].mac collision:vector:max 0
scalar MultidropNetwork.controller.eth[0].mac collision:vector:starttime 0
scalar MultidropNetwork.controller.eth[0].mac collision:vector:endtime 1
scalar MultidropNetwork.controller.eth[0].mac state:vector:count 1007
scalar MultidropNetwork.controller.eth[0].mac state:vector:sum 2010
scalar MultidropNetwork.controller.eth[0].mac state:vector:sumweights 1007
scalar MultidropNetwork.controller.eth[0].mac state:vector:mean 1.9960278053624627
scalar MultidropNetwork.controller.eth[0].mac state:vector:stddev 2.16101002433349
scalar MultidropNetwork.controller.eth[0].mac state:vector:min 0
scalar MultidropNetwork.controller.eth[0].mac state:vector:max 5
scalar MultidropNetwork.controller.eth[0].mac state:vector:starttime 0
scalar MultidropNetwork.controller.eth[0].mac state:vector:endtime 1
scalar MultidropNetwork.controller.eth[0].plca curID:vector:count 279613
scalar MultidropNetwork.controller.eth[0].plca curID:vector:sum 279613
scalar MultidropNetwork.controller.eth[0].plca curID:vector:sumweights 279613
scalar MultidropNetwork.controller.eth[0].plca curID:vector:mean 1
scalar MultidropNetwork.controller.eth[0].plca curID:vector:stddev 0.81649658092772603
scalar MultidropNetwork.controller.eth[0].plca curID:vector:min 0
scalar MultidropNetwork.controller.eth[0].plca curID:vector:max 2
scalar MultidropNetwork.controller.eth[0].plca curID:vector:starttime 0
scalar MultidropNetwork.controller.eth[0].plca curID:vector:endtime 1
scalar MultidropNetwork.controller.eth[0].plca carrierSense:vector:count 187080
scalar MultidropNetwork.controller.eth[0].plca carrierSense:vector:sum 93539
scalar MultidropNetwork.controller.eth[0].plca carrierSense:vector:sumweights 187080
scalar MultidropNetwork.controller.eth[0].plca carrierSense:vector:mean 0.49999465469317939
scalar MultidropNetwork.controller.eth[0].plca carrierSense:vector:stddev 0.50000133630349008
scalar MultidropNetwork.controller.eth[0].plca carrierSense:vector:min 0
scalar MultidropNetwork.controller.eth[0].plca carrierSense:vector:max 1
scalar MultidropNetwork.controller.eth[0].plca carrierSense:vector:starttime 0
scalar MultidropNetwork.controller.eth[0].plca carrierSense:vector:endtime 1
scalar MultidropNetwork.controller.eth[0].plca collision:vector:count 2
scalar MultidropNetwork.controller.eth[0].plca collision:vector:sum 0
scalar MultidropNetwork.controller.eth[0].plca collision:vector:sumweights 2
scalar MultidropNetwork.controller.eth[0].plca collision:vector:mean 0
scalar MultidropNetwork.controller.eth[0].plca collision:vector:stddev 0
scalar MultidropNetwork.controller.eth[0].plca collision:vector:min 0
scalar MultidropNetwork.controller.eth[0].plca collision:vector:max 0
scalar MultidropNetwork.controller.eth[0].plca collision:vector:starttime 0
scalar MultidropNetwork.controller.eth[0].plca collision:vector:endtime 1
scalar MultidropNetwork.controller.eth[0].plca controlState:vector:count 746302
scalar MultidropNetwork.controller.eth[0].plca controlState:vector:sum 4851625
scalar MultidropNetwork.controller.eth[0].plca controlState:vector:sumweights 746302
scalar MultidropNetwork.controller.eth[0].plca controlState:vector:mean 6.5008870403670365
scalar MultidropNetwork.controller.eth[0].plca controlState:vector:stddev 4.1817670868805852
scalar MultidropNetwork.controller.eth[0].plca controlState:vector:min 1
scalar MultidropNetwork.controller.eth[0].plca controlState:vector:max 13
scalar MultidropNetwork.controller.eth[0].plca controlState:vector:starttime 0
scalar MultidropNetwork.controller.eth[0].plca controlState:vector:endtime 1
scalar MultidropNetwork.controller.eth[0].plca dataState:vector:count 1677
scalar MultidropNetwork.controller.eth[0].plca dataState:vector:sum 2682
scalar MultidropNetwork.controller.eth[0].plca dataState:vector:sumweights 1677
scalar MultidropNetwork.controller.eth[0].plca dataState:vector:mean 1.5992844364937389
scalar MultidropNetwork.controller.eth[0].plca dataState:vector:stddev 0.49018964069505272
scalar MultidropNetwork.controller.eth[0].plca dataState:vector:min 1
scalar MultidropNetwork.controller.eth[0].plca dataState:vector:max 2
scalar MultidropNetwork.controller.eth[0].plca dataState:vector:starttime 0
scalar MultidropNetwork.controller.eth[0].plca dataState:vector:endtime 1
scalar MultidropNetwork.controller.eth[0].plca rxCmd:vector:count 1341
scalar MultidropNetwork.controller.eth[0].plca rxCmd:vector:sum 670
scalar MultidropNetwork.controller.eth[0].plca rxCmd:vector:sumweights 1341
scalar MultidropNetwork.controller.eth[0].plca rxCmd:vector:mean 0.49962714392244595
scalar MultidropNetwork.controller.eth[0].plca rxCmd:vector:stddev 0.86613303137495978
scalar MultidropNetwork.controller.eth[0].plca rxCmd:vector:min 0
scalar MultidropNetwork.controller.eth[0].plca rxCmd:vector:max 2
scalar MultidropNetwork.controller.eth[0].plca rxCmd:vector:starttime 5.5621000000000015e-05
scalar MultidropNetwork.controller.eth[0].plca rxCmd:vector:endtime 1
scalar MultidropNetwork.controller.eth[0].plca txCmd:vector:count 186409
scalar MultidropNetwork.controller.eth[0].plca txCmd:vector:sum 93204
scalar MultidropNetwork.controller.eth[0].plca txCmd:vector:sumweights 186409
scalar MultidropNetwork.controller.eth[0].plca txCmd:vector:mean 0.49999731772607547
scalar MultidropNetwork.controller.eth[0].plca txCmd:vector:stddev 0.50000134113516359
scalar MultidropNetwork.controller.eth[0].plca txCmd:vector:min 0
scalar MultidropNetwork.controller.eth[0].plca txCmd:vector:max 1
scalar MultidropNetwork.controller.eth[0].plca txCmd:vector:starttime 0
scalar MultidropNetwork.controller.eth[0].plca txCmd:vector:endtime 1
scalar MultidropNetwork.controller.eth[0].plca packetPendingDelay:vector:count 0
scalar MultidropNetwork.controller.eth[0].plca packetPendingDelay:vector:sum 0
scalar MultidropNetwork.controller.eth[0].plca packetPendingDelay:vector:sumweights 0
scalar MultidropNetwork.controller.eth[0].plca packetPendingDelay:vector:mean -nan
scalar MultidropNetwork.controller.eth[0].plca packetPendingDelay:vector:stddev nan
scalar MultidropNetwork.controller.eth[0].plca packetPendingDelay:vector:min inf
scalar MultidropNetwork.controller.eth[0].plca packetPendingDelay:vector:max -inf
scalar MultidropNetwork.controller.eth[0].plca packetPendingDelay:vector:starttime nan
scalar MultidropNetwork.controller.eth[0].plca packetPendingDelay:vector:endtime nan
scalar MultidropNetwork.controller.eth[0].plca packetInterval:vector:count 0
scalar MultidropNetwork.controller.eth[0].plca packetInterval:vector:sum 0
scalar MultidropNetwork.controller.eth[0].plca packetInterval:vector:sumweights 0
scalar MultidropNetwork.controller.eth[0].plca packetInterval:vector:mean -nan
scalar MultidropNetwork.controller.eth[0].plca packetInterval:vector:stddev nan
scalar MultidropNetwork.controller.eth[0].plca packetInterval:vector:min inf
scalar MultidropNetwork.controller.eth[0].plca packetInterval:vector:max -inf
[...]
scalar MultidropNetwork.node[0].eth[0].plca rxCmd:vector:min 0
scalar MultidropNetwork.node[0].eth[0].plca rxCmd:vector:max 1
scalar MultidropNetwork.node[0].eth[0].plca rxCmd:vector:starttime 7.5000000000000026e-09
scalar MultidropNetwork.node[0].eth[0].plca rxCmd:vector:endtime 1
scalar MultidropNetwork.node[0].eth[0].plca txCmd:vector:count 671
scalar MultidropNetwork.node[0].eth[0].plca txCmd:vector:sum 670
scalar MultidropNetwork.node[0].eth[0].plca txCmd:vector:sumweights 671
scalar MultidropNetwork.node[0].eth[0].plca txCmd:vector:mean 0.99850968703427723
scalar MultidropNetwork.node[0].eth[0].plca txCmd:vector:stddev 1.0007448790604541
scalar MultidropNetwork.node[0].eth[0].plca txCmd:vector:min 0
scalar MultidropNetwork.node[0].eth[0].plca txCmd:vector:max 2
scalar MultidropNetwork.node[0].eth[0].plca txCmd:vector:starttime 5.5613500000000019e-05
scalar MultidropNetwork.node[0].eth[0].plca txCmd:vector:endtime 1
scalar MultidropNetwork.node[0].eth[0].plca packetPendingDelay:vector:count 335
scalar MultidropNetwork.node[0].eth[0].plca packetPendingDelay:vector:sum 0.0076272020000000013
scalar MultidropNetwork.node[0].eth[0].plca packetPendingDelay:vector:sumweights 335
scalar MultidropNetwork.node[0].eth[0].plca packetPendingDelay:vector:mean 2.2767767164179107e-05
scalar MultidropNetwork.node[0].eth[0].plca packetPendingDelay:vector:stddev 2.9579216331344269e-05
scalar MultidropNetwork.node[0].eth[0].plca packetPendingDelay:vector:min 1.35e-08
scalar MultidropNetwork.node[0].eth[0].plca packetPendingDelay:vector:max 6.83495e-05
scalar MultidropNetwork.node[0].eth[0].plca packetPendingDelay:vector:starttime 6.5213500000000022e-05
scalar MultidropNetwork.node[0].eth[0].plca packetPendingDelay:vector:endtime 0.99406683650000027
scalar MultidropNetwork.node[0].eth[0].plca packetInterval:vector:count 334
scalar MultidropNetwork.node[0].eth[0].plca packetInterval:vector:sum 0.99400162299999995
scalar MultidropNetwork.node[0].eth[0].plca packetInterval:vector:sumweights 334
scalar MultidropNetwork.node[0].eth[0].plca packetInterval:vector:mean 0.0029760527634730537
scalar MultidropNetwork.node[0].eth[0].plca packetInterval:vector:stddev 0.0015809102655451484
scalar MultidropNetwork.node[0].eth[0].plca packetInterval:vector:min 8.1615999999999999e-05
scalar MultidropNetwork.node[0].eth[0].plca packetInterval:vector:max 0.0080612289999999996
scalar MultidropNetwork.node[0].eth[0].plca packetInterval:vector:starttime 0.0070039485000000018
scalar MultidropNetwork.node[0].eth[0].plca packetInterval:vector:endtime 0.99406683650000027
scalar MultidropNetwork.node[0].eth[0].plca transmitOpportunityUsed:vector:count 93204
scalar MultidropNetwork.node[0].eth[0].plca transmitOpportunityUsed:vector:sum 335
scalar MultidropNetwork.node[0].eth[0].plca transmitOpportunityUsed:vector:sumweights 93204
scalar MultidropNetwork.node[0].eth[0].plca transmitOpportunityUsed:vector:mean 0.0035942663405004079
scalar MultidropNetwork.node[0].eth[0].plca transmitOpportunityUsed:vector:stddev 0.059844682430549974
scalar MultidropNetwork.node[0].eth[0].plca transmitOpportunityUsed:vector:min 0
scalar MultidropNetwork.node[0].eth[0].plca transmitOpportunityUsed:vector:max 1
scalar MultidropNetwork.node[0].eth[0].plca transmitOpportunityUsed:vector:starttime 5.2075000000000014e-06
scalar MultidropNetwork.node[0].eth[0].plca transmitOpportunityUsed:vector:endtime 0.99999870050000028
scalar MultidropNetwork.node[0].eth[0].plca numPacketsPerTo:vector:count 186407
scalar MultidropNetwork.node[0].eth[0].plca numPacketsPerTo:vector:sum 335
scalar MultidropNetwork.node[0].eth[0].plca numPacketsPerTo:vector:sumweights 186407
scalar MultidropNetwork.node[0].eth[0].plca numPacketsPerTo:vector:mean 0.0017971428111605251
scalar MultidropNetwork.node[0].eth[0].plca numPacketsPerTo:vector:stddev 0.042354724796229072
scalar MultidropNetwork.node[0].eth[0].plca numPacketsPerTo:vector:min 0
scalar MultidropNetwork.node[0].eth[0].plca numPacketsPerTo:vector:max 1
scalar MultidropNetwork.node[0].eth[0].plca numPacketsPerTo:vector:starttime 5.2075000000000014e-06
scalar MultidropNetwork.node[0].eth[0].plca numPacketsPerTo:vector:endtime 0.99999870050000028
scalar MultidropNetwork.node[0].eth[0].plca numPacketsPerOwnTo:vector:count 93203
scalar MultidropNetwork.node[0].eth[0].plca numPacketsPerOwnTo:vector:sum 335
scalar MultidropNetwork.node[0].eth[0].plca numPacketsPerOwnTo:vector:sumweights 93203
scalar MultidropNetwork.node[0].eth[0].plca numPacketsPerOwnTo:vector:mean 0.0035943049043485726
scalar MultidropNetwork.node[0].eth[0].plca numPacketsPerOwnTo:vector:stddev 0.059845002319873317
scalar MultidropNetwork.node[0].eth[0].plca numPacketsPerOwnTo:vector:min 0
scalar MultidropNetwork.node[0].eth[0].plca numPacketsPerOwnTo:vector:max 1
scalar MultidropNetwork.node[0].eth[0].plca numPacketsPerOwnTo:vector:starttime 8.4075000000000021e-06
scalar MultidropNetwork.node[0].eth[0].plca numPacketsPerOwnTo:vector:endtime 0.99999349950000027
scalar MultidropNetwork.node[0].eth[0].plca numPacketsPerCycle:vector:count 93203
scalar MultidropNetwork.node[0].eth[0].plca numPacketsPerCycle:vector:sum 335
scalar MultidropNetwork.node[0].eth[0].plca numPacketsPerCycle:vector:sumweights 93203
scalar MultidropNetwork.node[0].eth[0].plca numPacketsPerCycle:vector:mean 0.0035943049043485726
scalar MultidropNetwork.node[0].eth[0].plca numPacketsPerCycle:vector:stddev 0.059845002319873317
scalar MultidropNetwork.node[0].eth[0].plca numPacketsPerCycle:vector:min 0
scalar MultidropNetwork.node[0].eth[0].plca numPacketsPerCycle:vector:max 1
scalar MultidropNetwork.node[0].eth[0].plca numPacketsPerCycle:vector:starttime 1.0408500000000004e-05
scalar MultidropNetwork.node[0].eth[0].plca numPacketsPerCycle:vector:endtime 0.9999955005000003
scalar MultidropNetwork.node[0].eth[0].plca toLength:vector:count 186407
scalar MultidropNetwork.node[0].eth[0].plca toLength:vector:sum 0.81349279999985635
scalar MultidropNetwork.node[0].eth[0].plca toLength:vector:sumweights 186407
scalar MultidropNetwork.node[0].eth[0].plca toLength:vector:mean 4.3640678729868321e-06
scalar MultidropNetwork.node[0].eth[0].plca toLength:vector:stddev 3.0935365200605259e-05
scalar MultidropNetwork.node[0].eth[0].plca toLength:vector:min 3.1999999999999999e-06
scalar MultidropNetwork.node[0].eth[0].plca toLength:vector:max 0.0012279999999999999
scalar MultidropNetwork.node[0].eth[0].plca toLength:vector:starttime 5.2075000000000014e-06
scalar MultidropNetwork.node[0].eth[0].plca toLength:vector:endtime 0.99999870050000028
scalar MultidropNetwork.node[0].eth[0].plca ownToLength:vector:count 93203
scalar MultidropNetwork.node[0].eth[0].plca ownToLength:vector:sum 0.51524000000002179
scalar MultidropNetwork.node[0].eth[0].plca ownToLength:vector:sumweights 93203
scalar MultidropNetwork.node[0].eth[0].plca ownToLength:vector:mean 5.5281482355720499e-06
scalar MultidropNetwork.node[0].eth[0].plca ownToLength:vector:stddev 4.3718462866860024e-05
scalar MultidropNetwork.node[0].eth[0].plca ownToLength:vector:min 3.1999999999999999e-06
scalar MultidropNetwork.node[0].eth[0].plca ownToLength:vector:max 0.0012279999999999999
scalar MultidropNetwork.node[0].eth[0].plca ownToLength:vector:starttime 8.4075000000000021e-06
scalar MultidropNetwork.node[0].eth[0].plca ownToLength:vector:endtime 0.99999349950000027
scalar MultidropNetwork.node[0].eth[0].plca cycleLength:vector:count 93203
scalar MultidropNetwork.node[0].eth[0].plca cycleLength:vector:sum 0.99999349300014473
scalar MultidropNetwork.node[0].eth[0].plca cycleLength:vector:sumweights 93203
scalar MultidropNetwork.node[0].eth[0].plca cycleLength:vector:mean 1.0729198555842031e-05
scalar MultidropNetwork.node[0].eth[0].plca cycleLength:vector:stddev 4.3719205741691485e-05
scalar MultidropNetwork.node[0].eth[0].plca cycleLength:vector:min 8.4009999999999997e-06
scalar MultidropNetwork.node[0].eth[0].plca cycleLength:vector:max 0.001233215
scalar MultidropNetwork.node[0].eth[0].plca cycleLength:vector:starttime 1.0408500000000004e-05
scalar MultidropNetwork.node[0].eth[0].plca cycleLength:vector:endtime 0.9999955005000003
scalar MultidropNetwork.node[0].eth[0].phy state:vector:count 281289
scalar MultidropNetwork.node[0].eth[0].phy state:vector:sum 562574
scalar MultidropNetwork.node[0].eth[0].phy state:vector:sumweights 281289
scalar MultidropNetwork.node[0].eth[0].phy state:vector:mean 1.9999857797496525
scalar MultidropNetwork.node[0].eth[0].phy state:vector:stddev 1.633242049931972
scalar MultidropNetwork.node[0].eth[0].phy state:vector:min 0
scalar MultidropNetwork.node[0].eth[0].phy state:vector:max 4
scalar MultidropNetwork.node[0].eth[0].phy state:vector:starttime 0
scalar MultidropNetwork.node[0].eth[0].phy state:vector:endtime 1
scalar MultidropNetwork.node[0].eth[0].phy receivedSignalType:vector:count 186410
scalar MultidropNetwork.node[0].eth[0].phy receivedSignalType:vector:sum 93204
scalar MultidropNetwork.node[0].eth[0].phy receivedSignalType:vector:sumweights 186410
scalar MultidropNetwork.node[0].eth[0].phy receivedSignalType:vector:mean 0.49999463548092915
scalar MultidropNetwork.node[0].eth[0].phy receivedSignalType:vector:stddev 0.5000013411063855
scalar MultidropNetwork.node[0].eth[0].phy receivedSignalType:vector:min 0
scalar MultidropNetwork.node[0].eth[0].phy receivedSignalType:vector:max 1
scalar MultidropNetwork.node[0].eth[0].phy receivedSignalType:vector:starttime 0
scalar MultidropNetwork.node[0].eth[0].phy receivedSignalType:vector:endtime 1
scalar MultidropNetwork.node[0].eth[0].phy transmittedSignalType:vector:count 1342
scalar MultidropNetwork.node[0].eth[0].phy transmittedSignalType:vector:sum 1675
scalar MultidropNetwork.node[0].eth[0].phy transmittedSignalType:vector:sumweights 1342
scalar MultidropNetwork.node[0].eth[0].phy transmittedSignalType:vector:mean 1.2481371087928466
scalar MultidropNetwork.node[0].eth[0].phy transmittedSignalType:vector:stddev 1.2994493019242519
scalar MultidropNetwork.node[0].eth[0].phy transmittedSignalType:vector:min 0
scalar MultidropNetwork.node[0].eth[0].phy transmittedSignalType:vector:max 3
scalar MultidropNetwork.node[0].eth[0].phy transmittedSignalType:vector:starttime 0
scalar MultidropNetwork.node[0].eth[0].phy transmittedSignalType:vector:endtime 1
scalar MultidropNetwork.node[0].eth[0].phy transmitting:vector:count 1342
scalar MultidropNetwork.node[0].eth[0].phy transmitting:vector:sum 670
scalar MultidropNetwork.node[0].eth[0].phy transmitting:vector:sumweights 1342
scalar MultidropNetwork.node[0].eth[0].phy transmitting:vector:mean 0.49925484351713861
scalar MultidropNetwork.node[0].eth[0].phy transmitting:vector:stddev 0.50018583783083093
scalar MultidropNetwork.node[0].eth[0].phy transmitting:vector:min 0
scalar MultidropNetwork.node[0].eth[0].phy transmitting:vector:max 1
scalar MultidropNetwork.node[0].eth[0].phy transmitting:vector:starttime 0
scalar MultidropNetwork.node[0].eth[0].phy transmitting:vector:endtime 0.99454123650000026
scalar MultidropNetwork.node[0].eth[0].phy throughput:vector:count 10
scalar MultidropNetwork.node[0].eth[0].phy throughput:vector:sum 21779440
scalar MultidropNetwork.node[0].eth[0].phy throughput:vector:sumweights 10
scalar MultidropNetwork.node[0].eth[0].phy throughput:vector:mean 2177944
scalar MultidropNetwork.node[0].eth[0].phy throughput:vector:stddev 149599.48211437394
scalar MultidropNetwork.node[0].eth[0].phy throughput:vector:min 1918240.0000000002
scalar MultidropNetwork.node[0].eth[0].phy throughput:vector:max 2422320
scalar MultidropNetwork.node[0].eth[0].phy throughput:vector:starttime 0.10000000000000001
scalar MultidropNetwork.node[0].eth[0].phy throughput:vector:endtime 1
scalar MultidropNetwork.node[0].eth[0].phy transmissionTime:vector:count 670
scalar MultidropNetwork.node[0].eth[0].phy transmissionTime:vector:sum 0.21806239999999993
scalar MultidropNetwork.node[0].eth[0].phy transmissionTime:vector:sumweights 670
scalar MultidropNetwork.node[0].eth[0].phy transmissionTime:vector:mean 0.00032546626865671634
scalar MultidropNetwork.node[0].eth[0].phy transmissionTime:vector:stddev 0.00040131119181023957
scalar MultidropNetwork.node[0].eth[0].phy transmissionTime:vector:min 0
scalar MultidropNetwork.node[0].eth[0].phy transmissionTime:vector:max 0.0012183999999999999
scalar MultidropNetwork.node[0].eth[0].phy transmissionTime:vector:starttime 6.5213500000000022e-05
scalar MultidropNetwork.node[0].eth[0].phy transmissionTime:vector:endtime 0.99454123650000026
scalar MultidropNetwork.node[0].eth[0].phy busUsed:vector:count 187750
scalar MultidropNetwork.node[0].eth[0].phy busUsed:vector:sum 335
scalar MultidropNetwork.node[0].eth[0].phy busUsed:vector:sumweights 187750
scalar MultidropNetwork.node[0].eth[0].phy busUsed:vector:mean 0.0017842876165113182
scalar MultidropNetwork.node[0].eth[0].phy busUsed:vector:stddev 0.042203239459022927
scalar MultidropNetwork.node[0].eth[0].phy busUsed:vector:min 0
scalar MultidropNetwork.node[0].eth[0].phy busUsed:vector:max 1
scalar MultidropNetwork.node[0].eth[0].phy busUsed:vector:starttime 0
scalar MultidropNetwork.node[0].eth[0].phy busUsed:vector:endtime 1
scalar MultidropNetwork.node[0].eth[0].phy busUtilization:vector:count 939
scalar MultidropNetwork.node[0].eth[0].phy busUtilization:vector:sum 124.72419181115653
scalar MultidropNetwork.node[0].eth[0].phy busUtilization:vector:sumweights 939
scalar MultidropNetwork.node[0].eth[0].phy busUtilization:vector:mean 0.13282661534734455
scalar MultidropNetwork.node[0].eth[0].phy busUtilization:vector:stddev 0.21758211886474535
scalar MultidropNetwork.node[0].eth[0].phy busUtilization:vector:min 0
scalar MultidropNetwork.node[0].eth[0].phy busUtilization:vector:max 0.85939007046779892
scalar MultidropNetwork.node[0].eth[0].phy busUtilization:vector:starttime 0.0017061185000000006
scalar MultidropNetwork.node[0].eth[0].phy busUtilization:vector:endtime 1
scalar MultidropNetwork.node[0].eth[0] packetDropInterfaceDown:vector(packetBytes):count 0
scalar MultidropNetwork.node[0].eth[0] packetDropInterfaceDown:vector(packetBytes):sum 0
scalar MultidropNetwork.node[0].eth[0] packetDropInterfaceDown:vector(packetBytes):sumweights 0
scalar MultidropNetwork.node[0].eth[0] packetDropInterfaceDown:vector(packetBytes):mean -nan
scalar MultidropNetwork.node[0].eth[0] packetDropInterfaceDown:vector(packetBytes):stddev nan
scalar MultidropNetwork.node[0].eth[0] packetDropInterfaceDown:vector(packetBytes):min inf
scalar MultidropNetwork.node[0].eth[0] packetDropInterfaceDown:vector(packetBytes):max -inf
scalar MultidropNetwork.node[0].eth[0] packetDropInterfaceDown:vector(packetBytes):starttime nan
scalar MultidropNetwork.node[0].eth[0] packetDropInterfaceDown:vector(packetBytes):endtime nan
scalar MultidropNetwork.node[0].eth[0] packetDropNoCarrier:vector(packetBytes):count 0
scalar MultidropNetwork.node[0].eth[0] packetDropNoCarrier:vector(packetBytes):sum 0
scalar MultidropNetwork.node[0].eth[0] packetDropNoCarrier:vector(packetBytes):sumweights 0
scalar MultidropNetwork.node[0].eth[0] packetDropNoCarrier:vector(packetBytes):mean -nan
scalar MultidropNetwork.node[0].eth[0] packetDropNoCarrier:vector(packetBytes):stddev nan
scalar MultidropNetwork.node[0].eth[0] packetDropNoCarrier:vector(packetBytes):min inf
scalar MultidropNetwork.node[0].eth[0] packetDropNoCarrier:vector(packetBytes):max -inf
scalar MultidropNetwork.node[0].eth[0] packetDropNoCarrier:vector(packetBytes):starttime nan
scalar MultidropNetwork.node[0].eth[0] packetDropNoCarrier:vector(packetBytes):endtime nan
scalar MultidropNetwork.node[0].app[0].source packetLengths:vector:count 335
scalar MultidropNetwork.node[0].app[0].source packetLengths:vector:sum 2098280
scalar MultidropNetwork.node[0].app[0].source packetLengths:vector:sumweights 335
scalar MultidropNetwork.node[0].app[0].source packetLengths:vector:mean 6263.5223880597014
scalar MultidropNetwork.node[0].app[0].source packetLengths:vector:stddev 3375.5978080368263
scalar MultidropNetwork.node[0].app[0].source packetLengths:vector:min 368
scalar MultidropNetwork.node[0].app[0].source packetLengths:vector:max 11968
scalar MultidropNetwork.node[0].app[0].source packetLengths:vector:starttime 0
scalar MultidropNetwork.node[0].app[0].source packetLengths:vector:endtime 0.99399999999999999
scalar MultidropNetwork.node[0].app[0].source dataRate:vector:count 10
scalar MultidropNetwork.node[0].app[0].source dataRate:vector:sum 20982800
scalar MultidropNetwork.node[0].app[0].source dataRate:vector:sumweights 10
scalar MultidropNetwork.node[0].app[0].source dataRate:vector:mean 2098280
scalar MultidropNetwork.node[0].app[0].source dataRate:vector:stddev 171687.24122659783
scalar MultidropNetwork.node[0].app[0].source dataRate:vector:min 1836960.0000000002
scalar MultidropNetwork.node[0].app[0].source dataRate:vector:max 2342000
scalar MultidropNetwork.node[0].app[0].source dataRate:vector:starttime 0.10000000000000001
scalar MultidropNetwork.node[0].app[0].source dataRate:vector:endtime 1
scalar MultidropNetwork.node[0].app[0].io packetSent:vector(packetBytes):count 335
scalar MultidropNetwork.node[0].app[0].io packetSent:vector(packetBytes):sum 262285
scalar MultidropNetwork.node[0].app[0].io packetSent:vector(packetBytes):sumweights 335
scalar MultidropNetwork.node[0].app[0].io packetSent:vector(packetBytes):mean 782.94029850746267
scalar MultidropNetwork.node[0].app[0].io packetSent:vector(packetBytes):stddev 421.94972600460329
scalar MultidropNetwork.node[0].app[0].io packetSent:vector(packetBytes):min 46
scalar MultidropNetwork.node[0].app[0].io packetSent:vector(packetBytes):max 1496
scalar MultidropNetwork.node[0].app[0].io packetSent:vector(packetBytes):starttime 0
scalar MultidropNetwork.node[0].app[0].io packetSent:vector(packetBytes):endtime 0.99399999999999999
scalar MultidropNetwork.node[0].app[0].io packetReceived:vector(packetBytes):count 0
scalar MultidropNetwork.node[0].app[0].io packetReceived:vector(packetBytes):sum 0
scalar MultidropNetwork.node[0].app[0].io packetReceived:vector(packetBytes):sumweights 0
scalar MultidropNetwork.node[0].app[0].io packetReceived:vector(packetBytes):mean -nan
scalar MultidropNetwork.node[0].app[0].io packetReceived:vector(packetBytes):stddev nan
scalar MultidropNetwork.node[0].app[0].io packetReceived:vector(packetBytes):min inf
scalar MultidropNetwork.node[0].app[0].io packetReceived:vector(packetBytes):max -inf
scalar MultidropNetwork.node[0].app[0].io packetReceived:vector(packetBytes):starttime nan
scalar MultidropNetwork.node[0].app[0].io packetReceived:vector(packetBytes):endtime nan
scalar MultidropNetwork.j[0] packetReceived:vector(packetBytes):count 94209
scalar MultidropNetwork.j[0] packetReceived:vector(packetBytes):sum 578655
scalar MultidropNetwork.j[0] packetReceived:vector(packetBytes):sumweights 94209
scalar MultidropNetwork.j[0] packetReceived:vector(packetBytes):mean 6.1422475559659908
scalar MultidropNetwork.j[0] packetReceived:vector(packetBytes):stddev 54.334871532782095
scalar MultidropNetwork.j[0] packetReceived:vector(packetBytes):min 0
scalar MultidropNetwork.j[0] packetReceived:vector(packetBytes):max 1522
scalar MultidropNetwork.j[0] packetReceived:vector(packetBytes):starttime 5.0000000000000018e-09
scalar MultidropNetwork.j[0] packetReceived:vector(packetBytes):endtime 0.99999349800000026
scalar MultidropNetwork.j[0] channelOwner:channelOwner:count 187078
scalar MultidropNetwork.j[0] channelOwner:channelOwner:sum 374491
scalar MultidropNetwork.j[0] channelOwner:channelOwner:sumweights 187078
scalar MultidropNetwork.j[0] channelOwner:channelOwner:mean 2.0017906969285537
scalar MultidropNetwork.j[0] channelOwner:channelOwner:stddev 1.0026835284782054
scalar MultidropNetwork.j[0] channelOwner:channelOwner:min 1
scalar MultidropNetwork.j[0] channelOwner:channelOwner:max 4
scalar MultidropNetwork.j[0] channelOwner:channelOwner:starttime 5.0000000000000018e-09
scalar MultidropNetwork.j[0] channelOwner:channelOwner:endtime 0.99999549800000032

