version 3
run PLCA-0-20241104-10:09:25-18817
attr configname PLCA
attr datetime 20241104-10:09:25
attr datetimef 20241104-100925
attr experiment PLCA
attr inifile validation.ini
attr iterationvars "$numNodes=1, $packetInterval=50"
attr iterationvarsd numNodes=1/packetInterval=50
attr iterationvarsf numNodes=1,packetInterval=50-
attr measurement "$numNodes=1, $packetInterval=50"
attr network MultidropNetwork
attr processid 18817
attr repetition 0
attr replication #0
attr resultdir results
attr runnumber 0
attr seedset 0
itervar numNodes 1
itervar packetInterval 50
config **.param-recording false
config **.vector-recording false
config image-path /home/levy/workspace/inet/images
config output-scalar-file results/validation.ini-PLCA-#0.sca
config sim-time-limit 100ms
config description "Ethernet PLCA using separate EthernetCsmaMac, EthernetPlca, and EthernetCsmaPhy modules"
config *.switch.eth[0].typename EthernetPlcaInterface
config *.*.eth[0].plca.max_bc 3
config description "Comparison of an Ethernet 10BASE-T1S multidrop link against an Ethernet CSMA/CD link"
config network MultidropNetwork
config sim-time-limit 100ms
config *.numNodes 1
config *.controller.typename EthernetPlcaHost
config *.node[*].typename EthernetPlcaHost
config *.node[*].numApps 1
config *.node[*].app[0].typename EthernetSourceApp
config *.node[*].app[0].io.interface "\"eth0\""
config *.node[*].app[0].io.remoteAddress "\"controller\""
config *.node[*].app[0].source.productionInterval "1 * 50us"
config *.node[*].app[0].source.packetLength 46B
config *.controller.numApps 1
config *.controller.app[0].typename EthernetSinkApp
config *.controller.app[0].io.interface "\"eth0\""
config *.controller.app[0].io.localAddress "\"controller\""
config *.visualizer.interfaceTableVisualizer.displayInterfaceTables true
config *.visualizer.interfaceTableVisualizer.format "\"%N%\\\\%m\""

scalar MultidropNetwork.controller.ethernet pauseSent:count 0
attr recordingmode count
attr title "pause sent, count"
scalar MultidropNetwork.controller.ethernet pauseSent:sum 0
attr recordingmode sum
attr title "pause sent, sum"
scalar MultidropNetwork.controller.ethernet decapPk:count 0
attr interpolationmode none
attr recordingmode count
attr source decapPk
attr title "packets decapsulated, count"
scalar MultidropNetwork.controller.ethernet decapPk:sum(packetBytes) 0
attr interpolationmode none
attr recordingmode sum(packetBytes)
attr source decapPk
attr title "packets decapsulated, sum(packetBytes)"
scalar MultidropNetwork.controller.ethernet encapPk:count 0
attr interpolationmode none
attr recordingmode count
attr source encapPk
attr title "packets encapsulated, count"
scalar MultidropNetwork.controller.ethernet encapPk:sum(packetBytes) 0
attr interpolationmode none
attr recordingmode sum(packetBytes)
attr source encapPk
attr title "packets encapsulated, sum(packetBytes)"
scalar MultidropNetwork.controller.eth[0].queue queueLength:last 0
attr autoWarmupFilter false
attr interpolationmode sample-hold
attr recordingmode last
attr source "warmup(atomic(constant0(packetPushEnded) + count(packetPushStarted) - count(packetPulled) - count(packetRemoved) - count(packetDropped)))"
attr title "queue length, last"
attr unit pk
scalar MultidropNetwork.controller.eth[0].queue queueLength:max 0
attr autoWarmupFilter false
attr interpolationmode sample-hold
attr recordingmode max
attr source "warmup(atomic(constant0(packetPushEnded) + count(packetPushStarted) - count(packetPulled) - count(packetRemoved) - count(packetDropped)))"
attr title "queue length, max"
attr unit pk
scalar MultidropNetwork.controller.eth[0].queue queueLength:timeavg 0
attr autoWarmupFilter false
attr interpolationmode sample-hold
attr recordingmode timeavg
attr source "warmup(atomic(constant0(packetPushEnded) + count(packetPushStarted) - count(packetPulled) - count(packetRemoved) - count(packetDropped)))"
attr title "queue length, timeavg"
attr unit pk
scalar MultidropNetwork.controller.eth[0].queue queueBitLength:last 0
attr autoWarmupFilter false
attr interpolationmode sample-hold
attr recordingmode last
attr source "warmup(atomic(constant0(packetPushEnded) + sum(packetLength(packetPushStarted)) - sum(packetLength(packetPulled)) - sum(packetLength(packetRemoved)) - sum(packetLength(packetDropped))))"
attr title "queue bit length, last"
attr unit b
scalar MultidropNetwork.controller.eth[0].queue queueBitLength:max 0
attr autoWarmupFilter false
attr interpolationmode sample-hold
attr recordingmode max
attr source "warmup(atomic(constant0(packetPushEnded) + sum(packetLength(packetPushStarted)) - sum(packetLength(packetPulled)) - sum(packetLength(packetRemoved)) - sum(packetLength(packetDropped))))"
attr title "queue bit length, max"
attr unit b
scalar MultidropNetwork.controller.eth[0].queue queueBitLength:timeavg 0
attr autoWarmupFilter false
attr interpolationmode sample-hold
attr recordingmode timeavg
attr source "warmup(atomic(constant0(packetPushEnded) + sum(packetLength(packetPushStarted)) - sum(packetLength(packetPulled)) - sum(packetLength(packetRemoved)) - sum(packetLength(packetDropped))))"
attr title "queue bit length, timeavg"
attr unit b
statistic MultidropNetwork.controller.eth[0].queue queueingTime:histogram
field count 0
field mean -nan
field stddev nan
field min nan
field max nan
field sum 0
field sqrsum 0
attr interpolationmode none
attr recordingmode histogram
attr source queueingTime(packetPulled)
attr title "queueing times"
attr unit s
bin	-inf	0
bin	0	0
bin	1	0
scalar MultidropNetwork.controller.eth[0].queue outgoingPackets:count 0
attr recordingmode count
attr source packetPulled
attr title "outgoing packets, count"
attr unit pk
scalar MultidropNetwork.controller.eth[0].queue outgoingPacketLengths:sum 0
attr interpolationmode none
attr recordingmode sum
attr source packetLength(packetPulled)
attr title "outgoing packet lengths, sum"
attr unit b
statistic MultidropNetwork.controller.eth[0].queue outgoingPacketLengths:histogram
field count 0
field mean -nan
field stddev nan
field min nan
field max nan
field sum 0
field sqrsum 0
attr interpolationmode none
attr recordingmode histogram
attr source packetLength(packetPulled)
attr title "outgoing packet lengths"
attr unit b
bin	-inf	0
bin	0	0
bin	1	0
statistic MultidropNetwork.controller.eth[0].queue flowQueueingTime:histogram
field count 0
field mean -nan
field stddev nan
field min nan
field max nan
field sum 0
field sqrsum 0
attr interpolationmode none
attr recordingmode histogram
attr source queueingTime(demuxFlow(packetPulled))
attr title "flow queueing times"
attr unit s
bin	-inf	0
bin	0	0
bin	1	0
scalar MultidropNetwork.controller.eth[0].queue incomingPackets:count 0
attr recordingmode count
attr source packetPushStarted
attr title "incoming packets, count"
attr unit pk
scalar MultidropNetwork.controller.eth[0].queue incomingPacketLengths:sum 0
attr interpolationmode none
attr recordingmode sum
attr source packetLength(packetPushStarted)
attr title "incoming packet lengths, sum"
attr unit b
statistic MultidropNetwork.controller.eth[0].queue incomingPacketLengths:histogram
field count 0
field mean -nan
field stddev nan
field min nan
field max nan
field sum 0
field sqrsum 0
attr interpolationmode none
attr recordingmode histogram
attr source packetLength(packetPushStarted)
attr title "incoming packet lengths"
attr unit b
bin	-inf	0
bin	0	0
bin	1	0
scalar MultidropNetwork.controller.eth[0].queue droppedPacketsQueueOverflow:count 0
attr interpolationmode none
attr recordingmode count
attr source packetDropReasonIsQueueOverflow(packetDropped)
attr title "dropped packets: queue overflow, count"
attr unit pk
scalar MultidropNetwork.controller.eth[0].queue droppedPacketLengthsQueueOverflow:sum 0
attr interpolationmode none
attr recordingmode sum
attr source packetLength(packetDropReasonIsQueueOverflow(packetDropped))
attr title "dropped packet lengths: queue overflow, sum"
attr unit b
scalar MultidropNetwork.controller.eth[0].mac state:count 4347
attr enum IDLE,WAIT_IFG,TRANSMITTING,JAMMING,BACKOFF,RECEIVING
attr interpolationmode sample-hold
attr recordingmode count
attr source stateChanged
attr title "state, count"
attr type enum
scalar MultidropNetwork.controller.eth[0].mac collision:count 2
attr interpolationmode sample-hold
attr recordingmode count
attr source collisionChanged
attr title "collision, count"
attr type int
scalar MultidropNetwork.controller.eth[0].mac carrierSense:count 2899
attr interpolationmode sample-hold
attr recordingmode count
attr source carrierSenseChanged
attr title "carrier sense, count"
attr type int
scalar MultidropNetwork.controller.eth[0].plca transmitOpportunityUsed:count 731
attr interpolationmode none
attr recordingmode count
attr title "transmit opportunity used, count"
scalar MultidropNetwork.controller.eth[0].plca packetInterval:count 0
attr interpolationmode none
attr recordingmode count
attr title "packet interval, count"
attr unit s
statistic MultidropNetwork.controller.eth[0].plca packetInterval:histogram
field count 0
field mean -nan
field stddev nan
field min nan
field max nan
field sum 0
field sqrsum 0
attr interpolationmode none
attr recordingmode histogram
attr title "packet interval"
attr unit s
bin	-inf	0
bin	0	0
bin	1	0
scalar MultidropNetwork.controller.eth[0].plca packetPendingDelay:count 0
attr interpolationmode none
attr recordingmode count
attr title "packet pending delay, count"
attr unit s
statistic MultidropNetwork.controller.eth[0].plca packetPendingDelay:histogram
field count 0
field mean -nan
field stddev nan
field min nan
field max nan
field sum 0
field sqrsum 0
attr interpolationmode none
attr recordingmode histogram
attr title "packet pending delay"
attr unit s
bin	-inf	0
bin	0	0
bin	1	0
scalar MultidropNetwork.controller.eth[0].plca txCmd:count 1463
attr enum NONE,BEACON,COMMIT
attr interpolationmode sample-hold
attr recordingmode count
attr title "TX command, count"
attr type enum
scalar MultidropNetwork.controller.eth[0].plca rxCmd:count 5796
attr enum NONE,BEACON,COMMIT
attr interpolationmode sample-hold
attr recordingmode count
attr title "RX command, count"
attr type enum
scalar MultidropNetwork.controller.eth[0].plca dataState:count 6160
attr enum WAIT_IDLE,IDLE,RECEIVE,HOLD,COLLIDE,DELAY_PENDING,PENDING,WAIT_MAC,TRANSMIT
attr interpolationmode sample-hold
attr recordingmode count
attr source dataStateChanged
attr title "data state, count"
attr type enum
scalar MultidropNetwork.controller.eth[0].plca controlState:count 6574
attr enum DISABLE,RESYNC,RECOVER,SEND_BEACON,SYNCING,WAIT_TO,EARLY_RECEIVE,COMMIT,YIELD,RECEIVE,TRANSMIT,BURST,ABORT,NEXT_TX_OPPORTUNITY
attr interpolationmode sample-hold
attr recordingmode count
attr source controlStateChanged
attr title "control state, count"
attr type enum
scalar MultidropNetwork.controller.eth[0].plca collision:count 2
attr interpolationmode sample-hold
attr recordingmode count
attr source collisionChanged
attr title "collision, count"
attr type int
scalar MultidropNetwork.controller.eth[0].plca carrierSense:count 2189
attr interpolationmode sample-hold
attr recordingmode count
attr source carrierSenseChanged
attr title "carrier sense, count"
attr type int
scalar MultidropNetwork.controller.eth[0].phy busUsed:count 7259
attr interpolationmode sample-hold
attr recordingmode count
attr title "bus used, count"
scalar MultidropNetwork.controller.eth[0].phy busUtilization:count 37
attr interpolationmode linear
attr recordingmode count
attr source utilization(busUsed)
attr title "bus utilization, count"
scalar MultidropNetwork.controller.eth[0].phy transmittedSignalType:count 1464
attr enum NONE,BEACON,COMMIT,DATA,JAM
attr interpolationmode sample-hold
attr recordingmode count
attr title "transmitted signal type, count"
attr type enum
scalar MultidropNetwork.controller.eth[0].phy receivedSignalType:count 5797
attr enum NONE,BEACON,COMMIT,DATA,JAM
attr interpolationmode sample-hold
attr recordingmode count
attr title "received signal type, count"
attr type enum
scalar MultidropNetwork.controller.eth[0].phy state:count 9801
attr enum IDLE,TRANSMITTING,RECEIVING,COLLISION,CRS_ON
attr interpolationmode sample-hold
attr recordingmode count
attr source stateChanged
attr title "state, count"
attr type enum
statistic MultidropNetwork.controller.eth[0].phy throughput:histogram
field count 8
field mean 146471.49973758
field stddev 3149.0672730998
field min 144919.1351226
field max 153534.86780686
field sum 1171771.9979006
field sqrsum 171700618255.84
attr interpolationmode linear
attr recordingmode histogram
attr source throughput(transmissionEnded)
attr title throughput
attr unit bps
bin	-inf	0
bin	142600	0
bin	142800	0
bin	143000	0
bin	143200	0
bin	143400	0
bin	143600	0
bin	143800	0
bin	144000	0
bin	144200	0
bin	144400	0
bin	144600	0
bin	144800	6
bin	145000	0
bin	145200	0
bin	145400	0
bin	145600	0
bin	145800	0
bin	146000	0
bin	146200	0
bin	146400	0
bin	146600	0
bin	146800	0
bin	147000	0
bin	147200	0
bin	147400	0
bin	147600	0
bin	147800	0
bin	148000	0
bin	148200	0
bin	148400	0
bin	148600	1
bin	148800	0
bin	149000	0
bin	149200	0
bin	149400	0
bin	149600	0
bin	149800	0
bin	150000	0
bin	150200	0
bin	150400	0
bin	150600	0
bin	150800	0
bin	151000	0
bin	151200	0
bin	151400	0
bin	151600	0
bin	151800	0
bin	152000	0
bin	152200	0
bin	152400	0
bin	152600	0
bin	152800	0
bin	153000	0
bin	153200	0
bin	153400	1
bin	153600	0
bin	153800	0
bin	154000	0
bin	154200	0
bin	154400	0
bin	154600	0
bin	154800	0
bin	155000	0
bin	155200	0
bin	155400	0
bin	155600	0
bin	155800	0
statistic MultidropNetwork.controller.eth[0].phy transmissionTime:histogram
field count 731
field mean 2e-06
field stddev 0
field min 2e-06
field max 2e-06
field sum 0.001462
field sqrsum 2.924e-09
attr interpolationmode none
attr recordingmode histogram
attr source packetDuration(transmissionEnded)
attr title "transmission time"
attr unit s
bin	-inf	0
bin	0	731
bin	0.01	0
bin	0.02	0
bin	0.03	0
bin	0.04	0
bin	0.05	0
bin	0.06	0
bin	0.07	0
bin	0.08	0
bin	0.09	0
bin	0.1	0
bin	0.11	0
bin	0.12	0
bin	0.13	0
bin	0.14	0
bin	0.15	0
bin	0.16	0
bin	0.17	0
bin	0.18	0
bin	0.19	0
bin	0.2	0
bin	0.21	0
bin	0.22	0
bin	0.23	0
bin	0.24	0
bin	0.25	0
bin	0.26	0
bin	0.27	0
bin	0.28	0
bin	0.29	0
bin	0.3	0
bin	0.31	0
bin	0.32	0
bin	0.33	0
bin	0.34	0
bin	0.35	0
bin	0.36	0
bin	0.37	0
bin	0.38	0
bin	0.39	0
bin	0.4	0
bin	0.41	0
bin	0.42	0
bin	0.43	0
bin	0.44	0
bin	0.45	0
bin	0.46	0
bin	0.47	0
bin	0.48	0
bin	0.49	0
bin	0.5	0
bin	0.51	0
scalar MultidropNetwork.controller.eth[0] packetDropInterfaceDown:count 0
attr interpolationmode none
attr recordingmode count
attr source packetDropReasonIsInterfaceDown(packetDropped)
attr title "packet drops: interface down, count"
scalar MultidropNetwork.controller.eth[0] packetDropInterfaceDown:sum(packetBytes) 0
attr interpolationmode none
attr recordingmode sum(packetBytes)
attr source packetDropReasonIsInterfaceDown(packetDropped)
attr title "packet drops: interface down, sum(packetBytes)"
scalar MultidropNetwork.controller.eth[0] packetDropNoCarrier:count 0
attr interpolationmode none
attr recordingmode count
attr source packetDropReasonIsNoCarrier(packetDropped)
attr title "packet drops: no carrier, count"
scalar MultidropNetwork.controller.eth[0] packetDropNoCarrier:sum(packetBytes) 0
attr interpolationmode none
attr recordingmode sum(packetBytes)
attr source packetDropReasonIsNoCarrier(packetDropped)
attr title "packet drops: no carrier, sum(packetBytes)"
scalar MultidropNetwork.controller.app[0].sink packets:count 1448
attr recordingmode count
attr source packetPushed
attr title "packets, count"
attr unit pk
scalar MultidropNetwork.controller.app[0].sink packetLengths:sum 532864
attr interpolationmode none
attr recordingmode sum
attr source packetLength(packetPushed)
attr title "packet lengths, sum"
attr unit b
statistic MultidropNetwork.controller.app[0].sink packetLengths:histogram
field count 1448
field mean 368
field stddev 0
field min 368
field max 368
field sum 532864
field sqrsum 196093952
attr interpolationmode none
attr recordingmode histogram
attr source packetLength(packetPushed)
attr title "packet lengths"
attr unit b
bin	-inf	0
bin	367	0
bin	368	1448
bin	369	0
statistic MultidropNetwork.controller.app[0].sink meanBitLifeTimePerPacket:histogram
field count 1448
field mean 0.013871509
field stddev 0.0079464419029791
field min 0.000123621
field max 0.027619397
field sum 20.085945032
field sqrsum 0.3699945408984
attr interpolationmode none
attr recordingmode histogram
attr source weightedMeanPerGroup(groupRegionsPerPacket(lifeTimePerRegion(packetPushed)))
attr title "mean bit life time per packet"
attr unit s
bin	-inf	0
bin	0	20
bin	0.0005	27
bin	0.001	26
bin	0.0015	26
bin	0.002	27
bin	0.0025	26
bin	0.003	26
bin	0.0035	26
bin	0.004	27
bin	0.0045	26
bin	0.005	27
bin	0.0055	26
bin	0.006	26
bin	0.0065	26
bin	0.007	27
bin	0.0075	26
bin	0.008	26
bin	0.0085	27
bin	0.009	26
bin	0.0095	26
bin	0.01	27
bin	0.0105	26
bin	0.011	26
bin	0.0115	26
bin	0.012	27
bin	0.0125	26
bin	0.013	26
bin	0.0135	27
bin	0.014	26
bin	0.0145	26
bin	0.015	27
bin	0.0155	26
bin	0.016	26
bin	0.0165	27
bin	0.017	26
bin	0.0175	26
bin	0.018	27
bin	0.0185	26
bin	0.019	26
bin	0.0195	27
bin	0.02	26
bin	0.0205	26
bin	0.021	26
bin	0.0215	27
bin	0.022	26
bin	0.0225	26
bin	0.023	27
bin	0.0235	26
bin	0.024	26
bin	0.0245	27
bin	0.025	26
bin	0.0255	26
bin	0.026	26
bin	0.0265	27
bin	0.027	26
bin	0.0275	7
bin	0.028	0
statistic MultidropNetwork.controller.app[0].sink packetJitter:histogram
field count 1448
field mean 1.9074169198895e-05
field stddev 3.2524868490459e-06
field min 1.7999999999994e-05
field max 0.000123621
field sum 0.027619397
field sqrsum 5.4212438805701e-07
attr interpolationmode none
attr recordingmode histogram
attr source jitter(weightedMeanPerGroup(groupRegionsPerPacket(lifeTimePerRegion(packetPushed))))
attr title "packet jitter"
attr unit s
bin	-inf	0
bin	0	0
bin	2e-06	0
bin	4e-06	0
bin	6e-06	0
bin	8e-06	0
bin	1e-05	0
bin	1.2e-05	0
bin	1.4e-05	0
bin	1.6e-05	364
bin	1.8e-05	722
bin	2e-05	0
bin	2.2e-05	361
bin	2.4e-05	0
bin	2.6e-05	0
bin	2.8e-05	0
bin	3e-05	0
bin	3.2e-05	0
bin	3.4e-05	0
bin	3.6e-05	0
bin	3.8e-05	0
bin	4e-05	0
bin	4.2e-05	0
bin	4.4e-05	0
bin	4.6e-05	0
bin	4.8e-05	0
bin	5e-05	0
bin	5.2e-05	0
bin	5.4e-05	0
bin	5.6e-05	0
bin	5.8e-05	0
bin	6e-05	0
bin	6.2e-05	0
bin	6.4e-05	0
bin	6.6e-05	0
bin	6.8e-05	0
bin	7e-05	0
bin	7.2e-05	0
bin	7.4e-05	0
bin	7.6e-05	0
bin	7.8e-05	0
bin	8e-05	0
bin	8.2e-05	0
bin	8.4e-05	0
bin	8.6e-05	0
bin	8.8e-05	0
bin	9e-05	0
bin	9.2e-05	0
bin	9.4e-05	0
bin	9.6e-05	0
bin	9.8e-05	0
bin	0.0001	0
bin	0.000102	0
bin	0.000104	0
bin	0.000106	0
bin	0.000108	0
bin	0.00011	0
bin	0.000112	0
bin	0.000114	0
bin	0.000116	0
bin	0.000118	0
bin	0.00012	0
bin	0.000122	1
bin	0.000124	0
bin	0.000126	0
bin	0.000128	0
bin	0.00013	0
bin	0.000132	0
bin	0.000134	0
bin	0.000136	0
bin	0.000138	0
bin	0.00014	0
bin	0.000142	0
bin	0.000144	0
bin	0.000146	0
bin	0.000148	0
bin	0.00015	0
bin	0.000152	0
statistic MultidropNetwork.controller.app[0].sink packetDelayDifferenceToMean:histogram
field count 1448
field mean -0.0068746898313822
field stddev 0.0039732289938741
field min -0.013747888
field max 0
field sum -9.9545508758414
field sqrsum 0.091277585560964
attr interpolationmode none
attr recordingmode histogram
attr source differenceToMean(weightedMeanPerGroup(groupRegionsPerPacket(lifeTimePerRegion(packetPushed))))
attr title "packet delay difference to mean"
attr unit s
bin	-inf	0
bin	-0.0138	16
bin	-0.0136	21
bin	-0.0134	21
bin	-0.0132	22
bin	-0.013	20
bin	-0.0128	21
bin	-0.0126	22
bin	-0.0124	21
bin	-0.0122	20
bin	-0.012	22
bin	-0.0118	21
bin	-0.0116	21
bin	-0.0114	21
bin	-0.0112	21
bin	-0.011	21
bin	-0.0108	21
bin	-0.0106	21
bin	-0.0104	21
bin	-0.0102	21
bin	-0.01	21
bin	-0.0098	21
bin	-0.0096	21
bin	-0.0094	21
bin	-0.0092	21
bin	-0.009	21
bin	-0.0088	21
bin	-0.0086	22
bin	-0.0084	20
bin	-0.0082	22
bin	-0.008	21
bin	-0.0078	21
bin	-0.0076	21
bin	-0.0074	21
bin	-0.0072	21
bin	-0.007	21
bin	-0.0068	21
bin	-0.0066	21
bin	-0.0064	21
bin	-0.0062	21
bin	-0.006	21
bin	-0.0058	21
bin	-0.0056	21
bin	-0.0054	21
bin	-0.0052	21
bin	-0.005	21
bin	-0.0048	22
bin	-0.0046	20
bin	-0.0044	21
bin	-0.0042	22
bin	-0.004	21
bin	-0.0038	20
bin	-0.0036	22
bin	-0.0034	21
bin	-0.0032	21
bin	-0.003	21
bin	-0.0028	21
bin	-0.0026	21
bin	-0.0024	21
bin	-0.0022	21
bin	-0.002	21
bin	-0.0018	21
bin	-0.0016	21
bin	-0.0014	21
bin	-0.0012	21
bin	-0.001	21
bin	-0.0008	21
bin	-0.0006	21
bin	-0.0004	21
bin	-0.0002	21
bin	0	1
bin	0.0002	0
bin	0.0004	0
bin	0.0006	0
bin	0.0008	0
bin	0.001	0
bin	0.0012	0
bin	0.0014	0
bin	0.0016	0
bin	0.0018	0
bin	0.002	0
bin	0.0022	0
bin	0.0024	0
statistic MultidropNetwork.controller.app[0].sink packetDelayVariation:histogram
field count 1448
field mean 0.0039745677634043
field stddev 0.0022939758932337
field min 0
field max 0.0079436981928399
field sum 5.7551741214095
field sqrsum 0.030488914387706
attr recordingmode histogram
attr source stddev(weightedMeanPerGroup(groupRegionsPerPacket(lifeTimePerRegion(packetPushed))))
attr title "packet delay variation"
attr unit s
bin	-inf	0
bin	0	18
bin	0.0001	18
bin	0.0002	18
bin	0.0003	18
bin	0.0004	19
bin	0.0005	18
bin	0.0006	18
bin	0.0007	18
bin	0.0008	19
bin	0.0009	18
bin	0.001	18
bin	0.0011	18
bin	0.0012	18
bin	0.0013	19
bin	0.0014	18
bin	0.0015	18
bin	0.0016	18
bin	0.0017	19
bin	0.0018	18
bin	0.0019	18
bin	0.002	18
bin	0.0021	19
bin	0.0022	18
bin	0.0023	18
bin	0.0024	18
bin	0.0025	18
bin	0.0026	19
bin	0.0027	18
bin	0.0028	18
bin	0.0029	18
bin	0.003	19
bin	0.0031	18
bin	0.0032	18
bin	0.0033	18
bin	0.0034	18
bin	0.0035	19
bin	0.0036	18
bin	0.0037	18
bin	0.0038	18
bin	0.0039	19
bin	0.004	18
bin	0.0041	18
bin	0.0042	18
bin	0.0043	19
bin	0.0044	18
bin	0.0045	18
bin	0.0046	18
bin	0.0047	18
bin	0.0048	19
bin	0.0049	18
bin	0.005	18
bin	0.0051	18
bin	0.0052	19
bin	0.0053	18
bin	0.0054	18
bin	0.0055	18
bin	0.0056	19
bin	0.0057	18
bin	0.0058	18
bin	0.0059	18
bin	0.006	18
bin	0.0061	19
bin	0.0062	18
bin	0.0063	18
bin	0.0064	18
bin	0.0065	19
bin	0.0066	18
bin	0.0067	18
bin	0.0068	18
bin	0.0069	18
bin	0.007	19
bin	0.0071	18
bin	0.0072	18
bin	0.0073	18
bin	0.0074	19
bin	0.0075	18
bin	0.0076	18
bin	0.0077	18
bin	0.0078	19
bin	0.0079	8
bin	0.008	0
scalar MultidropNetwork.controller.app[0].sink droppedPackets:count 1448
attr recordingmode count
attr source packetDropped
attr title "dropped packets, count"
attr unit pk
scalar MultidropNetwork.controller.app[0].sink droppedPacketLengths:sum 532864
attr interpolationmode none
attr recordingmode sum
attr source packetLength(packetDropped)
attr title "dropped packet lengths, sum"
attr unit b
statistic MultidropNetwork.controller.app[0].sink droppedPacketLengths:histogram
field count 1448
field mean 368
field stddev 0
field min 368
field max 368
field sum 532864
field sqrsum 196093952
attr interpolationmode none
attr recordingmode histogram
attr source packetLength(packetDropped)
attr title "dropped packet lengths"
attr unit b
bin	-inf	0
bin	367	0
bin	368	1448
bin	369	0
scalar MultidropNetwork.controller.app[0].io "packets sent" 0
scalar MultidropNetwork.controller.app[0].io "packets received" 1448
scalar MultidropNetwork.controller.app[0].io packetReceived:count 1448
attr interpolationmode none
attr recordingmode count
attr source packetReceived
attr title "packets received, count"
scalar MultidropNetwork.controller.app[0].io packetReceived:sum(packetBytes) 66608
attr interpolationmode none
attr recordingmode sum(packetBytes)
attr source packetReceived
attr title "packets received, sum(packetBytes)"
scalar MultidropNetwork.controller.app[0].io packetSent:count 0
attr interpolationmode none
attr recordingmode count
attr source packetSent
attr title "packets sent, count"
scalar MultidropNetwork.controller.app[0].io packetSent:sum(packetBytes) 0
attr interpolationmode none
attr recordingmode sum(packetBytes)
attr source packetSent
attr title "packets sent, sum(packetBytes)"
scalar MultidropNetwork.node[0].ethernet pauseSent:count 0
attr recordingmode count
attr title "pause sent, count"
scalar MultidropNetwork.node[0].ethernet pauseSent:sum 0
attr recordingmode sum
attr title "pause sent, sum"
scalar MultidropNetwork.node[0].ethernet decapPk:count 0
attr interpolationmode none
attr recordingmode count
attr source decapPk
attr title "packets decapsulated, count"
scalar MultidropNetwork.node[0].ethernet decapPk:sum(packetBytes) 0
attr interpolationmode none
attr recordingmode sum(packetBytes)
attr source decapPk
attr title "packets decapsulated, sum(packetBytes)"
scalar MultidropNetwork.node[0].ethernet encapPk:count 2001
attr interpolationmode none
attr recordingmode count
attr source encapPk
attr title "packets encapsulated, count"
scalar MultidropNetwork.node[0].ethernet encapPk:sum(packetBytes) 92046
attr interpolationmode none
attr recordingmode sum(packetBytes)
attr source encapPk
attr title "packets encapsulated, sum(packetBytes)"
scalar MultidropNetwork.node[0].eth[0].queue queueLength:last 552
attr autoWarmupFilter false
attr interpolationmode sample-hold
attr recordingmode last
attr source "warmup(atomic(constant0(packetPushEnded) + count(packetPushStarted) - count(packetPulled) - count(packetRemoved) - count(packetDropped)))"
attr title "queue length, last"
attr unit pk
scalar MultidropNetwork.node[0].eth[0].queue queueLength:max 552
attr autoWarmupFilter false
attr interpolationmode sample-hold
attr recordingmode max
attr source "warmup(atomic(constant0(packetPushEnded) + count(packetPushStarted) - count(packetPulled) - count(packetRemoved) - count(packetDropped)))"
attr title "queue length, max"
attr unit pk
scalar MultidropNetwork.node[0].eth[0].queue queueLength:timeavg 276.31234972
attr autoWarmupFilter false
attr interpolationmode sample-hold
attr recordingmode timeavg
attr source "warmup(atomic(constant0(packetPushEnded) + count(packetPushStarted) - count(packetPulled) - count(packetRemoved) - count(packetDropped)))"
attr title "queue length, timeavg"
attr unit pk
scalar MultidropNetwork.node[0].eth[0].queue queueBitLength:last 282624
attr autoWarmupFilter false
attr interpolationmode sample-hold
attr recordingmode last
attr source "warmup(atomic(constant0(packetPushEnded) + sum(packetLength(packetPushStarted)) - sum(packetLength(packetPulled)) - sum(packetLength(packetRemoved)) - sum(packetLength(packetDropped))))"
attr title "queue bit length, last"
attr unit b
scalar MultidropNetwork.node[0].eth[0].queue queueBitLength:max 282624
attr autoWarmupFilter false
attr interpolationmode sample-hold
attr recordingmode max
attr source "warmup(atomic(constant0(packetPushEnded) + sum(packetLength(packetPushStarted)) - sum(packetLength(packetPulled)) - sum(packetLength(packetRemoved)) - sum(packetLength(packetDropped))))"
attr title "queue bit length, max"
attr unit b
scalar MultidropNetwork.node[0].eth[0].queue queueBitLength:timeavg 141471.92305664
attr autoWarmupFilter false
attr interpolationmode sample-hold
attr recordingmode timeavg
attr source "warmup(atomic(constant0(packetPushEnded) + sum(packetLength(packetPushStarted)) - sum(packetLength(packetPulled)) - sum(packetLength(packetRemoved)) - sum(packetLength(packetDropped))))"
attr title "queue bit length, timeavg"
attr unit b
statistic MultidropNetwork.node[0].eth[0].queue queueingTime:histogram
field count 1449
field mean 0.013821556226363
field stddev 0.0079520029861729
field min 0
field max 0.0275789895
field sum 20.027434972
field sqrsum 0.36837365949589
attr interpolationmode none
attr recordingmode histogram
attr source queueingTime(packetPulled)
attr title "queueing times"
attr unit s
bin	-inf	0
bin	0	24
bin	0.0005	26
bin	0.001	26
bin	0.0015	26
bin	0.002	27
bin	0.0025	26
bin	0.003	26
bin	0.0035	27
bin	0.004	26
bin	0.0045	26
bin	0.005	27
bin	0.0055	26
bin	0.006	26
bin	0.0065	26
bin	0.007	27
bin	0.0075	26
bin	0.008	27
bin	0.0085	26
bin	0.009	26
bin	0.0095	26
bin	0.01	27
bin	0.0105	26
bin	0.011	26
bin	0.0115	27
bin	0.012	26
bin	0.0125	26
bin	0.013	27
bin	0.0135	26
bin	0.014	26
bin	0.0145	26
bin	0.015	27
bin	0.0155	26
bin	0.016	26
bin	0.0165	27
bin	0.017	26
bin	0.0175	26
bin	0.018	27
bin	0.0185	26
bin	0.019	26
bin	0.0195	27
bin	0.02	26
bin	0.0205	26
bin	0.021	27
bin	0.0215	26
bin	0.022	26
bin	0.0225	26
bin	0.023	27
bin	0.0235	26
bin	0.024	26
bin	0.0245	27
bin	0.025	26
bin	0.0255	26
bin	0.026	27
bin	0.0265	26
bin	0.027	26
bin	0.0275	5
bin	0.028	0
scalar MultidropNetwork.node[0].eth[0].queue outgoingPackets:count 1449
attr recordingmode count
attr source packetPulled
attr title "outgoing packets, count"
attr unit pk
scalar MultidropNetwork.node[0].eth[0].queue outgoingPacketLengths:sum 741888
attr interpolationmode none
attr recordingmode sum
attr source packetLength(packetPulled)
attr title "outgoing packet lengths, sum"
attr unit b
statistic MultidropNetwork.node[0].eth[0].queue outgoingPacketLengths:histogram
field count 1449
field mean 512
field stddev 0
field min 512
field max 512
field sum 741888
field sqrsum 379846656
attr interpolationmode none
attr recordingmode histogram
attr source packetLength(packetPulled)
attr title "outgoing packet lengths"
attr unit b
bin	-inf	0
bin	511	0
bin	512	1449
bin	513	0
statistic MultidropNetwork.node[0].eth[0].queue flowQueueingTime:histogram
field count 0
field mean -nan
field stddev nan
field min nan
field max nan
field sum 0
field sqrsum 0
attr interpolationmode none
attr recordingmode histogram
attr source queueingTime(demuxFlow(packetPulled))
attr title "flow queueing times"
attr unit s
bin	-inf	0
bin	0	0
bin	1	0
scalar MultidropNetwork.node[0].eth[0].queue incomingPackets:count 2001
attr recordingmode count
attr source packetPushStarted
attr title "incoming packets, count"
attr unit pk
scalar MultidropNetwork.node[0].eth[0].queue incomingPacketLengths:sum 1024512
attr interpolationmode none
attr recordingmode sum
attr source packetLength(packetPushStarted)
attr title "incoming packet lengths, sum"
attr unit b
statistic MultidropNetwork.node[0].eth[0].queue incomingPacketLengths:histogram
field count 2001
field mean 512
field stddev 0
field min 512
field max 512
field sum 1024512
field sqrsum 524550144
attr interpolationmode none
attr recordingmode histogram
attr source packetLength(packetPushStarted)
attr title "incoming packet lengths"
attr unit b
bin	-inf	0
bin	511	0
bin	512	2001
bin	513	0
scalar MultidropNetwork.node[0].eth[0].queue droppedPacketsQueueOverflow:count 0
attr interpolationmode none
attr recordingmode count
attr source packetDropReasonIsQueueOverflow(packetDropped)
attr title "dropped packets: queue overflow, count"
attr unit pk
scalar MultidropNetwork.node[0].eth[0].queue droppedPacketLengthsQueueOverflow:sum 0
attr interpolationmode none
attr recordingmode sum
attr source packetLength(packetDropReasonIsQueueOverflow(packetDropped))
attr title "dropped packet lengths: queue overflow, sum"
attr unit b
scalar MultidropNetwork.node[0].eth[0].mac state:count 4352
attr enum IDLE,WAIT_IFG,TRANSMITTING,JAMMING,BACKOFF,RECEIVING
attr interpolationmode sample-hold
attr recordingmode count
attr source stateChanged
attr title "state, count"
attr type enum
scalar MultidropNetwork.node[0].eth[0].mac collision:count 4
attr interpolationmode sample-hold
attr recordingmode count
attr source collisionChanged
attr title "collision, count"
attr type int
scalar MultidropNetwork.node[0].eth[0].mac carrierSense:count 2901
attr interpolationmode sample-hold
attr recordingmode count
attr source carrierSenseChanged
attr title "carrier sense, count"
attr type int
scalar MultidropNetwork.node[0].eth[0].plca transmitOpportunityUsed:count 731
attr interpolationmode none
attr recordingmode count
attr title "transmit opportunity used, count"
scalar MultidropNetwork.node[0].eth[0].plca packetInterval:count 1448
attr interpolationmode none
attr recordingmode count
attr title "packet interval, count"
attr unit s
statistic MultidropNetwork.node[0].eth[0].plca packetInterval:histogram
field count 1448
field mean 6.9003999999999e-05
field stddev 1.7395797982161e-06
field min 6.8e-05
field max 7.2016e-05
field sum 0.099917791999998
field sqrsum 6.8991061406719e-06
attr interpolationmode none
attr recordingmode histogram
attr title "packet interval"
attr unit s
bin	-inf	0
bin	6.69e-05	0
bin	6.7e-05	0
bin	6.71e-05	0
bin	6.72e-05	0
bin	6.73e-05	0
bin	6.74e-05	0
bin	6.75e-05	0
bin	6.76e-05	0
bin	6.77e-05	0
bin	6.78e-05	0
bin	6.79e-05	1086
bin	6.8e-05	0
bin	6.81e-05	0
bin	6.82e-05	0
bin	6.83e-05	0
bin	6.84e-05	0
bin	6.85e-05	0
bin	6.86e-05	0
bin	6.87e-05	0
bin	6.88e-05	0
bin	6.89e-05	0
bin	6.9e-05	0
bin	6.91e-05	0
bin	6.92e-05	0
bin	6.93e-05	0
bin	6.94e-05	0
bin	6.95e-05	0
bin	6.96e-05	0
bin	6.97e-05	0
bin	6.98e-05	0
bin	6.99e-05	0
bin	7e-05	0
bin	7.01e-05	0
bin	7.02e-05	0
bin	7.03e-05	0
bin	7.04e-05	0
bin	7.05e-05	0
bin	7.06e-05	0
bin	7.07e-05	0
bin	7.08e-05	0
bin	7.09e-05	0
bin	7.1e-05	0
bin	7.11e-05	0
bin	7.12e-05	0
bin	7.13e-05	0
bin	7.14e-05	0
bin	7.15e-05	0
bin	7.16e-05	0
bin	7.17e-05	0
bin	7.18e-05	0
bin	7.19e-05	0
bin	7.2e-05	362
bin	7.21e-05	0
bin	7.22e-05	0
bin	7.23e-05	0
bin	7.24e-05	0
bin	7.25e-05	0
bin	7.26e-05	0
bin	7.27e-05	0
bin	7.28e-05	0
bin	7.29e-05	0
bin	7.3e-05	0
bin	7.31e-05	0
scalar MultidropNetwork.node[0].eth[0].plca packetPendingDelay:count 1449
attr interpolationmode none
attr recordingmode count
attr title "packet pending delay, count"
attr unit s
statistic MultidropNetwork.node[0].eth[0].plca packetPendingDelay:histogram
field count 1449
field mean 1.0483129744651e-06
field stddev 2.4226766053107e-06
field min 0
field max 6.52135e-05
field sum 0.0015190055
field sqrsum 1.009122925425e-08
attr interpolationmode none
attr recordingmode histogram
attr title "packet pending delay"
attr unit s
bin	-inf	0
bin	0	1086
bin	1e-06	0
bin	2e-06	0
bin	3e-06	0
bin	4e-06	362
bin	5e-06	0
bin	6e-06	0
bin	7e-06	0
bin	8e-06	0
bin	9e-06	0
bin	1e-05	0
bin	1.1e-05	0
bin	1.2e-05	0
bin	1.3e-05	0
bin	1.4e-05	0
bin	1.5e-05	0
bin	1.6e-05	0
bin	1.7e-05	0
bin	1.8e-05	0
bin	1.9e-05	0
bin	2e-05	0
bin	2.1e-05	0
bin	2.2e-05	0
bin	2.3e-05	0
bin	2.4e-05	0
bin	2.5e-05	0
bin	2.6e-05	0
bin	2.7e-05	0
bin	2.8e-05	0
bin	2.9e-05	0
bin	3e-05	0
bin	3.1e-05	0
bin	3.2e-05	0
bin	3.3e-05	0
bin	3.4e-05	0
bin	3.5e-05	0
bin	3.6e-05	0
bin	3.7e-05	0
bin	3.8e-05	0
bin	3.9e-05	0
bin	4e-05	0
bin	4.1e-05	0
bin	4.2e-05	0
bin	4.3e-05	0
bin	4.4e-05	0
bin	4.5e-05	0
bin	4.6e-05	0
bin	4.7e-05	0
bin	4.8e-05	0
bin	4.9e-05	0
bin	5e-05	0
bin	5.1e-05	0
bin	5.2e-05	0
bin	5.3e-05	0
bin	5.4e-05	0
bin	5.5e-05	0
bin	5.6e-05	0
bin	5.7e-05	0
bin	5.8e-05	0
bin	5.9e-05	0
bin	6e-05	0
bin	6.1e-05	0
bin	6.2e-05	0
bin	6.3e-05	0
bin	6.4e-05	0
bin	6.5e-05	1
bin	6.6e-05	0
bin	6.7e-05	0
bin	6.8e-05	0
bin	6.9e-05	0
bin	7e-05	0
bin	7.1e-05	0
bin	7.2e-05	0
bin	7.3e-05	0
bin	7.4e-05	0
bin	7.5e-05	0
bin	7.6e-05	0
bin	7.7e-05	0
bin	7.8e-05	0
bin	7.9e-05	0
bin	8e-05	0
bin	8.1e-05	0
bin	8.2e-05	0
scalar MultidropNetwork.node[0].eth[0].plca txCmd:count 2899
attr enum NONE,BEACON,COMMIT
attr interpolationmode sample-hold
attr recordingmode count
attr title "TX command, count"
attr type enum
scalar MultidropNetwork.node[0].eth[0].plca rxCmd:count 1463
attr enum NONE,BEACON,COMMIT
attr interpolationmode sample-hold
attr recordingmode count
attr title "RX command, count"
attr type enum
scalar MultidropNetwork.node[0].eth[0].plca dataState:count 3628
attr enum WAIT_IDLE,IDLE,RECEIVE,HOLD,COLLIDE,DELAY_PENDING,PENDING,WAIT_MAC,TRANSMIT
attr interpolationmode sample-hold
attr recordingmode count
attr source dataStateChanged
attr title "data state, count"
attr type enum
scalar MultidropNetwork.node[0].eth[0].plca controlState:count 8383
attr enum DISABLE,RESYNC,RECOVER,SEND_BEACON,SYNCING,WAIT_TO,EARLY_RECEIVE,COMMIT,YIELD,RECEIVE,TRANSMIT,BURST,ABORT,NEXT_TX_OPPORTUNITY
attr interpolationmode sample-hold
attr recordingmode count
attr source controlStateChanged
attr title "control state, count"
attr type enum
scalar MultidropNetwork.node[0].eth[0].plca collision:count 2
attr interpolationmode sample-hold
attr recordingmode count
attr source collisionChanged
attr title "collision, count"
attr type int
scalar MultidropNetwork.node[0].eth[0].plca carrierSense:count 2189
attr interpolationmode sample-hold
attr recordingmode count
attr source carrierSenseChanged
attr title "carrier sense, count"
attr type int
scalar MultidropNetwork.node[0].eth[0].phy busUsed:count 7259
attr interpolationmode sample-hold
attr recordingmode count
attr title "bus used, count"
scalar MultidropNetwork.node[0].eth[0].phy busUtilization:count 37
attr interpolationmode linear
attr recordingmode count
attr source utilization(busUsed)
attr title "bus utilization, count"
scalar MultidropNetwork.node[0].eth[0].phy transmittedSignalType:count 5797
attr enum NONE,BEACON,COMMIT,DATA,JAM
attr interpolationmode sample-hold
attr recordingmode count
attr title "transmitted signal type, count"
attr type enum
scalar MultidropNetwork.node[0].eth[0].phy receivedSignalType:count 1464
attr enum NONE,BEACON,COMMIT,DATA,JAM
attr interpolationmode sample-hold
attr recordingmode count
attr title "received signal type, count"
attr type enum
scalar MultidropNetwork.node[0].eth[0].phy state:count 8352
attr enum IDLE,TRANSMITTING,RECEIVING,COLLISION,CRS_ON
attr interpolationmode sample-hold
attr recordingmode count
attr source stateChanged
attr title "state, count"
attr type enum
statistic MultidropNetwork.node[0].eth[0].phy throughput:histogram
field count 29
field mean 9383991.6010781
field stddev 34381.07423891
field min 9260788.0203396
field max 9410148.8548201
field sum 272135756.43126
field sqrsum 2.5537527503355e+15
attr interpolationmode linear
attr recordingmode histogram
attr source throughput(transmissionEnded)
attr title throughput
attr unit bps
bin	-inf	0
bin	9220000	0
bin	9225000	0
bin	9230000	0
bin	9235000	0
bin	9240000	0
bin	9245000	0
bin	9250000	0
bin	9255000	0
bin	9260000	1
bin	9265000	0
bin	9270000	0
bin	9275000	0
bin	9280000	0
bin	9285000	0
bin	9290000	0
bin	9295000	0
bin	9300000	1
bin	9305000	0
bin	9310000	0
bin	9315000	0
bin	9320000	0
bin	9325000	0
bin	9330000	0
bin	9335000	0
bin	9340000	0
bin	9345000	0
bin	9350000	0
bin	9355000	0
bin	9360000	0
bin	9365000	0
bin	9370000	13
bin	9375000	0
bin	9380000	0
bin	9385000	0
bin	9390000	0
bin	9395000	0
bin	9400000	0
bin	9405000	0
bin	9410000	14
bin	9415000	0
bin	9420000	0
bin	9425000	0
bin	9430000	0
bin	9435000	0
bin	9440000	0
bin	9445000	0
bin	9450000	0
statistic MultidropNetwork.node[0].eth[0].phy transmissionTime:histogram
field count 2897
field mean 3.2791991715567e-05
field stddev 2.5771802269125e-05
field min 0
field max 5.84e-05
field sum 0.094998399999999
field sqrsum 5.0386688e-06
attr interpolationmode none
attr recordingmode histogram
attr source packetDuration(transmissionEnded)
attr title "transmission time"
attr unit s
bin	-inf	0
bin	0	362
bin	1e-06	0
bin	2e-06	0
bin	3e-06	0
bin	4e-06	0
bin	5e-06	0
bin	6e-06	0
bin	7e-06	0
bin	8e-06	0
bin	9e-06	1087
bin	1e-05	0
bin	1.1e-05	0
bin	1.2e-05	0
bin	1.3e-05	0
bin	1.4e-05	0
bin	1.5e-05	0
bin	1.6e-05	0
bin	1.7e-05	0
bin	1.8e-05	0
bin	1.9e-05	0
bin	2e-05	0
bin	2.1e-05	0
bin	2.2e-05	0
bin	2.3e-05	0
bin	2.4e-05	0
bin	2.5e-05	0
bin	2.6e-05	0
bin	2.7e-05	0
bin	2.8e-05	0
bin	2.9e-05	0
bin	3e-05	0
bin	3.1e-05	0
bin	3.2e-05	0
bin	3.3e-05	0
bin	3.4e-05	0
bin	3.5e-05	0
bin	3.6e-05	0
bin	3.7e-05	0
bin	3.8e-05	0
bin	3.9e-05	0
bin	4e-05	0
bin	4.1e-05	0
bin	4.2e-05	0
bin	4.3e-05	0
bin	4.4e-05	0
bin	4.5e-05	0
bin	4.6e-05	0
bin	4.7e-05	0
bin	4.8e-05	0
bin	4.9e-05	0
bin	5e-05	0
bin	5.1e-05	0
bin	5.2e-05	0
bin	5.3e-05	0
bin	5.4e-05	0
bin	5.5e-05	0
bin	5.6e-05	0
bin	5.7e-05	0
bin	5.8e-05	1448
bin	5.9e-05	0
bin	6e-05	0
bin	6.1e-05	0
bin	6.2e-05	0
bin	6.3e-05	0
bin	6.4e-05	0
bin	6.5e-05	0
bin	6.6e-05	0
bin	6.7e-05	0
bin	6.8e-05	0
bin	6.9e-05	0
bin	7e-05	0
bin	7.1e-05	0
bin	7.2e-05	0
bin	7.3e-05	0
scalar MultidropNetwork.node[0].eth[0] packetDropInterfaceDown:count 0
attr interpolationmode none
attr recordingmode count
attr source packetDropReasonIsInterfaceDown(packetDropped)
attr title "packet drops: interface down, count"
scalar MultidropNetwork.node[0].eth[0] packetDropInterfaceDown:sum(packetBytes) 0
attr interpolationmode none
attr recordingmode sum(packetBytes)
attr source packetDropReasonIsInterfaceDown(packetDropped)
attr title "packet drops: interface down, sum(packetBytes)"
scalar MultidropNetwork.node[0].eth[0] packetDropNoCarrier:count 0
attr interpolationmode none
attr recordingmode count
attr source packetDropReasonIsNoCarrier(packetDropped)
attr title "packet drops: no carrier, count"
scalar MultidropNetwork.node[0].eth[0] packetDropNoCarrier:sum(packetBytes) 0
attr interpolationmode none
attr recordingmode sum(packetBytes)
attr source packetDropReasonIsNoCarrier(packetDropped)
attr title "packet drops: no carrier, sum(packetBytes)"
scalar MultidropNetwork.node[0].app[0].source packets:count 2001
attr recordingmode count
attr source packetPushed
attr title "packets, count"
attr unit pk
scalar MultidropNetwork.node[0].app[0].source packetLengths:sum 736368
attr interpolationmode none
attr recordingmode sum
attr source packetLength(packetPushed)
attr title "packet lengths, sum"
attr unit b
statistic MultidropNetwork.node[0].app[0].source packetLengths:histogram
field count 2001
field mean 368
field stddev 0
field min 368
field max 368
field sum 736368
field sqrsum 270983424
attr interpolationmode none
attr recordingmode histogram
attr source packetLength(packetPushed)
attr title "packet lengths"
attr unit b
bin	-inf	0
bin	367	0
bin	368	2001
bin	369	0
scalar MultidropNetwork.node[0].app[0].io "packets sent" 2001
scalar MultidropNetwork.node[0].app[0].io "packets received" 0
scalar MultidropNetwork.node[0].app[0].io packetReceived:count 0
attr interpolationmode none
attr recordingmode count
attr source packetReceived
attr title "packets received, count"
scalar MultidropNetwork.node[0].app[0].io packetReceived:sum(packetBytes) 0
attr interpolationmode none
attr recordingmode sum(packetBytes)
attr source packetReceived
attr title "packets received, sum(packetBytes)"
scalar MultidropNetwork.node[0].app[0].io packetSent:count 2001
attr interpolationmode none
attr recordingmode count
attr source packetSent
attr title "packets sent, count"
scalar MultidropNetwork.node[0].app[0].io packetSent:sum(packetBytes) 92046
attr interpolationmode none
attr recordingmode sum(packetBytes)
attr source packetSent
attr title "packets sent, sum(packetBytes)"
scalar MultidropNetwork.j[0] packetReceived:count 5078
attr interpolationmode none
attr recordingmode count
attr source packetReceived
attr title "packets, count"
scalar MultidropNetwork.j[0] packetReceived:sum(packetBytes) 235485
attr interpolationmode none
attr recordingmode sum(packetBytes)
attr source packetReceived
attr title "packets, sum(packetBytes)"

