version 3
run PLCA-0-20251118-11:41:07-109898
attr configname PLCA
attr datetime 20251118-11:41:07
attr datetimef 20251118-114107
attr experiment PLCA
attr inifile validation.ini
attr iterationvars "$numNodes=1, $packetInterval=50"
attr iterationvarsd numNodes=1/packetInterval=50
attr iterationvarsf numNodes=1,packetInterval=50-
attr measurement "$numNodes=1, $packetInterval=50"
attr network MultidropNetwork
attr processid 109898
attr repetition 0
attr replication #0
attr resultdir results
attr runnumber 0
attr seedset 0
itervar numNodes 1
itervar packetInterval 50
config **.param-recording false
config image-path /home/zoli/Projects/OMNET/inet/images
config output-scalar-file results/validation.ini-PLCA-#0.sca
config output-scalar-precision 17
config output-vector-file results/validation.ini-PLCA-#0.vec
config output-vector-precision 17
config record-eventlog false
config sim-time-limit 100ms
config description "Ethernet PLCA using separate EthernetCsmaMac, EthernetPlca, and EthernetCsmaPhy modules"
config *.*.eth[0].plca.max_bc 3
config description "Comparison of an Ethernet 10BASE-T1S multidrop link against an Ethernet CSMA/CD link"
config network MultidropNetwork
config sim-time-limit 100ms
config *.numNodes 1
config *.controller.typename EthernetPlcaHost
config *.node[*].typename EthernetPlcaHost
config *.node[*].numApps 1
config *.node[*].app[0].typename EthernetSourceApp
config *.node[*].app[0].io.interface "\"eth0\""
config *.node[*].app[0].io.remoteAddress "\"controller\""
config *.node[*].app[0].source.productionInterval "1 * 50us"
config *.node[*].app[0].source.packetLength 46B
config *.controller.numApps 1
config *.controller.app[0].typename EthernetSinkApp
config *.controller.app[0].io.interface "\"eth0\""
config *.controller.app[0].io.localAddress "\"controller\""
config *.visualizer.interfaceTableVisualizer.displayInterfaceTables true
config *.visualizer.interfaceTableVisualizer.format "\"%N%\\\\%m\""

scalar MultidropNetwork.controller.ethernet pauseSent:count 0
scalar MultidropNetwork.controller.ethernet pauseSent:sum 0
scalar MultidropNetwork.controller.ethernet decapPk:count 0
scalar MultidropNetwork.controller.ethernet decapPk:sum(packetBytes) 0
scalar MultidropNetwork.controller.ethernet encapPk:count 0
scalar MultidropNetwork.controller.ethernet encapPk:sum(packetBytes) 0
scalar MultidropNetwork.controller.eth[0].queue queueLength:last 0
scalar MultidropNetwork.controller.eth[0].queue queueLength:max 0
scalar MultidropNetwork.controller.eth[0].queue queueLength:timeavg 0
scalar MultidropNetwork.controller.eth[0].queue queueBitLength:last 0
scalar MultidropNetwork.controller.eth[0].queue queueBitLength:max 0
scalar MultidropNetwork.controller.eth[0].queue queueBitLength:timeavg 0
scalar MultidropNetwork.controller.eth[0].queue outgoingPackets:count 0
scalar MultidropNetwork.controller.eth[0].queue outgoingPacketLengths:sum 0
scalar MultidropNetwork.controller.eth[0].queue incomingPackets:count 0
scalar MultidropNetwork.controller.eth[0].queue incomingPacketLengths:sum 0
scalar MultidropNetwork.controller.eth[0].queue droppedPacketsQueueOverflow:count 0
scalar MultidropNetwork.controller.eth[0].queue droppedPacketLengthsQueueOverflow:sum 0
scalar MultidropNetwork.controller.eth[0].mac state:count 4347
scalar MultidropNetwork.controller.eth[0].mac collision:count 2
scalar MultidropNetwork.controller.eth[0].mac carrierSense:count 2899
scalar MultidropNetwork.controller.eth[0].plca transmitOpportunityUsed:count 731
scalar MultidropNetwork.controller.eth[0].plca packetInterval:count 0
scalar MultidropNetwork.controller.eth[0].plca packetPendingDelay:count 0
scalar MultidropNetwork.controller.eth[0].plca txCmd:count 1463
scalar MultidropNetwork.controller.eth[0].plca rxCmd:count 5796
scalar MultidropNetwork.controller.eth[0].plca dataState:count 6160
scalar MultidropNetwork.controller.eth[0].plca controlState:count 6574
scalar MultidropNetwork.controller.eth[0].plca collision:count 2
scalar MultidropNetwork.controller.eth[0].plca carrierSense:count 2189
scalar MultidropNetwork.controller.eth[0].phy busUsed:count 7259
scalar MultidropNetwork.controller.eth[0].phy busUtilization:count 37
scalar MultidropNetwork.controller.eth[0].phy transmittedSignalType:count 1464
scalar MultidropNetwork.controller.eth[0].phy receivedSignalType:count 5797
scalar MultidropNetwork.controller.eth[0].phy state:count 9801
scalar MultidropNetwork.controller.eth[0] packetDropInterfaceDown:count 0
scalar MultidropNetwork.controller.eth[0] packetDropInterfaceDown:sum(packetBytes) 0
scalar MultidropNetwork.controller.eth[0] packetDropNoCarrier:count 0
scalar MultidropNetwork.controller.eth[0] packetDropNoCarrier:sum(packetBytes) 0
scalar MultidropNetwork.controller.app[0].sink packets:count 1448
scalar MultidropNetwork.controller.app[0].sink packetLengths:sum 532864
scalar MultidropNetwork.controller.app[0].sink droppedPackets:count 1448
scalar MultidropNetwork.controller.app[0].sink droppedPacketLengths:sum 532864
scalar MultidropNetwork.controller.app[0].io "packets sent" 0
scalar MultidropNetwork.controller.app[0].io "packets received" 1448
scalar MultidropNetwork.controller.app[0].io packetReceived:count 1448
scalar MultidropNetwork.controller.app[0].io packetReceived:sum(packetBytes) 66608
scalar MultidropNetwork.controller.app[0].io packetSent:count 0
scalar MultidropNetwork.controller.app[0].io packetSent:sum(packetBytes) 0
scalar MultidropNetwork.node[0].ethernet pauseSent:count 0
scalar MultidropNetwork.node[0].ethernet pauseSent:sum 0
scalar MultidropNetwork.node[0].ethernet decapPk:count 0
scalar MultidropNetwork.node[0].ethernet decapPk:sum(packetBytes) 0
scalar MultidropNetwork.node[0].ethernet encapPk:count 2001
scalar MultidropNetwork.node[0].ethernet encapPk:sum(packetBytes) 92046
scalar MultidropNetwork.node[0].eth[0].queue queueLength:last 552
scalar MultidropNetwork.node[0].eth[0].queue queueLength:max 552
scalar MultidropNetwork.node[0].eth[0].queue queueLength:timeavg 276.31234971999982
scalar MultidropNetwork.node[0].eth[0].queue queueBitLength:last 282624
scalar MultidropNetwork.node[0].eth[0].queue queueBitLength:max 282624
scalar MultidropNetwork.node[0].eth[0].queue queueBitLength:timeavg 141471.92305663991
scalar MultidropNetwork.node[0].eth[0].queue outgoingPackets:count 1449
scalar MultidropNetwork.node[0].eth[0].queue outgoingPacketLengths:sum 741888
scalar MultidropNetwork.node[0].eth[0].queue incomingPackets:count 2001
scalar MultidropNetwork.node[0].eth[0].queue incomingPacketLengths:sum 1024512
scalar MultidropNetwork.node[0].eth[0].queue droppedPacketsQueueOverflow:count 0
scalar MultidropNetwork.node[0].eth[0].queue droppedPacketLengthsQueueOverflow:sum 0
scalar MultidropNetwork.node[0].eth[0].mac state:count 4352
scalar MultidropNetwork.node[0].eth[0].mac collision:count 4
scalar MultidropNetwork.node[0].eth[0].mac carrierSense:count 2901
scalar MultidropNetwork.node[0].eth[0].plca transmitOpportunityUsed:count 731
scalar MultidropNetwork.node[0].eth[0].plca packetInterval:count 1448
scalar MultidropNetwork.node[0].eth[0].plca packetPendingDelay:count 1449
scalar MultidropNetwork.node[0].eth[0].plca txCmd:count 2899
scalar MultidropNetwork.node[0].eth[0].plca rxCmd:count 1463
scalar MultidropNetwork.node[0].eth[0].plca dataState:count 3628
scalar MultidropNetwork.node[0].eth[0].plca controlState:count 8383
scalar MultidropNetwork.node[0].eth[0].plca collision:count 2
scalar MultidropNetwork.node[0].eth[0].plca carrierSense:count 2189
scalar MultidropNetwork.node[0].eth[0].phy busUsed:count 7259
scalar MultidropNetwork.node[0].eth[0].phy busUtilization:count 37
scalar MultidropNetwork.node[0].eth[0].phy transmittedSignalType:count 5797
scalar MultidropNetwork.node[0].eth[0].phy receivedSignalType:count 1464
scalar MultidropNetwork.node[0].eth[0].phy state:count 8352
scalar MultidropNetwork.node[0].eth[0] packetDropInterfaceDown:count 0
scalar MultidropNetwork.node[0].eth[0] packetDropInterfaceDown:sum(packetBytes) 0
scalar MultidropNetwork.node[0].eth[0] packetDropNoCarrier:count 0
scalar MultidropNetwork.node[0].eth[0] packetDropNoCarrier:sum(packetBytes) 0
scalar MultidropNetwork.node[0].app[0].source packets:count 2001
scalar MultidropNetwork.node[0].app[0].source packetLengths:sum 736368
scalar MultidropNetwork.node[0].app[0].io "packets sent" 2001
scalar MultidropNetwork.node[0].app[0].io "packets received" 0
scalar MultidropNetwork.node[0].app[0].io packetReceived:count 0
scalar MultidropNetwork.node[0].app[0].io packetReceived:sum(packetBytes) 0
scalar MultidropNetwork.node[0].app[0].io packetSent:count 2001
scalar MultidropNetwork.node[0].app[0].io packetSent:sum(packetBytes) 92046
scalar MultidropNetwork.j[0] packetReceived:count 5078
scalar MultidropNetwork.j[0] packetReceived:sum(packetBytes) 235485
scalar MultidropNetwork.controller.eth[0].queue queueingTime:histogram:count 0
scalar MultidropNetwork.controller.eth[0].queue queueingTime:histogram:sumweights 0
scalar MultidropNetwork.controller.eth[0].queue queueingTime:histogram:mean -nan
scalar MultidropNetwork.controller.eth[0].queue queueingTime:histogram:stddev nan
scalar MultidropNetwork.controller.eth[0].queue queueingTime:histogram:min nan
scalar MultidropNetwork.controller.eth[0].queue queueingTime:histogram:max nan
scalar MultidropNetwork.controller.eth[0].queue queueingTime:histogram:numbins 1
scalar MultidropNetwork.controller.eth[0].queue queueingTime:histogram:rangemin 0
scalar MultidropNetwork.controller.eth[0].queue queueingTime:histogram:rangemax 1
scalar MultidropNetwork.controller.eth[0].queue queueingTime:histogram:underflows 0
scalar MultidropNetwork.controller.eth[0].queue queueingTime:histogram:overflows 0
scalar MultidropNetwork.controller.eth[0].queue outgoingPacketLengths:histogram:count 0
scalar MultidropNetwork.controller.eth[0].queue outgoingPacketLengths:histogram:sumweights 0
scalar MultidropNetwork.controller.eth[0].queue outgoingPacketLengths:histogram:mean -nan
scalar MultidropNetwork.controller.eth[0].queue outgoingPacketLengths:histogram:stddev nan
scalar MultidropNetwork.controller.eth[0].queue outgoingPacketLengths:histogram:min nan
scalar MultidropNetwork.controller.eth[0].queue outgoingPacketLengths:histogram:max nan
scalar MultidropNetwork.controller.eth[0].queue outgoingPacketLengths:histogram:numbins 1
scalar MultidropNetwork.controller.eth[0].queue outgoingPacketLengths:histogram:rangemin 0
scalar MultidropNetwork.controller.eth[0].queue outgoingPacketLengths:histogram:rangemax 1
scalar MultidropNetwork.controller.eth[0].queue outgoingPacketLengths:histogram:underflows 0
scalar MultidropNetwork.controller.eth[0].queue outgoingPacketLengths:histogram:overflows 0
scalar MultidropNetwork.controller.eth[0].queue flowQueueingTime:histogram:count 0
scalar MultidropNetwork.controller.eth[0].queue flowQueueingTime:histogram:sumweights 0
scalar MultidropNetwork.controller.eth[0].queue flowQueueingTime:histogram:mean -nan
scalar MultidropNetwork.controller.eth[0].queue flowQueueingTime:histogram:stddev nan
scalar MultidropNetwork.controller.eth[0].queue flowQueueingTime:histogram:min nan
scalar MultidropNetwork.controller.eth[0].queue flowQueueingTime:histogram:max nan
scalar MultidropNetwork.controller.eth[0].queue flowQueueingTime:histogram:numbins 1
scalar MultidropNetwork.controller.eth[0].queue flowQueueingTime:histogram:rangemin 0
scalar MultidropNetwork.controller.eth[0].queue flowQueueingTime:histogram:rangemax 1
scalar MultidropNetwork.controller.eth[0].queue flowQueueingTime:histogram:underflows 0
scalar MultidropNetwork.controller.eth[0].queue flowQueueingTime:histogram:overflows 0
scalar MultidropNetwork.controller.eth[0].queue incomingPacketLengths:histogram:count 0
scalar MultidropNetwork.controller.eth[0].queue incomingPacketLengths:histogram:sumweights 0
scalar MultidropNetwork.controller.eth[0].queue incomingPacketLengths:histogram:mean -nan
scalar MultidropNetwork.controller.eth[0].queue incomingPacketLengths:histogram:stddev nan
scalar MultidropNetwork.controller.eth[0].queue incomingPacketLengths:histogram:min nan
scalar MultidropNetwork.controller.eth[0].queue incomingPacketLengths:histogram:max nan
scalar MultidropNetwork.controller.eth[0].queue incomingPacketLengths:histogram:numbins 1
scalar MultidropNetwork.controller.eth[0].queue incomingPacketLengths:histogram:rangemin 0
scalar MultidropNetwork.controller.eth[0].queue incomingPacketLengths:histogram:rangemax 1
scalar MultidropNetwork.controller.eth[0].queue incomingPacketLengths:histogram:underflows 0
scalar MultidropNetwork.controller.eth[0].queue incomingPacketLengths:histogram:overflows 0
scalar MultidropNetwork.controller.eth[0].plca packetInterval:histogram:count 0
scalar MultidropNetwork.controller.eth[0].plca packetInterval:histogram:sumweights 0
scalar MultidropNetwork.controller.eth[0].plca packetInterval:histogram:mean -nan
scalar MultidropNetwork.controller.eth[0].plca packetInterval:histogram:stddev nan
scalar MultidropNetwork.controller.eth[0].plca packetInterval:histogram:min nan
scalar MultidropNetwork.controller.eth[0].plca packetInterval:histogram:max nan
scalar MultidropNetwork.controller.eth[0].plca packetInterval:histogram:numbins 1
scalar MultidropNetwork.controller.eth[0].plca packetInterval:histogram:rangemin 0
scalar MultidropNetwork.controller.eth[0].plca packetInterval:histogram:rangemax 1
scalar MultidropNetwork.controller.eth[0].plca packetInterval:histogram:underflows 0
scalar MultidropNetwork.controller.eth[0].plca packetInterval:histogram:overflows 0
scalar MultidropNetwork.controller.eth[0].plca packetPendingDelay:histogram:count 0
scalar MultidropNetwork.controller.eth[0].plca packetPendingDelay:histogram:sumweights 0
scalar MultidropNetwork.controller.eth[0].plca packetPendingDelay:histogram:mean -nan
scalar MultidropNetwork.controller.eth[0].plca packetPendingDelay:histogram:stddev nan
scalar MultidropNetwork.controller.eth[0].plca packetPendingDelay:histogram:min nan
scalar MultidropNetwork.controller.eth[0].plca packetPendingDelay:histogram:max nan
scalar MultidropNetwork.controller.eth[0].plca packetPendingDelay:histogram:numbins 1
scalar MultidropNetwork.controller.eth[0].plca packetPendingDelay:histogram:rangemin 0
scalar MultidropNetwork.controller.eth[0].plca packetPendingDelay:histogram:rangemax 1
scalar MultidropNetwork.controller.eth[0].plca packetPendingDelay:histogram:underflows 0
scalar MultidropNetwork.controller.eth[0].plca packetPendingDelay:histogram:overflows 0
scalar MultidropNetwork.controller.eth[0].phy throughput:histogram:count 8
scalar MultidropNetwork.controller.eth[0].phy throughput:histogram:sumweights 8
scalar MultidropNetwork.controller.eth[0].phy throughput:histogram:mean 146471.49973757812
scalar MultidropNetwork.controller.eth[0].phy throughput:histogram:stddev 3149.0672730997921
scalar MultidropNetwork.controller.eth[0].phy throughput:histogram:min 144919.13512260158
scalar MultidropNetwork.controller.eth[0].phy throughput:histogram:max 153534.86780686266
scalar MultidropNetwork.controller.eth[0].phy throughput:histogram:numbins 66
scalar MultidropNetwork.controller.eth[0].phy throughput:histogram:rangemin 142600
scalar MultidropNetwork.controller.eth[0].phy throughput:histogram:rangemax 155800
scalar MultidropNetwork.controller.eth[0].phy throughput:histogram:underflows 0
scalar MultidropNetwork.controller.eth[0].phy throughput:histogram:overflows 0
scalar MultidropNetwork.controller.eth[0].phy transmissionTime:histogram:count 731
scalar MultidropNetwork.controller.eth[0].phy transmissionTime:histogram:sumweights 731
scalar MultidropNetwork.controller.eth[0].phy transmissionTime:histogram:mean 2.0000000000000308e-06
scalar MultidropNetwork.controller.eth[0].phy transmissionTime:histogram:stddev 0
scalar MultidropNetwork.controller.eth[0].phy transmissionTime:histogram:min 1.9999999999999999e-06
scalar MultidropNetwork.controller.eth[0].phy transmissionTime:histogram:max 1.9999999999999999e-06
scalar MultidropNetwork.controller.eth[0].phy transmissionTime:histogram:numbins 51
scalar MultidropNetwork.controller.eth[0].phy transmissionTime:histogram:rangemin 0
scalar MultidropNetwork.controller.eth[0].phy transmissionTime:histogram:rangemax 0.51000000000000001
scalar MultidropNetwork.controller.eth[0].phy transmissionTime:histogram:underflows 0
scalar MultidropNetwork.controller.eth[0].phy transmissionTime:histogram:overflows 0
scalar MultidropNetwork.controller.app[0].sink packetLengths:histogram:count 1448
scalar MultidropNetwork.controller.app[0].sink packetLengths:histogram:sumweights 1448
scalar MultidropNetwork.controller.app[0].sink packetLengths:histogram:mean 368
scalar MultidropNetwork.controller.app[0].sink packetLengths:histogram:stddev 0
scalar MultidropNetwork.controller.app[0].sink packetLengths:histogram:min 368
scalar MultidropNetwork.controller.app[0].sink packetLengths:histogram:max 368
scalar MultidropNetwork.controller.app[0].sink packetLengths:histogram:numbins 2
scalar MultidropNetwork.controller.app[0].sink packetLengths:histogram:rangemin 367
scalar MultidropNetwork.controller.app[0].sink packetLengths:histogram:rangemax 369
scalar MultidropNetwork.controller.app[0].sink packetLengths:histogram:underflows 0
scalar MultidropNetwork.controller.app[0].sink packetLengths:histogram:overflows 0
scalar MultidropNetwork.controller.app[0].sink meanBitLifeTimePerPacket:histogram:count 1448
scalar MultidropNetwork.controller.app[0].sink meanBitLifeTimePerPacket:histogram:sumweights 1448
scalar MultidropNetwork.controller.app[0].sink meanBitLifeTimePerPacket:histogram:mean 0.013871509000000001
scalar MultidropNetwork.controller.app[0].sink meanBitLifeTimePerPacket:histogram:stddev 0.0079464419029790963
scalar MultidropNetwork.controller.app[0].sink meanBitLifeTimePerPacket:histogram:min 0.000123621
scalar MultidropNetwork.controller.app[0].sink meanBitLifeTimePerPacket:histogram:max 0.027619397
scalar MultidropNetwork.controller.app[0].sink meanBitLifeTimePerPacket:histogram:numbins 56
scalar MultidropNetwork.controller.app[0].sink meanBitLifeTimePerPacket:histogram:rangemin 0
scalar MultidropNetwork.controller.app[0].sink meanBitLifeTimePerPacket:histogram:rangemax 0.028000000000000004
scalar MultidropNetwork.controller.app[0].sink meanBitLifeTimePerPacket:histogram:underflows 0
scalar MultidropNetwork.controller.app[0].sink meanBitLifeTimePerPacket:histogram:overflows 0
scalar MultidropNetwork.controller.app[0].sink packetLifeTime:histogram:count 1448
scalar MultidropNetwork.controller.app[0].sink packetLifeTime:histogram:sumweights 1448
scalar MultidropNetwork.controller.app[0].sink packetLifeTime:histogram:mean 0.013871509000000001
scalar MultidropNetwork.controller.app[0].sink packetLifeTime:histogram:stddev 0.0079464419029790963
scalar MultidropNetwork.controller.app[0].sink packetLifeTime:histogram:min 0.000123621
scalar MultidropNetwork.controller.app[0].sink packetLifeTime:histogram:max 0.027619397
scalar MultidropNetwork.controller.app[0].sink packetLifeTime:histogram:numbins 56
scalar MultidropNetwork.controller.app[0].sink packetLifeTime:histogram:rangemin 0
scalar MultidropNetwork.controller.app[0].sink packetLifeTime:histogram:rangemax 0.028000000000000004
scalar MultidropNetwork.controller.app[0].sink packetLifeTime:histogram:underflows 0
scalar MultidropNetwork.controller.app[0].sink packetLifeTime:histogram:overflows 0
scalar MultidropNetwork.controller.app[0].sink packetJitter:histogram:count 1448
scalar MultidropNetwork.controller.app[0].sink packetJitter:histogram:sumweights 1448
scalar MultidropNetwork.controller.app[0].sink packetJitter:histogram:mean 1.9074169198895028e-05
scalar MultidropNetwork.controller.app[0].sink packetJitter:histogram:stddev 3.2524868490459475e-06
scalar MultidropNetwork.controller.app[0].sink packetJitter:histogram:min 1.7999999999993715e-05
scalar MultidropNetwork.controller.app[0].sink packetJitter:histogram:max 0.000123621
scalar MultidropNetwork.controller.app[0].sink packetJitter:histogram:numbins 76
scalar MultidropNetwork.controller.app[0].sink packetJitter:histogram:rangemin 0
scalar MultidropNetwork.controller.app[0].sink packetJitter:histogram:rangemax 0.00015200000000000004
scalar MultidropNetwork.controller.app[0].sink packetJitter:histogram:underflows 0
scalar MultidropNetwork.controller.app[0].sink packetJitter:histogram:overflows 0
scalar MultidropNetwork.controller.app[0].sink packetDelayDifferenceToMean:histogram:count 1448
scalar MultidropNetwork.controller.app[0].sink packetDelayDifferenceToMean:histogram:sumweights 1448
scalar MultidropNetwork.controller.app[0].sink packetDelayDifferenceToMean:histogram:mean -0.0068746898313821678
scalar MultidropNetwork.controller.app[0].sink packetDelayDifferenceToMean:histogram:stddev 0.0039732289938740712
scalar MultidropNetwork.controller.app[0].sink packetDelayDifferenceToMean:histogram:min -0.013747888
scalar MultidropNetwork.controller.app[0].sink packetDelayDifferenceToMean:histogram:max 0
scalar MultidropNetwork.controller.app[0].sink packetDelayDifferenceToMean:histogram:numbins 81
scalar MultidropNetwork.controller.app[0].sink packetDelayDifferenceToMean:histogram:rangemin -0.013800000000000005
scalar MultidropNetwork.controller.app[0].sink packetDelayDifferenceToMean:histogram:rangemax 0.0024000000000000011
scalar MultidropNetwork.controller.app[0].sink packetDelayDifferenceToMean:histogram:underflows 0
scalar MultidropNetwork.controller.app[0].sink packetDelayDifferenceToMean:histogram:overflows 0
scalar MultidropNetwork.controller.app[0].sink packetDelayVariation:histogram:count 1448
scalar MultidropNetwork.controller.app[0].sink packetDelayVariation:histogram:sumweights 1448
scalar MultidropNetwork.controller.app[0].sink packetDelayVariation:histogram:mean 0.0039745677634043268
scalar MultidropNetwork.controller.app[0].sink packetDelayVariation:histogram:stddev 0.0022939758932337042
scalar MultidropNetwork.controller.app[0].sink packetDelayVariation:histogram:min 0
scalar MultidropNetwork.controller.app[0].sink packetDelayVariation:histogram:max 0.0079436981928399496
scalar MultidropNetwork.controller.app[0].sink packetDelayVariation:histogram:numbins 80
scalar MultidropNetwork.controller.app[0].sink packetDelayVariation:histogram:rangemin 0
scalar MultidropNetwork.controller.app[0].sink packetDelayVariation:histogram:rangemax 0.0080000000000000019
scalar MultidropNetwork.controller.app[0].sink packetDelayVariation:histogram:underflows 0
scalar MultidropNetwork.controller.app[0].sink packetDelayVariation:histogram:overflows 0
scalar MultidropNetwork.controller.app[0].sink droppedPacketLengths:histogram:count 1448
scalar MultidropNetwork.controller.app[0].sink droppedPacketLengths:histogram:sumweights 1448
scalar MultidropNetwork.controller.app[0].sink droppedPacketLengths:histogram:mean 368
scalar MultidropNetwork.controller.app[0].sink droppedPacketLengths:histogram:stddev 0
scalar MultidropNetwork.controller.app[0].sink droppedPacketLengths:histogram:min 368
scalar MultidropNetwork.controller.app[0].sink droppedPacketLengths:histogram:max 368
scalar MultidropNetwork.controller.app[0].sink droppedPacketLengths:histogram:numbins 2
scalar MultidropNetwork.controller.app[0].sink droppedPacketLengths:histogram:rangemin 367
scalar MultidropNetwork.controller.app[0].sink droppedPacketLengths:histogram:rangemax 369
scalar MultidropNetwork.controller.app[0].sink droppedPacketLengths:histogram:underflows 0
scalar MultidropNetwork.controller.app[0].sink droppedPacketLengths:histogram:overflows 0
scalar MultidropNetwork.node[0].eth[0].queue queueingTime:histogram:count 1449
scalar MultidropNetwork.node[0].eth[0].queue queueingTime:histogram:sumweights 1449
scalar MultidropNetwork.node[0].eth[0].queue queueingTime:histogram:mean 0.01382155622636301
scalar MultidropNetwork.node[0].eth[0].queue queueingTime:histogram:stddev 0.0079520029861728948
scalar MultidropNetwork.node[0].eth[0].queue queueingTime:histogram:min 0
scalar MultidropNetwork.node[0].eth[0].queue queueingTime:histogram:max 0.027578989499999998
scalar MultidropNetwork.node[0].eth[0].queue queueingTime:histogram:numbins 56
scalar MultidropNetwork.node[0].eth[0].queue queueingTime:histogram:rangemin 0
scalar MultidropNetwork.node[0].eth[0].queue queueingTime:histogram:rangemax 0.028000000000000004
scalar MultidropNetwork.node[0].eth[0].queue queueingTime:histogram:underflows 0
scalar MultidropNetwork.node[0].eth[0].queue queueingTime:histogram:overflows 0
scalar MultidropNetwork.node[0].eth[0].queue outgoingPacketLengths:histogram:count 1449
scalar MultidropNetwork.node[0].eth[0].queue outgoingPacketLengths:histogram:sumweights 1449
scalar MultidropNetwork.node[0].eth[0].queue outgoingPacketLengths:histogram:mean 512
scalar MultidropNetwork.node[0].eth[0].queue outgoingPacketLengths:histogram:stddev 0
scalar MultidropNetwork.node[0].eth[0].queue outgoingPacketLengths:histogram:min 512
scalar MultidropNetwork.node[0].eth[0].queue outgoingPacketLengths:histogram:max 512
scalar MultidropNetwork.node[0].eth[0].queue outgoingPacketLengths:histogram:numbins 2
scalar MultidropNetwork.node[0].eth[0].queue outgoingPacketLengths:histogram:rangemin 511
scalar MultidropNetwork.node[0].eth[0].queue outgoingPacketLengths:histogram:rangemax 513
scalar MultidropNetwork.node[0].eth[0].queue outgoingPacketLengths:histogram:underflows 0
scalar MultidropNetwork.node[0].eth[0].queue outgoingPacketLengths:histogram:overflows 0
scalar MultidropNetwork.node[0].eth[0].queue flowQueueingTime:histogram:count 0
scalar MultidropNetwork.node[0].eth[0].queue flowQueueingTime:histogram:sumweights 0
scalar MultidropNetwork.node[0].eth[0].queue flowQueueingTime:histogram:mean -nan
scalar MultidropNetwork.node[0].eth[0].queue flowQueueingTime:histogram:stddev nan
scalar MultidropNetwork.node[0].eth[0].queue flowQueueingTime:histogram:min nan
scalar MultidropNetwork.node[0].eth[0].queue flowQueueingTime:histogram:max nan
scalar MultidropNetwork.node[0].eth[0].queue flowQueueingTime:histogram:numbins 1
scalar MultidropNetwork.node[0].eth[0].queue flowQueueingTime:histogram:rangemin 0
scalar MultidropNetwork.node[0].eth[0].queue flowQueueingTime:histogram:rangemax 1
scalar MultidropNetwork.node[0].eth[0].queue flowQueueingTime:histogram:underflows 0
scalar MultidropNetwork.node[0].eth[0].queue flowQueueingTime:histogram:overflows 0
scalar MultidropNetwork.node[0].eth[0].queue incomingPacketLengths:histogram:count 2001
scalar MultidropNetwork.node[0].eth[0].queue incomingPacketLengths:histogram:sumweights 2001
scalar MultidropNetwork.node[0].eth[0].queue incomingPacketLengths:histogram:mean 512
scalar MultidropNetwork.node[0].eth[0].queue incomingPacketLengths:histogram:stddev 0
scalar MultidropNetwork.node[0].eth[0].queue incomingPacketLengths:histogram:min 512
scalar MultidropNetwork.node[0].eth[0].queue incomingPacketLengths:histogram:max 512
scalar MultidropNetwork.node[0].eth[0].queue incomingPacketLengths:histogram:numbins 2
scalar MultidropNetwork.node[0].eth[0].queue incomingPacketLengths:histogram:rangemin 511
scalar MultidropNetwork.node[0].eth[0].queue incomingPacketLengths:histogram:rangemax 513
scalar MultidropNetwork.node[0].eth[0].queue incomingPacketLengths:histogram:underflows 0
scalar MultidropNetwork.node[0].eth[0].queue incomingPacketLengths:histogram:overflows 0
scalar MultidropNetwork.node[0].eth[0].plca packetInterval:histogram:count 1448
scalar MultidropNetwork.node[0].eth[0].plca packetInterval:histogram:sumweights 1448
scalar MultidropNetwork.node[0].eth[0].plca packetInterval:histogram:mean 6.9003999999998745e-05
scalar MultidropNetwork.node[0].eth[0].plca packetInterval:histogram:stddev 1.7395797982160775e-06
scalar MultidropNetwork.node[0].eth[0].plca packetInterval:histogram:min 6.7999999999999999e-05
scalar MultidropNetwork.node[0].eth[0].plca packetInterval:histogram:max 7.2015999999999996e-05
scalar MultidropNetwork.node[0].eth[0].plca packetInterval:histogram:numbins 62
scalar MultidropNetwork.node[0].eth[0].plca packetInterval:histogram:rangemin 6.6900000000000013e-05
scalar MultidropNetwork.node[0].eth[0].plca packetInterval:histogram:rangemax 7.3100000000000015e-05
scalar MultidropNetwork.node[0].eth[0].plca packetInterval:histogram:underflows 0
scalar MultidropNetwork.node[0].eth[0].plca packetInterval:histogram:overflows 0
scalar MultidropNetwork.node[0].eth[0].plca packetPendingDelay:histogram:count 1449
scalar MultidropNetwork.node[0].eth[0].plca packetPendingDelay:histogram:sumweights 1449
scalar MultidropNetwork.node[0].eth[0].plca packetPendingDelay:histogram:mean 1.0483129744651433e-06
scalar MultidropNetwork.node[0].eth[0].plca packetPendingDelay:histogram:stddev 2.4226766053107364e-06
scalar MultidropNetwork.node[0].eth[0].plca packetPendingDelay:histogram:min 0
scalar MultidropNetwork.node[0].eth[0].plca packetPendingDelay:histogram:max 6.5213499999999995e-05
scalar MultidropNetwork.node[0].eth[0].plca packetPendingDelay:histogram:numbins 82
scalar MultidropNetwork.node[0].eth[0].plca packetPendingDelay:histogram:rangemin 0
scalar MultidropNetwork.node[0].eth[0].plca packetPendingDelay:histogram:rangemax 8.2000000000000015e-05
scalar MultidropNetwork.node[0].eth[0].plca packetPendingDelay:histogram:underflows 0
scalar MultidropNetwork.node[0].eth[0].plca packetPendingDelay:histogram:overflows 0
scalar MultidropNetwork.node[0].eth[0].phy throughput:histogram:count 29
scalar MultidropNetwork.node[0].eth[0].phy throughput:histogram:sumweights 29
scalar MultidropNetwork.node[0].eth[0].phy throughput:histogram:mean 9383991.6010780763
scalar MultidropNetwork.node[0].eth[0].phy throughput:histogram:stddev 34381.074238909823
scalar MultidropNetwork.node[0].eth[0].phy throughput:histogram:min 9260788.0203396007
scalar MultidropNetwork.node[0].eth[0].phy throughput:histogram:max 9410148.854820149
scalar MultidropNetwork.node[0].eth[0].phy throughput:histogram:numbins 46
scalar MultidropNetwork.node[0].eth[0].phy throughput:histogram:rangemin 9220000
scalar MultidropNetwork.node[0].eth[0].phy throughput:histogram:rangemax 9450000
scalar MultidropNetwork.node[0].eth[0].phy throughput:histogram:underflows 0
scalar MultidropNetwork.node[0].eth[0].phy throughput:histogram:overflows 0
scalar MultidropNetwork.node[0].eth[0].phy transmissionTime:histogram:count 2897
scalar MultidropNetwork.node[0].eth[0].phy transmissionTime:histogram:sumweights 2897
scalar MultidropNetwork.node[0].eth[0].phy transmissionTime:histogram:mean 3.2791991715567426e-05
scalar MultidropNetwork.node[0].eth[0].phy transmissionTime:histogram:stddev 2.5771802269124646e-05
scalar MultidropNetwork.node[0].eth[0].phy transmissionTime:histogram:min 0
scalar MultidropNetwork.node[0].eth[0].phy transmissionTime:histogram:max 5.8399999999999997e-05
scalar MultidropNetwork.node[0].eth[0].phy transmissionTime:histogram:numbins 73
scalar MultidropNetwork.node[0].eth[0].phy transmissionTime:histogram:rangemin 0
scalar MultidropNetwork.node[0].eth[0].phy transmissionTime:histogram:rangemax 7.3000000000000013e-05
scalar MultidropNetwork.node[0].eth[0].phy transmissionTime:histogram:underflows 0
scalar MultidropNetwork.node[0].eth[0].phy transmissionTime:histogram:overflows 0
scalar MultidropNetwork.node[0].app[0].source packetLengths:histogram:count 2001
scalar MultidropNetwork.node[0].app[0].source packetLengths:histogram:sumweights 2001
scalar MultidropNetwork.node[0].app[0].source packetLengths:histogram:mean 368
scalar MultidropNetwork.node[0].app[0].source packetLengths:histogram:stddev 0
scalar MultidropNetwork.node[0].app[0].source packetLengths:histogram:min 368
scalar MultidropNetwork.node[0].app[0].source packetLengths:histogram:max 368
scalar MultidropNetwork.node[0].app[0].source packetLengths:histogram:numbins 2
scalar MultidropNetwork.node[0].app[0].source packetLengths:histogram:rangemin 367
scalar MultidropNetwork.node[0].app[0].source packetLengths:histogram:rangemax 369
scalar MultidropNetwork.node[0].app[0].source packetLengths:histogram:underflows 0
scalar MultidropNetwork.node[0].app[0].source packetLengths:histogram:overflows 0
statistic MultidropNetwork.controller.eth[0].queue queueingTime:histogram
field count 0
field mean -nan
field stddev nan
field min nan
field max nan
field sum 0
field sqrsum 0
bin	-inf	0
bin	0	0
bin	1	0
statistic MultidropNetwork.controller.eth[0].queue outgoingPacketLengths:histogram
field count 0
field mean -nan
field stddev nan
field min nan
field max nan
field sum 0
field sqrsum 0
bin	-inf	0
bin	0	0
bin	1	0
statistic MultidropNetwork.controller.eth[0].queue flowQueueingTime:histogram
field count 0
field mean -nan
field stddev nan
field min nan
field max nan
field sum 0
field sqrsum 0
bin	-inf	0
bin	0	0
bin	1	0
statistic MultidropNetwork.controller.eth[0].queue incomingPacketLengths:histogram
field count 0
field mean -nan
field stddev nan
field min nan
field max nan
field sum 0
field sqrsum 0
bin	-inf	0
bin	0	0
bin	1	0
statistic MultidropNetwork.controller.eth[0].plca packetInterval:histogram
field count 0
field mean -nan
field stddev nan
field min nan
field max nan
field sum 0
field sqrsum 0
bin	-inf	0
bin	0	0
bin	1	0
statistic MultidropNetwork.controller.eth[0].plca packetPendingDelay:histogram
field count 0
field mean -nan
field stddev nan
field min nan
field max nan
field sum 0
field sqrsum 0
bin	-inf	0
bin	0	0
bin	1	0
statistic MultidropNetwork.controller.eth[0].phy throughput:histogram
field count 8
field mean 146471.49973757812
field stddev 3149.0672730997921
field min 144919.13512260158
field max 153534.86780686266
field sum 1171771.997900625
field sqrsum 171700618255.83633
bin	-inf	0
bin	142600	0
bin	142800	0
bin	143000	0
bin	143200	0
bin	143400	0
bin	143600	0
bin	143800	0
bin	144000	0
bin	144200	0
bin	144400	0
bin	144600	0
bin	144800	6
bin	145000	0
bin	145200	0
bin	145400	0
bin	145600	0
bin	145800	0
bin	146000	0
bin	146200	0
bin	146400	0
bin	146600	0
bin	146800	0
bin	147000	0
bin	147200	0
bin	147400	0
bin	147600	0
bin	147800	0
bin	148000	0
bin	148200	0
bin	148400	0
bin	148600	1
bin	148800	0
bin	149000	0
bin	149200	0
bin	149400	0
bin	149600	0
bin	149800	0
bin	150000	0
bin	150200	0
bin	150400	0
bin	150600	0
bin	150800	0
bin	151000	0
bin	151200	0
bin	151400	0
bin	151600	0
bin	151800	0
bin	152000	0
bin	152200	0
bin	152400	0
bin	152600	0
bin	152800	0
bin	153000	0
bin	153200	0
bin	153400	1
bin	153600	0
bin	153800	0
bin	154000	0
bin	154200	0
bin	154400	0
bin	154600	0
bin	154800	0
bin	155000	0
bin	155200	0
bin	155400	0
bin	155600	0
bin	155800	0
statistic MultidropNetwork.controller.eth[0].phy transmissionTime:histogram
field count 731
field mean 2.0000000000000308e-06
field stddev 0
field min 1.9999999999999999e-06
field max 1.9999999999999999e-06
field sum 0.0014620000000000225
field sqrsum 2.9239999999999911e-09
bin	-inf	0
bin	0	731
bin	0.01	0
bin	0.02	0
bin	0.029999999999999999	0
bin	0.040000000000000001	0
bin	0.050000000000000003	0
bin	0.059999999999999998	0
bin	0.070000000000000007	0
bin	0.080000000000000002	0
bin	0.089999999999999997	0
bin	0.10000000000000001	0
bin	0.11	0
bin	0.12	0
bin	0.13	0
bin	0.14000000000000001	0
bin	0.14999999999999999	0
bin	0.16	0
bin	0.17000000000000001	0
bin	0.17999999999999999	0
bin	0.19	0
bin	0.20000000000000001	0
bin	0.20999999999999999	0
bin	0.22	0
bin	0.23000000000000001	0
bin	0.23999999999999999	0
bin	0.25	0
bin	0.26000000000000001	0
bin	0.27000000000000002	0
bin	0.28000000000000003	0
bin	0.28999999999999998	0
bin	0.29999999999999999	0
bin	0.31	0
bin	0.32000000000000001	0
bin	0.33000000000000002	0
bin	0.34000000000000002	0
bin	0.35000000000000003	0
bin	0.35999999999999999	0
bin	0.37	0
bin	0.38	0
bin	0.39000000000000001	0
bin	0.40000000000000002	0
bin	0.41000000000000003	0
bin	0.41999999999999998	0
bin	0.42999999999999999	0
bin	0.44	0
bin	0.45000000000000001	0
bin	0.46000000000000002	0
bin	0.47000000000000003	0
bin	0.47999999999999998	0
bin	0.48999999999999999	0
bin	0.5	0
bin	0.51000000000000001	0
statistic MultidropNetwork.controller.app[0].sink packetLengths:histogram
field count 1448
field mean 368
field stddev 0
field min 368
field max 368
field sum 532864
field sqrsum 196093952
bin	-inf	0
bin	367	0
bin	368	1448
bin	369	0
statistic MultidropNetwork.controller.app[0].sink meanBitLifeTimePerPacket:histogram
field count 1448
field mean 0.013871509000000001
field stddev 0.0079464419029790963
field min 0.000123621
field max 0.027619397
field sum 20.085945032000001
field sqrsum 0.369994540898403
bin	-inf	0
bin	0	20
bin	0.00050000000000000001	27
bin	0.001	26
bin	0.0015	26
bin	0.002	27
bin	0.0025000000000000001	26
bin	0.0030000000000000001	26
bin	0.0035000000000000001	26
bin	0.0040000000000000001	27
bin	0.0045000000000000005	26
bin	0.0050000000000000001	27
bin	0.0054999999999999997	26
bin	0.0060000000000000001	26
bin	0.0065000000000000006	26
bin	0.0070000000000000001	27
bin	0.0074999999999999997	26
bin	0.0080000000000000002	26
bin	0.0085000000000000006	27
bin	0.0090000000000000011	26
bin	0.0094999999999999998	26
bin	0.01	27
bin	0.010500000000000001	26
bin	0.010999999999999999	26
bin	0.0115	26
bin	0.012	27
bin	0.012500000000000001	26
bin	0.013000000000000001	26
bin	0.0135	27
bin	0.014	26
bin	0.014500000000000001	26
bin	0.014999999999999999	27
bin	0.0155	26
bin	0.016	26
bin	0.016500000000000001	27
bin	0.017000000000000001	26
bin	0.017500000000000002	26
bin	0.018000000000000002	27
bin	0.018499999999999999	26
bin	0.019	26
bin	0.0195	27
bin	0.02	26
bin	0.020500000000000001	26
bin	0.021000000000000001	26
bin	0.021500000000000002	27
bin	0.021999999999999999	26
bin	0.022499999999999999	26
bin	0.023	27
bin	0.0235	26
bin	0.024	26
bin	0.024500000000000001	27
bin	0.025000000000000001	26
bin	0.025500000000000002	26
bin	0.026000000000000002	26
bin	0.026500000000000003	27
bin	0.027000000000000003	26
bin	0.027500000000000004	7
bin	0.028000000000000004	0
statistic MultidropNetwork.controller.app[0].sink packetLifeTime:histogram
field count 1448
field mean 0.013871509000000001
field stddev 0.0079464419029790963
field min 0.000123621
field max 0.027619397
field sum 20.085945032000001
field sqrsum 0.369994540898403
bin	-inf	0
bin	0	20
bin	0.00050000000000000001	27
bin	0.001	26
bin	0.0015	26
bin	0.002	27
bin	0.0025000000000000001	26
bin	0.0030000000000000001	26
bin	0.0035000000000000001	26
bin	0.0040000000000000001	27
bin	0.0045000000000000005	26
bin	0.0050000000000000001	27
bin	0.0054999999999999997	26
bin	0.0060000000000000001	26
bin	0.0065000000000000006	26
bin	0.0070000000000000001	27
bin	0.0074999999999999997	26
bin	0.0080000000000000002	26
bin	0.0085000000000000006	27
bin	0.0090000000000000011	26
bin	0.0094999999999999998	26
bin	0.01	27
bin	0.010500000000000001	26
bin	0.010999999999999999	26
bin	0.0115	26
bin	0.012	27
bin	0.012500000000000001	26
bin	0.013000000000000001	26
bin	0.0135	27
bin	0.014	26
bin	0.014500000000000001	26
bin	0.014999999999999999	27
bin	0.0155	26
bin	0.016	26
bin	0.016500000000000001	27
bin	0.017000000000000001	26
bin	0.017500000000000002	26
bin	0.018000000000000002	27
bin	0.018499999999999999	26
bin	0.019	26
bin	0.0195	27
bin	0.02	26
bin	0.020500000000000001	26
bin	0.021000000000000001	26
bin	0.021500000000000002	27
bin	0.021999999999999999	26
bin	0.022499999999999999	26
bin	0.023	27
bin	0.0235	26
bin	0.024	26
bin	0.024500000000000001	27
bin	0.025000000000000001	26
bin	0.025500000000000002	26
bin	0.026000000000000002	26
bin	0.026500000000000003	27
bin	0.027000000000000003	26
bin	0.027500000000000004	7
bin	0.028000000000000004	0
statistic MultidropNetwork.controller.app[0].sink packetJitter:histogram
field count 1448
field mean 1.9074169198895028e-05
field stddev 3.2524868490459475e-06
field min 1.7999999999993715e-05
field max 0.000123621
field sum 0.027619397
field sqrsum 5.4212438805700852e-07
bin	-inf	0
bin	0	0
bin	2.0000000000000003e-06	0
bin	4.0000000000000007e-06	0
bin	6.000000000000001e-06	0
bin	8.0000000000000013e-06	0
bin	1.0000000000000003e-05	0
bin	1.2000000000000002e-05	0
bin	1.4000000000000001e-05	0
bin	1.6000000000000003e-05	364
bin	1.8000000000000004e-05	722
bin	2.0000000000000005e-05	0
bin	2.2000000000000003e-05	361
bin	2.4000000000000004e-05	0
bin	2.6000000000000005e-05	0
bin	2.8000000000000003e-05	0
bin	3.0000000000000004e-05	0
bin	3.2000000000000005e-05	0
bin	3.4000000000000007e-05	0
bin	3.6000000000000008e-05	0
bin	3.8000000000000009e-05	0
bin	4.000000000000001e-05	0
bin	4.2000000000000004e-05	0
bin	4.4000000000000006e-05	0
bin	4.6000000000000007e-05	0
bin	4.8000000000000008e-05	0
bin	5.0000000000000009e-05	0
bin	5.200000000000001e-05	0
bin	5.4000000000000012e-05	0
bin	5.6000000000000006e-05	0
bin	5.8000000000000007e-05	0
bin	6.0000000000000008e-05	0
bin	6.2000000000000016e-05	0
bin	6.4000000000000011e-05	0
bin	6.6000000000000005e-05	0
bin	6.8000000000000013e-05	0
bin	7.0000000000000007e-05	0
bin	7.2000000000000015e-05	0
bin	7.400000000000001e-05	0
bin	7.6000000000000018e-05	0
bin	7.8000000000000012e-05	0
bin	8.000000000000002e-05	0
bin	8.2000000000000015e-05	0
bin	8.4000000000000009e-05	0
bin	8.6000000000000017e-05	0
bin	8.8000000000000011e-05	0
bin	9.0000000000000019e-05	0
bin	9.2000000000000014e-05	0
bin	9.4000000000000022e-05	0
bin	9.6000000000000016e-05	0
bin	9.800000000000001e-05	0
bin	0.00010000000000000002	0
bin	0.00010200000000000001	0
bin	0.00010400000000000002	0
bin	0.00010600000000000002	0
bin	0.00010800000000000002	0
bin	0.00011000000000000002	0
bin	0.00011200000000000001	0
bin	0.00011400000000000002	0
bin	0.00011600000000000001	0
bin	0.00011800000000000002	0
bin	0.00012000000000000002	0
bin	0.00012200000000000002	1
bin	0.00012400000000000003	0
bin	0.00012600000000000003	0
bin	0.00012800000000000002	0
bin	0.00013000000000000002	0
bin	0.00013200000000000001	0
bin	0.00013400000000000003	0
bin	0.00013600000000000003	0
bin	0.00013800000000000002	0
bin	0.00014000000000000001	0
bin	0.00014200000000000004	0
bin	0.00014400000000000003	0
bin	0.00014600000000000003	0
bin	0.00014800000000000002	0
bin	0.00015000000000000001	0
bin	0.00015200000000000004	0
statistic MultidropNetwork.controller.app[0].sink packetDelayDifferenceToMean:histogram
field count 1448
field mean -0.0068746898313821678
field stddev 0.0039732289938740712
field min -0.013747888
field max 0
field sum -9.9545508758413792
field sqrsum 0.091277585560964172
bin	-inf	0
bin	-0.013800000000000005	16
bin	-0.013600000000000004	21
bin	-0.013400000000000004	21
bin	-0.013200000000000003	22
bin	-0.013000000000000003	20
bin	-0.012800000000000002	21
bin	-0.012600000000000002	22
bin	-0.012400000000000001	21
bin	-0.012200000000000001	20
bin	-0.012	22
bin	-0.0118	21
bin	-0.011600000000000001	21
bin	-0.0114	21
bin	-0.0112	21
bin	-0.010999999999999999	21
bin	-0.010800000000000001	21
bin	-0.0106	21
bin	-0.0104	21
bin	-0.010200000000000001	21
bin	-0.01	21
bin	-0.0097999999999999997	21
bin	-0.0096000000000000009	21
bin	-0.0094000000000000004	21
bin	-0.0091999999999999998	21
bin	-0.0090000000000000011	21
bin	-0.0088000000000000005	21
bin	-0.0086	22
bin	-0.0083999999999999995	20
bin	-0.0082000000000000007	22
bin	-0.0080000000000000002	21
bin	-0.0077999999999999996	21
bin	-0.0076	21
bin	-0.0074000000000000003	21
bin	-0.0071999999999999998	21
bin	-0.0070000000000000001	21
bin	-0.0067999999999999996	21
bin	-0.0066	21
bin	-0.0064000000000000003	21
bin	-0.0061999999999999998	21
bin	-0.0060000000000000001	21
bin	-0.0057999999999999996	21
bin	-0.0055999999999999999	21
bin	-0.0054000000000000003	21
bin	-0.0051999999999999998	21
bin	-0.0050000000000000001	21
bin	-0.0047999999999999996	22
bin	-0.0045999999999999999	20
bin	-0.0044000000000000003	21
bin	-0.0041999999999999997	22
bin	-0.0040000000000000001	21
bin	-0.0037999999999999996	20
bin	-0.003599999999999999	22
bin	-0.0034000000000000002	21
bin	-0.0031999999999999997	21
bin	-0.0029999999999999992	21
bin	-0.0028000000000000004	21
bin	-0.0025999999999999999	21
bin	-0.0023999999999999994	21
bin	-0.0022000000000000006	21
bin	-0.002	21
bin	-0.0017999999999999995	21
bin	-0.001599999999999999	21
bin	-0.0014000000000000002	21
bin	-0.0011999999999999997	21
bin	-0.00099999999999999915	21
bin	-0.00080000000000000036	21
bin	-0.00059999999999999984	21
bin	-0.00039999999999999931	21
bin	-0.00020000000000000052	21
bin	0	1
bin	0.00020000000000000052	0
bin	0.00040000000000000105	0
bin	0.00059999999999999984	0
bin	0.00080000000000000036	0
bin	0.0010000000000000009	0
bin	0.0011999999999999997	0
bin	0.0014000000000000002	0
bin	0.0016000000000000007	0
bin	0.0018000000000000013	0
bin	0.002	0
bin	0.0022000000000000006	0
bin	0.0024000000000000011	0
statistic MultidropNetwork.controller.app[0].sink packetDelayVariation:histogram
field count 1448
field mean 0.0039745677634043268
field stddev 0.0022939758932337042
field min 0
field max 0.0079436981928399496
field sum 5.7551741214094649
field sqrsum 0.030488914387705852
bin	-inf	0
bin	0	18
bin	0.0001	18
bin	0.00020000000000000001	18
bin	0.00030000000000000003	18
bin	0.00040000000000000002	19
bin	0.00050000000000000001	18
bin	0.00060000000000000006	18
bin	0.00069999999999999999	18
bin	0.00080000000000000004	19
bin	0.00090000000000000008	18
bin	0.001	18
bin	0.0011000000000000001	18
bin	0.0012000000000000001	18
bin	0.0013000000000000002	19
bin	0.0014	18
bin	0.0015	18
bin	0.0016000000000000001	18
bin	0.0017000000000000001	19
bin	0.0018000000000000002	18
bin	0.0019	18
bin	0.002	18
bin	0.0021000000000000003	19
bin	0.0022000000000000001	18
bin	0.0023	18
bin	0.0024000000000000002	18
bin	0.0025000000000000001	18
bin	0.0026000000000000003	19
bin	0.0027000000000000001	18
bin	0.0028	18
bin	0.0029000000000000002	18
bin	0.0030000000000000001	19
bin	0.0031000000000000003	18
bin	0.0032000000000000002	18
bin	0.0033	18
bin	0.0034000000000000002	18
bin	0.0035000000000000001	19
bin	0.0036000000000000003	18
bin	0.0037000000000000002	18
bin	0.0038	18
bin	0.0039000000000000003	19
bin	0.0040000000000000001	18
bin	0.0041000000000000003	18
bin	0.0042000000000000006	18
bin	0.0043	19
bin	0.0044000000000000003	18
bin	0.0045000000000000005	18
bin	0.0045999999999999999	18
bin	0.0047000000000000002	18
bin	0.0048000000000000004	19
bin	0.0048999999999999998	18
bin	0.0050000000000000001	18
bin	0.0051000000000000004	18
bin	0.0052000000000000006	19
bin	0.0053	18
bin	0.0054000000000000003	18
bin	0.0055000000000000005	18
bin	0.0055999999999999999	19
bin	0.0057000000000000002	18
bin	0.0058000000000000005	18
bin	0.0058999999999999999	18
bin	0.0060000000000000001	18
bin	0.0061000000000000004	19
bin	0.0062000000000000006	18
bin	0.0063	18
bin	0.0064000000000000003	18
bin	0.0065000000000000006	19
bin	0.0066	18
bin	0.0067000000000000002	18
bin	0.0068000000000000005	18
bin	0.0069000000000000008	18
bin	0.007000000000000001	19
bin	0.0071000000000000013	18
bin	0.0072000000000000015	18
bin	0.0073000000000000018	18
bin	0.0074000000000000021	19
bin	0.0075000000000000023	18
bin	0.0076000000000000026	18
bin	0.0077000000000000028	18
bin	0.0078000000000000031	19
bin	0.0079000000000000025	8
bin	0.0080000000000000019	0
statistic MultidropNetwork.controller.app[0].sink droppedPacketLengths:histogram
field count 1448
field mean 368
field stddev 0
field min 368
field max 368
field sum 532864
field sqrsum 196093952
bin	-inf	0
bin	367	0
bin	368	1448
bin	369	0
statistic MultidropNetwork.node[0].eth[0].queue queueingTime:histogram
field count 1449
field mean 0.01382155622636301
field stddev 0.0079520029861728948
field min 0
field max 0.027578989499999998
field sum 20.027434972000002
field sqrsum 0.36837365949589157
bin	-inf	0
bin	0	24
bin	0.00050000000000000001	26
bin	0.001	26
bin	0.0015	26
bin	0.002	27
bin	0.0025000000000000001	26
bin	0.0030000000000000001	26
bin	0.0035000000000000001	27
bin	0.0040000000000000001	26
bin	0.0045000000000000005	26
bin	0.0050000000000000001	27
bin	0.0054999999999999997	26
bin	0.0060000000000000001	26
bin	0.0065000000000000006	26
bin	0.0070000000000000001	27
bin	0.0074999999999999997	26
bin	0.0080000000000000002	27
bin	0.0085000000000000006	26
bin	0.0090000000000000011	26
bin	0.0094999999999999998	26
bin	0.01	27
bin	0.010500000000000001	26
bin	0.010999999999999999	26
bin	0.0115	27
bin	0.012	26
bin	0.012500000000000001	26
bin	0.013000000000000001	27
bin	0.0135	26
bin	0.014	26
bin	0.014500000000000001	26
bin	0.014999999999999999	27
bin	0.0155	26
bin	0.016	26
bin	0.016500000000000001	27
bin	0.017000000000000001	26
bin	0.017500000000000002	26
bin	0.018000000000000002	27
bin	0.018499999999999999	26
bin	0.019	26
bin	0.0195	27
bin	0.02	26
bin	0.020500000000000001	26
bin	0.021000000000000001	27
bin	0.021500000000000002	26
bin	0.021999999999999999	26
bin	0.022499999999999999	26
bin	0.023	27
bin	0.0235	26
bin	0.024	26
bin	0.024500000000000001	27
bin	0.025000000000000001	26
bin	0.025500000000000002	26
bin	0.026000000000000002	27
bin	0.026500000000000003	26
bin	0.027000000000000003	26
bin	0.027500000000000004	5
bin	0.028000000000000004	0
statistic MultidropNetwork.node[0].eth[0].queue outgoingPacketLengths:histogram
field count 1449
field mean 512
field stddev 0
field min 512
field max 512
field sum 741888
field sqrsum 379846656
bin	-inf	0
bin	511	0
bin	512	1449
bin	513	0
statistic MultidropNetwork.node[0].eth[0].queue flowQueueingTime:histogram
field count 0
field mean -nan
field stddev nan
field min nan
field max nan
field sum 0
field sqrsum 0
bin	-inf	0
bin	0	0
bin	1	0
statistic MultidropNetwork.node[0].eth[0].queue incomingPacketLengths:histogram
field count 2001
field mean 512
field stddev 0
field min 512
field max 512
field sum 1024512
field sqrsum 524550144
bin	-inf	0
bin	511	0
bin	512	2001
bin	513	0
statistic MultidropNetwork.node[0].eth[0].plca packetInterval:histogram
field count 1448
field mean 6.9003999999998745e-05
field stddev 1.7395797982160775e-06
field min 6.7999999999999999e-05
field max 7.2015999999999996e-05
field sum 0.099917791999998173
field sqrsum 6.8991061406719491e-06
bin	-inf	0
bin	6.6900000000000013e-05	0
bin	6.7000000000000016e-05	0
bin	6.7100000000000018e-05	0
bin	6.7200000000000007e-05	0
bin	6.730000000000001e-05	0
bin	6.7400000000000012e-05	0
bin	6.7500000000000014e-05	0
bin	6.7600000000000017e-05	0
bin	6.7700000000000019e-05	0
bin	6.7800000000000008e-05	0
bin	6.7900000000000011e-05	1086
bin	6.8000000000000013e-05	0
bin	6.8100000000000015e-05	0
bin	6.8200000000000018e-05	0
bin	6.830000000000002e-05	0
bin	6.8400000000000009e-05	0
bin	6.8500000000000012e-05	0
bin	6.8600000000000014e-05	0
bin	6.8700000000000016e-05	0
bin	6.8800000000000019e-05	0
bin	6.8900000000000008e-05	0
bin	6.900000000000001e-05	0
bin	6.9100000000000013e-05	0
bin	6.9200000000000015e-05	0
bin	6.9300000000000018e-05	0
bin	6.940000000000002e-05	0
bin	6.9500000000000009e-05	0
bin	6.9600000000000011e-05	0
bin	6.9700000000000014e-05	0
bin	6.9800000000000016e-05	0
bin	6.9900000000000019e-05	0
bin	7.0000000000000021e-05	0
bin	7.010000000000001e-05	0
bin	7.0200000000000012e-05	0
bin	7.0300000000000015e-05	0
bin	7.0400000000000017e-05	0
bin	7.050000000000002e-05	0
bin	7.0600000000000008e-05	0
bin	7.0700000000000011e-05	0
bin	7.0800000000000013e-05	0
bin	7.0900000000000016e-05	0
bin	7.1000000000000018e-05	0
bin	7.1100000000000021e-05	0
bin	7.1200000000000009e-05	0
bin	7.1300000000000012e-05	0
bin	7.1400000000000014e-05	0
bin	7.1500000000000017e-05	0
bin	7.1600000000000019e-05	0
bin	7.1700000000000008e-05	0
bin	7.1800000000000011e-05	0
bin	7.1900000000000013e-05	0
bin	7.2000000000000015e-05	362
bin	7.2100000000000018e-05	0
bin	7.220000000000002e-05	0
bin	7.2300000000000009e-05	0
bin	7.2400000000000012e-05	0
bin	7.2500000000000014e-05	0
bin	7.2600000000000016e-05	0
bin	7.2700000000000019e-05	0
bin	7.2800000000000008e-05	0
bin	7.290000000000001e-05	0
bin	7.3000000000000013e-05	0
bin	7.3100000000000015e-05	0
statistic MultidropNetwork.node[0].eth[0].plca packetPendingDelay:histogram
field count 1449
field mean 1.0483129744651433e-06
field stddev 2.4226766053107364e-06
field min 0
field max 6.5213499999999995e-05
field sum 0.0015190054999999927
field sqrsum 1.0091229254249996e-08
bin	-inf	0
bin	0	1086
bin	1.0000000000000002e-06	0
bin	2.0000000000000003e-06	0
bin	3.0000000000000005e-06	0
bin	4.0000000000000007e-06	362
bin	5.0000000000000013e-06	0
bin	6.000000000000001e-06	0
bin	7.0000000000000007e-06	0
bin	8.0000000000000013e-06	0
bin	9.0000000000000019e-06	0
bin	1.0000000000000003e-05	0
bin	1.1000000000000001e-05	0
bin	1.2000000000000002e-05	0
bin	1.3000000000000003e-05	0
bin	1.4000000000000001e-05	0
bin	1.5000000000000002e-05	0
bin	1.6000000000000003e-05	0
bin	1.7000000000000003e-05	0
bin	1.8000000000000004e-05	0
bin	1.9000000000000004e-05	0
bin	2.0000000000000005e-05	0
bin	2.1000000000000002e-05	0
bin	2.2000000000000003e-05	0
bin	2.3000000000000003e-05	0
bin	2.4000000000000004e-05	0
bin	2.5000000000000005e-05	0
bin	2.6000000000000005e-05	0
bin	2.7000000000000006e-05	0
bin	2.8000000000000003e-05	0
bin	2.9000000000000004e-05	0
bin	3.0000000000000004e-05	0
bin	3.1000000000000008e-05	0
bin	3.2000000000000005e-05	0
bin	3.3000000000000003e-05	0
bin	3.4000000000000007e-05	0
bin	3.5000000000000004e-05	0
bin	3.6000000000000008e-05	0
bin	3.7000000000000005e-05	0
bin	3.8000000000000009e-05	0
bin	3.9000000000000006e-05	0
bin	4.000000000000001e-05	0
bin	4.1000000000000007e-05	0
bin	4.2000000000000004e-05	0
bin	4.3000000000000008e-05	0
bin	4.4000000000000006e-05	0
bin	4.500000000000001e-05	0
bin	4.6000000000000007e-05	0
bin	4.7000000000000011e-05	0
bin	4.8000000000000008e-05	0
bin	4.9000000000000005e-05	0
bin	5.0000000000000009e-05	0
bin	5.1000000000000006e-05	0
bin	5.200000000000001e-05	0
bin	5.3000000000000008e-05	0
bin	5.4000000000000012e-05	0
bin	5.5000000000000009e-05	0
bin	5.6000000000000006e-05	0
bin	5.700000000000001e-05	0
bin	5.8000000000000007e-05	0
bin	5.9000000000000011e-05	0
bin	6.0000000000000008e-05	0
bin	6.1000000000000012e-05	0
bin	6.2000000000000016e-05	0
bin	6.3000000000000013e-05	0
bin	6.4000000000000011e-05	0
bin	6.5000000000000008e-05	1
bin	6.6000000000000005e-05	0
bin	6.7000000000000016e-05	0
bin	6.8000000000000013e-05	0
bin	6.900000000000001e-05	0
bin	7.0000000000000007e-05	0
bin	7.1000000000000018e-05	0
bin	7.2000000000000015e-05	0
bin	7.3000000000000013e-05	0
bin	7.400000000000001e-05	0
bin	7.5000000000000007e-05	0
bin	7.6000000000000018e-05	0
bin	7.7000000000000015e-05	0
bin	7.8000000000000012e-05	0
bin	7.9000000000000009e-05	0
bin	8.000000000000002e-05	0
bin	8.1000000000000017e-05	0
bin	8.2000000000000015e-05	0
statistic MultidropNetwork.node[0].eth[0].phy throughput:histogram
field count 29
field mean 9383991.6010780763
field stddev 34381.074238909823
field min 9260788.0203396007
field max 9410148.854820149
field sum 272135756.43126422
field sqrsum 2553752750335455.5
bin	-inf	0
bin	9220000	0
bin	9225000	0
bin	9230000	0
bin	9235000	0
bin	9240000	0
bin	9245000	0
bin	9250000	0
bin	9255000	0
bin	9260000	1
bin	9265000	0
bin	9270000	0
bin	9275000	0
bin	9280000	0
bin	9285000	0
bin	9290000	0
bin	9295000	0
bin	9300000	1
bin	9305000	0
bin	9310000	0
bin	9315000	0
bin	9320000	0
bin	9325000	0
bin	9330000	0
bin	9335000	0
bin	9340000	0
bin	9345000	0
bin	9350000	0
bin	9355000	0
bin	9360000	0
bin	9365000	0
bin	9370000	13
bin	9375000	0
bin	9380000	0
bin	9385000	0
bin	9390000	0
bin	9395000	0
bin	9400000	0
bin	9405000	0
bin	9410000	14
bin	9415000	0
bin	9420000	0
bin	9425000	0
bin	9430000	0
bin	9435000	0
bin	9440000	0
bin	9445000	0
bin	9450000	0
statistic MultidropNetwork.node[0].eth[0].phy transmissionTime:histogram
field count 2897
field mean 3.2791991715567426e-05
field stddev 2.5771802269124646e-05
field min 0
field max 5.8399999999999997e-05
field sum 0.094998399999998831
field sqrsum 5.0386688000000153e-06
bin	-inf	0
bin	0	362
bin	1.0000000000000002e-06	0
bin	2.0000000000000003e-06	0
bin	3.0000000000000005e-06	0
bin	4.0000000000000007e-06	0
bin	5.0000000000000013e-06	0
bin	6.000000000000001e-06	0
bin	7.0000000000000007e-06	0
bin	8.0000000000000013e-06	0
bin	9.0000000000000019e-06	1087
bin	1.0000000000000003e-05	0
bin	1.1000000000000001e-05	0
bin	1.2000000000000002e-05	0
bin	1.3000000000000003e-05	0
bin	1.4000000000000001e-05	0
bin	1.5000000000000002e-05	0
bin	1.6000000000000003e-05	0
bin	1.7000000000000003e-05	0
bin	1.8000000000000004e-05	0
bin	1.9000000000000004e-05	0
bin	2.0000000000000005e-05	0
bin	2.1000000000000002e-05	0
bin	2.2000000000000003e-05	0
bin	2.3000000000000003e-05	0
bin	2.4000000000000004e-05	0
bin	2.5000000000000005e-05	0
bin	2.6000000000000005e-05	0
bin	2.7000000000000006e-05	0
bin	2.8000000000000003e-05	0
bin	2.9000000000000004e-05	0
bin	3.0000000000000004e-05	0
bin	3.1000000000000008e-05	0
bin	3.2000000000000005e-05	0
bin	3.3000000000000003e-05	0
bin	3.4000000000000007e-05	0
bin	3.5000000000000004e-05	0
bin	3.6000000000000008e-05	0
bin	3.7000000000000005e-05	0
bin	3.8000000000000009e-05	0
bin	3.9000000000000006e-05	0
bin	4.000000000000001e-05	0
bin	4.1000000000000007e-05	0
bin	4.2000000000000004e-05	0
bin	4.3000000000000008e-05	0
bin	4.4000000000000006e-05	0
bin	4.500000000000001e-05	0
bin	4.6000000000000007e-05	0
bin	4.7000000000000011e-05	0
bin	4.8000000000000008e-05	0
bin	4.9000000000000005e-05	0
bin	5.0000000000000009e-05	0
bin	5.1000000000000006e-05	0
bin	5.200000000000001e-05	0
bin	5.3000000000000008e-05	0
bin	5.4000000000000012e-05	0
bin	5.5000000000000009e-05	0
bin	5.6000000000000006e-05	0
bin	5.700000000000001e-05	0
bin	5.8000000000000007e-05	1448
bin	5.9000000000000011e-05	0
bin	6.0000000000000008e-05	0
bin	6.1000000000000012e-05	0
bin	6.2000000000000016e-05	0
bin	6.3000000000000013e-05	0
bin	6.4000000000000011e-05	0
bin	6.5000000000000008e-05	0
bin	6.6000000000000005e-05	0
bin	6.7000000000000016e-05	0
bin	6.8000000000000013e-05	0
bin	6.900000000000001e-05	0
bin	7.0000000000000007e-05	0
bin	7.1000000000000018e-05	0
bin	7.2000000000000015e-05	0
bin	7.3000000000000013e-05	0
statistic MultidropNetwork.node[0].app[0].source packetLengths:histogram
field count 2001
field mean 368
field stddev 0
field min 368
field max 368
field sum 736368
field sqrsum 270983424
bin	-inf	0
bin	367	0
bin	368	2001
bin	369	0
scalar MultidropNetwork.controller.ethernet encapPk:vector(packetBytes):count 0
scalar MultidropNetwork.controller.ethernet encapPk:vector(packetBytes):sum 0
scalar MultidropNetwork.controller.ethernet encapPk:vector(packetBytes):sumweights 0
scalar MultidropNetwork.controller.ethernet encapPk:vector(packetBytes):mean -nan
scalar MultidropNetwork.controller.ethernet encapPk:vector(packetBytes):stddev nan
scalar MultidropNetwork.controller.ethernet encapPk:vector(packetBytes):min inf
scalar MultidropNetwork.controller.ethernet encapPk:vector(packetBytes):max -inf
scalar MultidropNetwork.controller.ethernet encapPk:vector(packetBytes):starttime nan
scalar MultidropNetwork.controller.ethernet encapPk:vector(packetBytes):endtime nan
scalar MultidropNetwork.controller.ethernet decapPk:vector(packetBytes):count 0
scalar MultidropNetwork.controller.ethernet decapPk:vector(packetBytes):sum 0
scalar MultidropNetwork.controller.ethernet decapPk:vector(packetBytes):sumweights 0
scalar MultidropNetwork.controller.ethernet decapPk:vector(packetBytes):mean -nan
scalar MultidropNetwork.controller.ethernet decapPk:vector(packetBytes):stddev nan
scalar MultidropNetwork.controller.ethernet decapPk:vector(packetBytes):min inf
scalar MultidropNetwork.controller.ethernet decapPk:vector(packetBytes):max -inf
scalar MultidropNetwork.controller.ethernet decapPk:vector(packetBytes):starttime nan
scalar MultidropNetwork.controller.ethernet decapPk:vector(packetBytes):endtime nan
scalar MultidropNetwork.controller.ethernet pauseSent:vector:count 0
scalar MultidropNetwork.controller.ethernet pauseSent:vector:sum 0
scalar MultidropNetwork.controller.ethernet pauseSent:vector:sumweights 0
scalar MultidropNetwork.controller.ethernet pauseSent:vector:mean -nan
scalar MultidropNetwork.controller.ethernet pauseSent:vector:stddev nan
scalar MultidropNetwork.controller.ethernet pauseSent:vector:min inf
scalar MultidropNetwork.controller.ethernet pauseSent:vector:max -inf
scalar MultidropNetwork.controller.ethernet pauseSent:vector:starttime nan
scalar MultidropNetwork.controller.ethernet pauseSent:vector:endtime nan
scalar MultidropNetwork.controller.eth[0].queue queueLength:vector:count 5
scalar MultidropNetwork.controller.eth[0].queue queueLength:vector:sum 0
scalar MultidropNetwork.controller.eth[0].queue queueLength:vector:sumweights 5
scalar MultidropNetwork.controller.eth[0].queue queueLength:vector:mean 0
scalar MultidropNetwork.controller.eth[0].queue queueLength:vector:stddev 0
scalar MultidropNetwork.controller.eth[0].queue queueLength:vector:min 0
scalar MultidropNetwork.controller.eth[0].queue queueLength:vector:max 0
scalar MultidropNetwork.controller.eth[0].queue queueLength:vector:starttime 0
scalar MultidropNetwork.controller.eth[0].queue queueLength:vector:endtime 0
scalar MultidropNetwork.controller.eth[0].queue queueBitLength:vector:count 5
scalar MultidropNetwork.controller.eth[0].queue queueBitLength:vector:sum 0
scalar MultidropNetwork.controller.eth[0].queue queueBitLength:vector:sumweights 5
scalar MultidropNetwork.controller.eth[0].queue queueBitLength:vector:mean 0
scalar MultidropNetwork.controller.eth[0].queue queueBitLength:vector:stddev 0
scalar MultidropNetwork.controller.eth[0].queue queueBitLength:vector:min 0
scalar MultidropNetwork.controller.eth[0].queue queueBitLength:vector:max 0
scalar MultidropNetwork.controller.eth[0].queue queueBitLength:vector:starttime 0
scalar MultidropNetwork.controller.eth[0].queue queueBitLength:vector:endtime 0
scalar MultidropNetwork.controller.eth[0].queue queueingTime:vector:count 0
scalar MultidropNetwork.controller.eth[0].queue queueingTime:vector:sum 0
scalar MultidropNetwork.controller.eth[0].queue queueingTime:vector:sumweights 0
scalar MultidropNetwork.controller.eth[0].queue queueingTime:vector:mean -nan
scalar MultidropNetwork.controller.eth[0].queue queueingTime:vector:stddev nan
scalar MultidropNetwork.controller.eth[0].queue queueingTime:vector:min inf
scalar MultidropNetwork.controller.eth[0].queue queueingTime:vector:max -inf
scalar MultidropNetwork.controller.eth[0].queue queueingTime:vector:starttime nan
scalar MultidropNetwork.controller.eth[0].queue queueingTime:vector:endtime nan
scalar MultidropNetwork.controller.eth[0].queue incomingPacketLengths:vector:count 0
scalar MultidropNetwork.controller.eth[0].queue incomingPacketLengths:vector:sum 0
scalar MultidropNetwork.controller.eth[0].queue incomingPacketLengths:vector:sumweights 0
scalar MultidropNetwork.controller.eth[0].queue incomingPacketLengths:vector:mean -nan
scalar MultidropNetwork.controller.eth[0].queue incomingPacketLengths:vector:stddev nan
scalar MultidropNetwork.controller.eth[0].queue incomingPacketLengths:vector:min inf
scalar MultidropNetwork.controller.eth[0].queue incomingPacketLengths:vector:max -inf
scalar MultidropNetwork.controller.eth[0].queue incomingPacketLengths:vector:starttime nan
scalar MultidropNetwork.controller.eth[0].queue incomingPacketLengths:vector:endtime nan
scalar MultidropNetwork.controller.eth[0].queue incomingDataRate:vector:count 1
scalar MultidropNetwork.controller.eth[0].queue incomingDataRate:vector:sum 0
scalar MultidropNetwork.controller.eth[0].queue incomingDataRate:vector:sumweights 1
scalar MultidropNetwork.controller.eth[0].queue incomingDataRate:vector:mean 0
scalar MultidropNetwork.controller.eth[0].queue incomingDataRate:vector:stddev nan
scalar MultidropNetwork.controller.eth[0].queue incomingDataRate:vector:min 0
scalar MultidropNetwork.controller.eth[0].queue incomingDataRate:vector:max 0
scalar MultidropNetwork.controller.eth[0].queue incomingDataRate:vector:starttime 0.10000000000000001
scalar MultidropNetwork.controller.eth[0].queue incomingDataRate:vector:endtime 0.10000000000000001
scalar MultidropNetwork.controller.eth[0].queue outgoingPacketLengths:vector:count 0
scalar MultidropNetwork.controller.eth[0].queue outgoingPacketLengths:vector:sum 0
scalar MultidropNetwork.controller.eth[0].queue outgoingPacketLengths:vector:sumweights 0
scalar MultidropNetwork.controller.eth[0].queue outgoingPacketLengths:vector:mean -nan
scalar MultidropNetwork.controller.eth[0].queue outgoingPacketLengths:vector:stddev nan
scalar MultidropNetwork.controller.eth[0].queue outgoingPacketLengths:vector:min inf
scalar MultidropNetwork.controller.eth[0].queue outgoingPacketLengths:vector:max -inf
scalar MultidropNetwork.controller.eth[0].queue outgoingPacketLengths:vector:starttime nan
scalar MultidropNetwork.controller.eth[0].queue outgoingPacketLengths:vector:endtime nan
scalar MultidropNetwork.controller.eth[0].queue outgoingDataRate:vector:count 1
scalar MultidropNetwork.controller.eth[0].queue outgoingDataRate:vector:sum 0
scalar MultidropNetwork.controller.eth[0].queue outgoingDataRate:vector:sumweights 1
scalar MultidropNetwork.controller.eth[0].queue outgoingDataRate:vector:mean 0
scalar MultidropNetwork.controller.eth[0].queue outgoingDataRate:vector:stddev nan
scalar MultidropNetwork.controller.eth[0].queue outgoingDataRate:vector:min 0
scalar MultidropNetwork.controller.eth[0].queue outgoingDataRate:vector:max 0
scalar MultidropNetwork.controller.eth[0].queue outgoingDataRate:vector:starttime 0.10000000000000001
scalar MultidropNetwork.controller.eth[0].queue outgoingDataRate:vector:endtime 0.10000000000000001
scalar MultidropNetwork.controller.eth[0].queue droppedPacketLengthsQueueOverflow:vector:count 0
scalar MultidropNetwork.controller.eth[0].queue droppedPacketLengthsQueueOverflow:vector:sum 0
scalar MultidropNetwork.controller.eth[0].queue droppedPacketLengthsQueueOverflow:vector:sumweights 0
scalar MultidropNetwork.controller.eth[0].queue droppedPacketLengthsQueueOverflow:vector:mean -nan
scalar MultidropNetwork.controller.eth[0].queue droppedPacketLengthsQueueOverflow:vector:stddev nan
scalar MultidropNetwork.controller.eth[0].queue droppedPacketLengthsQueueOverflow:vector:min inf
scalar MultidropNetwork.controller.eth[0].queue droppedPacketLengthsQueueOverflow:vector:max -inf
scalar MultidropNetwork.controller.eth[0].queue droppedPacketLengthsQueueOverflow:vector:starttime nan
scalar MultidropNetwork.controller.eth[0].queue droppedPacketLengthsQueueOverflow:vector:endtime nan
scalar MultidropNetwork.controller.eth[0].queue flowQueueingTime:vector:count 0
scalar MultidropNetwork.controller.eth[0].queue flowQueueingTime:vector:sum 0
scalar MultidropNetwork.controller.eth[0].queue flowQueueingTime:vector:sumweights 0
scalar MultidropNetwork.controller.eth[0].queue flowQueueingTime:vector:mean -nan
scalar MultidropNetwork.controller.eth[0].queue flowQueueingTime:vector:stddev nan
scalar MultidropNetwork.controller.eth[0].queue flowQueueingTime:vector:min inf
scalar MultidropNetwork.controller.eth[0].queue flowQueueingTime:vector:max -inf
scalar MultidropNetwork.controller.eth[0].queue flowQueueingTime:vector:starttime nan
scalar MultidropNetwork.controller.eth[0].queue flowQueueingTime:vector:endtime nan
scalar MultidropNetwork.controller.eth[0].queue flowIncomingDataRate:vector:count 1
scalar MultidropNetwork.controller.eth[0].queue flowIncomingDataRate:vector:sum 0
scalar MultidropNetwork.controller.eth[0].queue flowIncomingDataRate:vector:sumweights 1
scalar MultidropNetwork.controller.eth[0].queue flowIncomingDataRate:vector:mean 0
scalar MultidropNetwork.controller.eth[0].queue flowIncomingDataRate:vector:stddev nan
scalar MultidropNetwork.controller.eth[0].queue flowIncomingDataRate:vector:min 0
scalar MultidropNetwork.controller.eth[0].queue flowIncomingDataRate:vector:max 0
scalar MultidropNetwork.controller.eth[0].queue flowIncomingDataRate:vector:starttime 0.10000000000000001
scalar MultidropNetwork.controller.eth[0].queue flowIncomingDataRate:vector:endtime 0.10000000000000001
scalar MultidropNetwork.controller.eth[0].queue flowOutgoingDataRate:vector:count 1
scalar MultidropNetwork.controller.eth[0].queue flowOutgoingDataRate:vector:sum 0
scalar MultidropNetwork.controller.eth[0].queue flowOutgoingDataRate:vector:sumweights 1
scalar MultidropNetwork.controller.eth[0].queue flowOutgoingDataRate:vector:mean 0
scalar MultidropNetwork.controller.eth[0].queue flowOutgoingDataRate:vector:stddev nan
scalar MultidropNetwork.controller.eth[0].queue flowOutgoingDataRate:vector:min 0
scalar MultidropNetwork.controller.eth[0].queue flowOutgoingDataRate:vector:max 0
scalar MultidropNetwork.controller.eth[0].queue flowOutgoingDataRate:vector:starttime 0.10000000000000001
scalar MultidropNetwork.controller.eth[0].queue flowOutgoingDataRate:vector:endtime 0.10000000000000001
scalar MultidropNetwork.controller.eth[0].mac carrierSense:vector:count 2899
scalar MultidropNetwork.controller.eth[0].mac carrierSense:vector:sum 1450
scalar MultidropNetwork.controller.eth[0].mac carrierSense:vector:sumweights 2899
scalar MultidropNetwork.controller.eth[0].mac carrierSense:vector:mean 0.50017247326664371
scalar MultidropNetwork.controller.eth[0].mac carrierSense:vector:stddev 0.50008622919784729
scalar MultidropNetwork.controller.eth[0].mac carrierSense:vector:min 0
scalar MultidropNetwork.controller.eth[0].mac carrierSense:vector:max 1
scalar MultidropNetwork.controller.eth[0].mac carrierSense:vector:starttime 0
scalar MultidropNetwork.controller.eth[0].mac carrierSense:vector:endtime 0.10000000000000001
scalar MultidropNetwork.controller.eth[0].mac collision:vector:count 2
scalar MultidropNetwork.controller.eth[0].mac collision:vector:sum 0
scalar MultidropNetwork.controller.eth[0].mac collision:vector:sumweights 2
scalar MultidropNetwork.controller.eth[0].mac collision:vector:mean 0
scalar MultidropNetwork.controller.eth[0].mac collision:vector:stddev 0
scalar MultidropNetwork.controller.eth[0].mac collision:vector:min 0
scalar MultidropNetwork.controller.eth[0].mac collision:vector:max 0
scalar MultidropNetwork.controller.eth[0].mac collision:vector:starttime 0
scalar MultidropNetwork.controller.eth[0].mac collision:vector:endtime 0.10000000000000001
scalar MultidropNetwork.controller.eth[0].mac state:vector:count 4347
scalar MultidropNetwork.controller.eth[0].mac state:vector:sum 8698
scalar MultidropNetwork.controller.eth[0].mac state:vector:sumweights 4347
scalar MultidropNetwork.controller.eth[0].mac state:vector:mean 2.0009201748332184
scalar MultidropNetwork.controller.eth[0].mac state:vector:stddev 2.1609211871786478
scalar MultidropNetwork.controller.eth[0].mac state:vector:min 0
scalar MultidropNetwork.controller.eth[0].mac state:vector:max 5
scalar MultidropNetwork.controller.eth[0].mac state:vector:starttime 0
scalar MultidropNetwork.controller.eth[0].mac state:vector:endtime 0.10000000000000001
scalar MultidropNetwork.controller.eth[0].plca curID:vector:count 2194
scalar MultidropNetwork.controller.eth[0].plca curID:vector:sum 2194
scalar MultidropNetwork.controller.eth[0].plca curID:vector:sumweights 2194
scalar MultidropNetwork.controller.eth[0].plca curID:vector:mean 1
scalar MultidropNetwork.controller.eth[0].plca curID:vector:stddev 0.81649658092772603
scalar MultidropNetwork.controller.eth[0].plca curID:vector:min 0
scalar MultidropNetwork.controller.eth[0].plca curID:vector:max 2
scalar MultidropNetwork.controller.eth[0].plca curID:vector:starttime 0
scalar MultidropNetwork.controller.eth[0].plca curID:vector:endtime 0.10000000000000001
scalar MultidropNetwork.controller.eth[0].plca carrierSense:vector:count 2189
scalar MultidropNetwork.controller.eth[0].plca carrierSense:vector:sum 1095
scalar MultidropNetwork.controller.eth[0].plca carrierSense:vector:sumweights 2189
scalar MultidropNetwork.controller.eth[0].plca carrierSense:vector:mean 0.50022841480127911
scalar MultidropNetwork.controller.eth[0].plca carrierSense:vector:stddev 0.50011419436028759
scalar MultidropNetwork.controller.eth[0].plca carrierSense:vector:min 0
scalar MultidropNetwork.controller.eth[0].plca carrierSense:vector:max 1
scalar MultidropNetwork.controller.eth[0].plca carrierSense:vector:starttime 0
scalar MultidropNetwork.controller.eth[0].plca carrierSense:vector:endtime 0.10000000000000001
scalar MultidropNetwork.controller.eth[0].plca collision:vector:count 2
scalar MultidropNetwork.controller.eth[0].plca collision:vector:sum 0
scalar MultidropNetwork.controller.eth[0].plca collision:vector:sumweights 2
scalar MultidropNetwork.controller.eth[0].plca collision:vector:mean 0
scalar MultidropNetwork.controller.eth[0].plca collision:vector:stddev 0
scalar MultidropNetwork.controller.eth[0].plca collision:vector:min 0
scalar MultidropNetwork.controller.eth[0].plca collision:vector:max 0
scalar MultidropNetwork.controller.eth[0].plca collision:vector:starttime 0
scalar MultidropNetwork.controller.eth[0].plca collision:vector:endtime 0.10000000000000001
scalar MultidropNetwork.controller.eth[0].plca controlState:vector:count 6574
scalar MultidropNetwork.controller.eth[0].plca controlState:vector:sum 43453
scalar MultidropNetwork.controller.eth[0].plca controlState:vector:sumweights 6574
scalar MultidropNetwork.controller.eth[0].plca controlState:vector:mean 6.6098265895953761
scalar MultidropNetwork.controller.eth[0].plca controlState:vector:stddev 3.9888824124174342
scalar MultidropNetwork.controller.eth[0].plca controlState:vector:min 1
scalar MultidropNetwork.controller.eth[0].plca controlState:vector:max 13
scalar MultidropNetwork.controller.eth[0].plca controlState:vector:starttime 0
scalar MultidropNetwork.controller.eth[0].plca controlState:vector:endtime 0.10000000000000001
scalar MultidropNetwork.controller.eth[0].plca dataState:vector:count 6160
scalar MultidropNetwork.controller.eth[0].plca dataState:vector:sum 9422
scalar MultidropNetwork.controller.eth[0].plca dataState:vector:sumweights 6160
scalar MultidropNetwork.controller.eth[0].plca dataState:vector:mean 1.5295454545454545
scalar MultidropNetwork.controller.eth[0].plca dataState:vector:stddev 0.49916682120076938
scalar MultidropNetwork.controller.eth[0].plca dataState:vector:min 1
scalar MultidropNetwork.controller.eth[0].plca dataState:vector:max 2
scalar MultidropNetwork.controller.eth[0].plca dataState:vector:starttime 0
scalar MultidropNetwork.controller.eth[0].plca dataState:vector:endtime 0.10000000000000001
scalar MultidropNetwork.controller.eth[0].plca rxCmd:vector:count 5796
scalar MultidropNetwork.controller.eth[0].plca rxCmd:vector:sum 2898
scalar MultidropNetwork.controller.eth[0].plca rxCmd:vector:sumweights 5796
scalar MultidropNetwork.controller.eth[0].plca rxCmd:vector:mean 0.5
scalar MultidropNetwork.controller.eth[0].plca rxCmd:vector:stddev 0.86610012233889233
scalar MultidropNetwork.controller.eth[0].plca rxCmd:vector:min 0
scalar MultidropNetwork.controller.eth[0].plca rxCmd:vector:max 2
scalar MultidropNetwork.controller.eth[0].plca rxCmd:vector:starttime 5.5621000000000015e-05
scalar MultidropNetwork.controller.eth[0].plca rxCmd:vector:endtime 0.10000000000000001
scalar MultidropNetwork.controller.eth[0].plca txCmd:vector:count 1463
scalar MultidropNetwork.controller.eth[0].plca txCmd:vector:sum 731
scalar MultidropNetwork.controller.eth[0].plca txCmd:vector:sumweights 1463
scalar MultidropNetwork.controller.eth[0].plca txCmd:vector:mean 0.49965823650034175
scalar MultidropNetwork.controller.eth[0].plca txCmd:vector:stddev 0.5001708525592321
scalar MultidropNetwork.controller.eth[0].plca txCmd:vector:min 0
scalar MultidropNetwork.controller.eth[0].plca txCmd:vector:max 1
scalar MultidropNetwork.controller.eth[0].plca txCmd:vector:starttime 0
scalar MultidropNetwork.controller.eth[0].plca txCmd:vector:endtime 0.10000000000000001
scalar MultidropNetwork.controller.eth[0].plca packetPendingDelay:vector:count 0
scalar MultidropNetwork.controller.eth[0].plca packetPendingDelay:vector:sum 0
scalar MultidropNetwork.controller.eth[0].plca packetPendingDelay:vector:sumweights 0
scalar MultidropNetwork.controller.eth[0].plca packetPendingDelay:vector:mean -nan
scalar MultidropNetwork.controller.eth[0].plca packetPendingDelay:vector:stddev nan
scalar MultidropNetwork.controller.eth[0].plca packetPendingDelay:vector:min inf
scalar MultidropNetwork.controller.eth[0].plca packetPendingDelay:vector:max -inf
scalar MultidropNetwork.controller.eth[0].plca packetPendingDelay:vector:starttime nan
scalar MultidropNetwork.controller.eth[0].plca packetPendingDelay:vector:endtime nan
scalar MultidropNetwork.controller.eth[0].plca packetInterval:vector:count 0
scalar MultidropNetwork.controller.eth[0].plca packetInterval:vector:sum 0
scalar MultidropNetwork.controller.eth[0].plca packetInterval:vector:sumweights 0
scalar MultidropNetwork.controller.eth[0].plca packetInterval:vector:mean -nan
scalar MultidropNetwork.controller.eth[0].plca packetInterval:vector:stddev nan
scalar MultidropNetwork.controller.eth[0].plca packetInterval:vector:min inf
scalar MultidropNetwork.controller.eth[0].plca packetInterval:vector:max -inf
scalar MultidropNetwork.controller.eth[0].plca packetInterval:vector:starttime nan
scalar MultidropNetwork.controller.eth[0].plca packetInterval:vector:endtime nan
scalar MultidropNetwork.controller.eth[0].plca transmitOpportunityUsed:vector:count 731
scalar MultidropNetwork.controller.eth[0].plca transmitOpportunityUsed:vector:sum 0
scalar MultidropNetwork.controller.eth[0].plca transmitOpportunityUsed:vector:sumweights 731
scalar MultidropNetwork.controller.eth[0].plca transmitOpportunityUsed:vector:mean 0
scalar MultidropNetwork.controller.eth[0].plca transmitOpportunityUsed:vector:stddev 0
scalar MultidropNetwork.controller.eth[0].plca transmitOpportunityUsed:vector:min 0
scalar MultidropNetwork.controller.eth[0].plca transmitOpportunityUsed:vector:max 0
scalar MultidropNetwork.controller.eth[0].plca transmitOpportunityUsed:vector:starttime 2.0010000000000004e-06
scalar MultidropNetwork.controller.eth[0].plca transmitOpportunityUsed:vector:endtime 0.099979799000000022
scalar MultidropNetwork.controller.eth[0].plca numPacketsPerTo:vector:count 1461
scalar MultidropNetwork.controller.eth[0].plca numPacketsPerTo:vector:sum 1448
scalar MultidropNetwork.controller.eth[0].plca numPacketsPerTo:vector:sumweights 1461
scalar MultidropNetwork.controller.eth[0].plca numPacketsPerTo:vector:mean 0.99110198494182067
scalar MultidropNetwork.controller.eth[0].plca numPacketsPerTo:vector:stddev 1.7274742679534369
scalar MultidropNetwork.controller.eth[0].plca numPacketsPerTo:vector:min 0
scalar MultidropNetwork.controller.eth[0].plca numPacketsPerTo:vector:max 4
scalar MultidropNetwork.controller.eth[0].plca numPacketsPerTo:vector:starttime 5.2010000000000015e-06
scalar MultidropNetwork.controller.eth[0].plca numPacketsPerTo:vector:endtime 0.099982999000000031
scalar MultidropNetwork.controller.eth[0].plca numPacketsPerOwnTo:vector:count 731
scalar MultidropNetwork.controller.eth[0].plca numPacketsPerOwnTo:vector:sum 0
scalar MultidropNetwork.controller.eth[0].plca numPacketsPerOwnTo:vector:sumweights 731
scalar MultidropNetwork.controller.eth[0].plca numPacketsPerOwnTo:vector:mean 0
scalar MultidropNetwork.controller.eth[0].plca numPacketsPerOwnTo:vector:stddev 0
scalar MultidropNetwork.controller.eth[0].plca numPacketsPerOwnTo:vector:min 0
scalar MultidropNetwork.controller.eth[0].plca numPacketsPerOwnTo:vector:max 0
scalar MultidropNetwork.controller.eth[0].plca numPacketsPerOwnTo:vector:starttime 5.2010000000000015e-06
scalar MultidropNetwork.controller.eth[0].plca numPacketsPerOwnTo:vector:endtime 0.099982999000000031
scalar MultidropNetwork.controller.eth[0].plca numPacketsPerCycle:vector:count 730
scalar MultidropNetwork.controller.eth[0].plca numPacketsPerCycle:vector:sum 1448
scalar MultidropNetwork.controller.eth[0].plca numPacketsPerCycle:vector:sumweights 730
scalar MultidropNetwork.controller.eth[0].plca numPacketsPerCycle:vector:mean 1.9835616438356165
scalar MultidropNetwork.controller.eth[0].plca numPacketsPerCycle:vector:stddev 2.0013036696676001
scalar MultidropNetwork.controller.eth[0].plca numPacketsPerCycle:vector:min 0
scalar MultidropNetwork.controller.eth[0].plca numPacketsPerCycle:vector:max 4
scalar MultidropNetwork.controller.eth[0].plca numPacketsPerCycle:vector:starttime 1.0402000000000003e-05
scalar MultidropNetwork.controller.eth[0].plca numPacketsPerCycle:vector:endtime 0.099979799000000022
scalar MultidropNetwork.controller.eth[0].plca toLength:vector:count 1461
[...]
scalar MultidropNetwork.node[0].eth[0].plca rxCmd:vector:starttime 7.5000000000000026e-09
scalar MultidropNetwork.node[0].eth[0].plca rxCmd:vector:endtime 0.10000000000000001
scalar MultidropNetwork.node[0].eth[0].plca txCmd:vector:count 2899
scalar MultidropNetwork.node[0].eth[0].plca txCmd:vector:sum 2898
scalar MultidropNetwork.node[0].eth[0].plca txCmd:vector:sumweights 2899
scalar MultidropNetwork.node[0].eth[0].plca txCmd:vector:mean 0.99965505346671268
scalar MultidropNetwork.node[0].eth[0].plca txCmd:vector:stddev 1.0001724583956946
scalar MultidropNetwork.node[0].eth[0].plca txCmd:vector:min 0
scalar MultidropNetwork.node[0].eth[0].plca txCmd:vector:max 2
scalar MultidropNetwork.node[0].eth[0].plca txCmd:vector:starttime 5.5613500000000019e-05
scalar MultidropNetwork.node[0].eth[0].plca txCmd:vector:endtime 0.10000000000000001
scalar MultidropNetwork.node[0].eth[0].plca packetPendingDelay:vector:count 1449
scalar MultidropNetwork.node[0].eth[0].plca packetPendingDelay:vector:sum 0.0015190054999999927
scalar MultidropNetwork.node[0].eth[0].plca packetPendingDelay:vector:sumweights 1449
scalar MultidropNetwork.node[0].eth[0].plca packetPendingDelay:vector:mean 1.0483129744651433e-06
scalar MultidropNetwork.node[0].eth[0].plca packetPendingDelay:vector:stddev 2.4226766053107364e-06
scalar MultidropNetwork.node[0].eth[0].plca packetPendingDelay:vector:min 0
scalar MultidropNetwork.node[0].eth[0].plca packetPendingDelay:vector:max 6.5213499999999995e-05
scalar MultidropNetwork.node[0].eth[0].plca packetPendingDelay:vector:starttime 6.5213500000000022e-05
scalar MultidropNetwork.node[0].eth[0].plca packetPendingDelay:vector:endtime 0.099983005500000027
scalar MultidropNetwork.node[0].eth[0].plca packetInterval:vector:count 1448
scalar MultidropNetwork.node[0].eth[0].plca packetInterval:vector:sum 0.099917791999998173
scalar MultidropNetwork.node[0].eth[0].plca packetInterval:vector:sumweights 1448
scalar MultidropNetwork.node[0].eth[0].plca packetInterval:vector:mean 6.9003999999998745e-05
scalar MultidropNetwork.node[0].eth[0].plca packetInterval:vector:stddev 1.7395797982160775e-06
scalar MultidropNetwork.node[0].eth[0].plca packetInterval:vector:min 6.7999999999999999e-05
scalar MultidropNetwork.node[0].eth[0].plca packetInterval:vector:max 7.2015999999999996e-05
scalar MultidropNetwork.node[0].eth[0].plca packetInterval:vector:starttime 0.00013321350000000004
scalar MultidropNetwork.node[0].eth[0].plca packetInterval:vector:endtime 0.099983005500000027
scalar MultidropNetwork.node[0].eth[0].plca transmitOpportunityUsed:vector:count 731
scalar MultidropNetwork.node[0].eth[0].plca transmitOpportunityUsed:vector:sum 363
scalar MultidropNetwork.node[0].eth[0].plca transmitOpportunityUsed:vector:sumweights 731
scalar MultidropNetwork.node[0].eth[0].plca transmitOpportunityUsed:vector:mean 0.49658002735978113
scalar MultidropNetwork.node[0].eth[0].plca transmitOpportunityUsed:vector:stddev 0.50033064419277318
scalar MultidropNetwork.node[0].eth[0].plca transmitOpportunityUsed:vector:min 0
scalar MultidropNetwork.node[0].eth[0].plca transmitOpportunityUsed:vector:max 1
scalar MultidropNetwork.node[0].eth[0].plca transmitOpportunityUsed:vector:starttime 5.2075000000000014e-06
scalar MultidropNetwork.node[0].eth[0].plca transmitOpportunityUsed:vector:endtime 0.099983005500000027
scalar MultidropNetwork.node[0].eth[0].plca numPacketsPerTo:vector:count 1461
scalar MultidropNetwork.node[0].eth[0].plca numPacketsPerTo:vector:sum 1448
scalar MultidropNetwork.node[0].eth[0].plca numPacketsPerTo:vector:sumweights 1461
scalar MultidropNetwork.node[0].eth[0].plca numPacketsPerTo:vector:mean 0.99110198494182067
scalar MultidropNetwork.node[0].eth[0].plca numPacketsPerTo:vector:stddev 1.7274742679534369
scalar MultidropNetwork.node[0].eth[0].plca numPacketsPerTo:vector:min 0
scalar MultidropNetwork.node[0].eth[0].plca numPacketsPerTo:vector:max 4
scalar MultidropNetwork.node[0].eth[0].plca numPacketsPerTo:vector:starttime 5.2075000000000014e-06
scalar MultidropNetwork.node[0].eth[0].plca numPacketsPerTo:vector:endtime 0.099983005500000027
scalar MultidropNetwork.node[0].eth[0].plca numPacketsPerOwnTo:vector:count 730
scalar MultidropNetwork.node[0].eth[0].plca numPacketsPerOwnTo:vector:sum 1448
scalar MultidropNetwork.node[0].eth[0].plca numPacketsPerOwnTo:vector:sumweights 730
scalar MultidropNetwork.node[0].eth[0].plca numPacketsPerOwnTo:vector:mean 1.9835616438356165
scalar MultidropNetwork.node[0].eth[0].plca numPacketsPerOwnTo:vector:stddev 2.0013036696676001
scalar MultidropNetwork.node[0].eth[0].plca numPacketsPerOwnTo:vector:min 0
scalar MultidropNetwork.node[0].eth[0].plca numPacketsPerOwnTo:vector:max 4
scalar MultidropNetwork.node[0].eth[0].plca numPacketsPerOwnTo:vector:starttime 8.4075000000000021e-06
scalar MultidropNetwork.node[0].eth[0].plca numPacketsPerOwnTo:vector:endtime 0.099977804500000031
scalar MultidropNetwork.node[0].eth[0].plca numPacketsPerCycle:vector:count 730
scalar MultidropNetwork.node[0].eth[0].plca numPacketsPerCycle:vector:sum 1448
scalar MultidropNetwork.node[0].eth[0].plca numPacketsPerCycle:vector:sumweights 730
scalar MultidropNetwork.node[0].eth[0].plca numPacketsPerCycle:vector:mean 1.9835616438356165
scalar MultidropNetwork.node[0].eth[0].plca numPacketsPerCycle:vector:stddev 2.0013036696676001
scalar MultidropNetwork.node[0].eth[0].plca numPacketsPerCycle:vector:min 0
scalar MultidropNetwork.node[0].eth[0].plca numPacketsPerCycle:vector:max 4
scalar MultidropNetwork.node[0].eth[0].plca numPacketsPerCycle:vector:starttime 1.0408500000000004e-05
scalar MultidropNetwork.node[0].eth[0].plca numPacketsPerCycle:vector:endtime 0.099979805500000032
scalar MultidropNetwork.node[0].eth[0].plca toLength:vector:count 1461
scalar MultidropNetwork.node[0].eth[0].plca toLength:vector:sum 0.098515199999998068
scalar MultidropNetwork.node[0].eth[0].plca toLength:vector:sumweights 1461
scalar MultidropNetwork.node[0].eth[0].plca toLength:vector:mean 6.7429979466117771e-05
scalar MultidropNetwork.node[0].eth[0].plca toLength:vector:stddev 0.00011195206657407092
scalar MultidropNetwork.node[0].eth[0].plca toLength:vector:min 3.1999999999999999e-06
scalar MultidropNetwork.node[0].eth[0].plca toLength:vector:max 0.000272
scalar MultidropNetwork.node[0].eth[0].plca toLength:vector:starttime 5.2075000000000014e-06
scalar MultidropNetwork.node[0].eth[0].plca toLength:vector:endtime 0.099983005500000027
scalar MultidropNetwork.node[0].eth[0].plca ownToLength:vector:count 730
scalar MultidropNetwork.node[0].eth[0].plca ownToLength:vector:sum 0.096175999999999262
scalar MultidropNetwork.node[0].eth[0].plca ownToLength:vector:sumweights 730
scalar MultidropNetwork.node[0].eth[0].plca ownToLength:vector:mean 0.00013174794520547843
scalar MultidropNetwork.node[0].eth[0].plca ownToLength:vector:stddev 0.00012969823212181976
scalar MultidropNetwork.node[0].eth[0].plca ownToLength:vector:min 3.1999999999999999e-06
scalar MultidropNetwork.node[0].eth[0].plca ownToLength:vector:max 0.000272
scalar MultidropNetwork.node[0].eth[0].plca ownToLength:vector:starttime 8.4075000000000021e-06
scalar MultidropNetwork.node[0].eth[0].plca ownToLength:vector:endtime 0.099977804500000031
scalar MultidropNetwork.node[0].eth[0].plca cycleLength:vector:count 730
scalar MultidropNetwork.node[0].eth[0].plca cycleLength:vector:sum 0.099977798000000229
scalar MultidropNetwork.node[0].eth[0].plca cycleLength:vector:sumweights 730
scalar MultidropNetwork.node[0].eth[0].plca cycleLength:vector:mean 0.0001369558876712332
scalar MultidropNetwork.node[0].eth[0].plca cycleLength:vector:stddev 0.0001297052366584142
scalar MultidropNetwork.node[0].eth[0].plca cycleLength:vector:min 8.4009999999999997e-06
scalar MultidropNetwork.node[0].eth[0].plca cycleLength:vector:max 0.00027721499999999998
scalar MultidropNetwork.node[0].eth[0].plca cycleLength:vector:starttime 1.0408500000000004e-05
scalar MultidropNetwork.node[0].eth[0].plca cycleLength:vector:endtime 0.099979805500000032
scalar MultidropNetwork.node[0].eth[0].phy state:vector:count 8352
scalar MultidropNetwork.node[0].eth[0].phy state:vector:sum 18873
scalar MultidropNetwork.node[0].eth[0].phy state:vector:sumweights 8352
scalar MultidropNetwork.node[0].eth[0].phy state:vector:mean 2.259698275862069
scalar MultidropNetwork.node[0].eth[0].phy state:vector:stddev 1.594195045197826
scalar MultidropNetwork.node[0].eth[0].phy state:vector:min 0
scalar MultidropNetwork.node[0].eth[0].phy state:vector:max 4
scalar MultidropNetwork.node[0].eth[0].phy state:vector:starttime 0
scalar MultidropNetwork.node[0].eth[0].phy state:vector:endtime 0.10000000000000001
scalar MultidropNetwork.node[0].eth[0].phy receivedSignalType:vector:count 1464
scalar MultidropNetwork.node[0].eth[0].phy receivedSignalType:vector:sum 731
scalar MultidropNetwork.node[0].eth[0].phy receivedSignalType:vector:sumweights 1464
scalar MultidropNetwork.node[0].eth[0].phy receivedSignalType:vector:mean 0.49931693989071041
scalar MultidropNetwork.node[0].eth[0].phy receivedSignalType:vector:stddev 0.50017038582847173
scalar MultidropNetwork.node[0].eth[0].phy receivedSignalType:vector:min 0
scalar MultidropNetwork.node[0].eth[0].phy receivedSignalType:vector:max 1
scalar MultidropNetwork.node[0].eth[0].phy receivedSignalType:vector:starttime 0
scalar MultidropNetwork.node[0].eth[0].phy receivedSignalType:vector:endtime 0.10000000000000001
scalar MultidropNetwork.node[0].eth[0].phy transmittedSignalType:vector:count 5797
scalar MultidropNetwork.node[0].eth[0].phy transmittedSignalType:vector:sum 7248
scalar MultidropNetwork.node[0].eth[0].phy transmittedSignalType:vector:sumweights 5797
scalar MultidropNetwork.node[0].eth[0].phy transmittedSignalType:vector:mean 1.2503018802829049
scalar MultidropNetwork.node[0].eth[0].phy transmittedSignalType:vector:stddev 1.2992414288711254
scalar MultidropNetwork.node[0].eth[0].phy transmittedSignalType:vector:min 0
scalar MultidropNetwork.node[0].eth[0].phy transmittedSignalType:vector:max 3
scalar MultidropNetwork.node[0].eth[0].phy transmittedSignalType:vector:starttime 0
scalar MultidropNetwork.node[0].eth[0].phy transmittedSignalType:vector:endtime 0.10000000000000001
scalar MultidropNetwork.node[0].eth[0].phy transmitting:vector:count 5797
scalar MultidropNetwork.node[0].eth[0].phy transmitting:vector:sum 2898
scalar MultidropNetwork.node[0].eth[0].phy transmitting:vector:sumweights 5797
scalar MultidropNetwork.node[0].eth[0].phy transmitting:vector:mean 0.49991374849059861
scalar MultidropNetwork.node[0].eth[0].phy transmitting:vector:stddev 0.50004312389503036
scalar MultidropNetwork.node[0].eth[0].phy transmitting:vector:min 0
scalar MultidropNetwork.node[0].eth[0].phy transmitting:vector:max 1
scalar MultidropNetwork.node[0].eth[0].phy transmitting:vector:starttime 0
scalar MultidropNetwork.node[0].eth[0].phy transmitting:vector:endtime 0.099983005500000027
scalar MultidropNetwork.node[0].eth[0].phy throughput:vector:count 29
scalar MultidropNetwork.node[0].eth[0].phy throughput:vector:sum 272135756.43126422
scalar MultidropNetwork.node[0].eth[0].phy throughput:vector:sumweights 29
scalar MultidropNetwork.node[0].eth[0].phy throughput:vector:mean 9383991.6010780763
scalar MultidropNetwork.node[0].eth[0].phy throughput:vector:stddev 34381.074238909823
scalar MultidropNetwork.node[0].eth[0].phy throughput:vector:min 9260788.0203396007
scalar MultidropNetwork.node[0].eth[0].phy throughput:vector:max 9410148.854820149
scalar MultidropNetwork.node[0].eth[0].phy throughput:vector:starttime 0.0035038055000000011
scalar MultidropNetwork.node[0].eth[0].phy throughput:vector:endtime 0.10000000000000001
scalar MultidropNetwork.node[0].eth[0].phy transmissionTime:vector:count 2897
scalar MultidropNetwork.node[0].eth[0].phy transmissionTime:vector:sum 0.094998399999998831
scalar MultidropNetwork.node[0].eth[0].phy transmissionTime:vector:sumweights 2897
scalar MultidropNetwork.node[0].eth[0].phy transmissionTime:vector:mean 3.2791991715567426e-05
scalar MultidropNetwork.node[0].eth[0].phy transmissionTime:vector:stddev 2.5771802269124646e-05
scalar MultidropNetwork.node[0].eth[0].phy transmissionTime:vector:min 0
scalar MultidropNetwork.node[0].eth[0].phy transmissionTime:vector:max 5.8399999999999997e-05
scalar MultidropNetwork.node[0].eth[0].phy transmissionTime:vector:starttime 6.5213500000000022e-05
scalar MultidropNetwork.node[0].eth[0].phy transmissionTime:vector:endtime 0.099983005500000027
scalar MultidropNetwork.node[0].eth[0].phy busUsed:vector:count 7259
scalar MultidropNetwork.node[0].eth[0].phy busUsed:vector:sum 1450
scalar MultidropNetwork.node[0].eth[0].phy busUsed:vector:sumweights 7259
scalar MultidropNetwork.node[0].eth[0].phy busUsed:vector:mean 0.19975203196032512
scalar MultidropNetwork.node[0].eth[0].phy busUsed:vector:stddev 0.39984144585210007
scalar MultidropNetwork.node[0].eth[0].phy busUsed:vector:min 0
scalar MultidropNetwork.node[0].eth[0].phy busUsed:vector:max 1
scalar MultidropNetwork.node[0].eth[0].phy busUsed:vector:starttime 0
scalar MultidropNetwork.node[0].eth[0].phy busUsed:vector:endtime 0.10000000000000001
scalar MultidropNetwork.node[0].eth[0].phy busUtilization:vector:count 37
scalar MultidropNetwork.node[0].eth[0].phy busUtilization:vector:sum 31.288314971121853
scalar MultidropNetwork.node[0].eth[0].phy busUtilization:vector:sumweights 37
scalar MultidropNetwork.node[0].eth[0].phy busUtilization:vector:mean 0.84563013435464462
scalar MultidropNetwork.node[0].eth[0].phy busUtilization:vector:stddev 0.0031689804207412895
scalar MultidropNetwork.node[0].eth[0].phy busUtilization:vector:min 0.82860465361522262
scalar MultidropNetwork.node[0].eth[0].phy busUtilization:vector:max 0.84632774911599307
scalar MultidropNetwork.node[0].eth[0].phy busUtilization:vector:starttime 0.0026077575000000006
scalar MultidropNetwork.node[0].eth[0].phy busUtilization:vector:endtime 0.10000000000000001
scalar MultidropNetwork.node[0].eth[0] packetDropInterfaceDown:vector(packetBytes):count 0
scalar MultidropNetwork.node[0].eth[0] packetDropInterfaceDown:vector(packetBytes):sum 0
scalar MultidropNetwork.node[0].eth[0] packetDropInterfaceDown:vector(packetBytes):sumweights 0
scalar MultidropNetwork.node[0].eth[0] packetDropInterfaceDown:vector(packetBytes):mean -nan
scalar MultidropNetwork.node[0].eth[0] packetDropInterfaceDown:vector(packetBytes):stddev nan
scalar MultidropNetwork.node[0].eth[0] packetDropInterfaceDown:vector(packetBytes):min inf
scalar MultidropNetwork.node[0].eth[0] packetDropInterfaceDown:vector(packetBytes):max -inf
scalar MultidropNetwork.node[0].eth[0] packetDropInterfaceDown:vector(packetBytes):starttime nan
scalar MultidropNetwork.node[0].eth[0] packetDropInterfaceDown:vector(packetBytes):endtime nan
scalar MultidropNetwork.node[0].eth[0] packetDropNoCarrier:vector(packetBytes):count 0
scalar MultidropNetwork.node[0].eth[0] packetDropNoCarrier:vector(packetBytes):sum 0
scalar MultidropNetwork.node[0].eth[0] packetDropNoCarrier:vector(packetBytes):sumweights 0
scalar MultidropNetwork.node[0].eth[0] packetDropNoCarrier:vector(packetBytes):mean -nan
scalar MultidropNetwork.node[0].eth[0] packetDropNoCarrier:vector(packetBytes):stddev nan
scalar MultidropNetwork.node[0].eth[0] packetDropNoCarrier:vector(packetBytes):min inf
scalar MultidropNetwork.node[0].eth[0] packetDropNoCarrier:vector(packetBytes):max -inf
scalar MultidropNetwork.node[0].eth[0] packetDropNoCarrier:vector(packetBytes):starttime nan
scalar MultidropNetwork.node[0].eth[0] packetDropNoCarrier:vector(packetBytes):endtime nan
scalar MultidropNetwork.node[0].app[0].source packetLengths:vector:count 2001
scalar MultidropNetwork.node[0].app[0].source packetLengths:vector:sum 736368
scalar MultidropNetwork.node[0].app[0].source packetLengths:vector:sumweights 2001
scalar MultidropNetwork.node[0].app[0].source packetLengths:vector:mean 368
scalar MultidropNetwork.node[0].app[0].source packetLengths:vector:stddev 0
scalar MultidropNetwork.node[0].app[0].source packetLengths:vector:min 368
scalar MultidropNetwork.node[0].app[0].source packetLengths:vector:max 368
scalar MultidropNetwork.node[0].app[0].source packetLengths:vector:starttime 0
scalar MultidropNetwork.node[0].app[0].source packetLengths:vector:endtime 0.10000000000000001
scalar MultidropNetwork.node[0].app[0].source dataRate:vector:count 21
scalar MultidropNetwork.node[0].app[0].source dataRate:vector:sum 154634343.43434343
scalar MultidropNetwork.node[0].app[0].source dataRate:vector:sumweights 21
scalar MultidropNetwork.node[0].app[0].source dataRate:vector:mean 7363540.1635401631
scalar MultidropNetwork.node[0].app[0].source dataRate:vector:stddev 16223.06739568692
scalar MultidropNetwork.node[0].app[0].source dataRate:vector:min 7360000
scalar MultidropNetwork.node[0].app[0].source dataRate:vector:max 7434343.4343434349
scalar MultidropNetwork.node[0].app[0].source dataRate:vector:starttime 0.0049500000000000004
scalar MultidropNetwork.node[0].app[0].source dataRate:vector:endtime 0.10000000000000001
scalar MultidropNetwork.node[0].app[0].io packetSent:vector(packetBytes):count 2001
scalar MultidropNetwork.node[0].app[0].io packetSent:vector(packetBytes):sum 92046
scalar MultidropNetwork.node[0].app[0].io packetSent:vector(packetBytes):sumweights 2001
scalar MultidropNetwork.node[0].app[0].io packetSent:vector(packetBytes):mean 46
scalar MultidropNetwork.node[0].app[0].io packetSent:vector(packetBytes):stddev 0
scalar MultidropNetwork.node[0].app[0].io packetSent:vector(packetBytes):min 46
scalar MultidropNetwork.node[0].app[0].io packetSent:vector(packetBytes):max 46
scalar MultidropNetwork.node[0].app[0].io packetSent:vector(packetBytes):starttime 0
scalar MultidropNetwork.node[0].app[0].io packetSent:vector(packetBytes):endtime 0.10000000000000001
scalar MultidropNetwork.node[0].app[0].io packetReceived:vector(packetBytes):count 0
scalar MultidropNetwork.node[0].app[0].io packetReceived:vector(packetBytes):sum 0
scalar MultidropNetwork.node[0].app[0].io packetReceived:vector(packetBytes):sumweights 0
scalar MultidropNetwork.node[0].app[0].io packetReceived:vector(packetBytes):mean -nan
scalar MultidropNetwork.node[0].app[0].io packetReceived:vector(packetBytes):stddev nan
scalar MultidropNetwork.node[0].app[0].io packetReceived:vector(packetBytes):min inf
scalar MultidropNetwork.node[0].app[0].io packetReceived:vector(packetBytes):max -inf
scalar MultidropNetwork.node[0].app[0].io packetReceived:vector(packetBytes):starttime nan
scalar MultidropNetwork.node[0].app[0].io packetReceived:vector(packetBytes):endtime nan
scalar MultidropNetwork.j[0] packetReceived:vector(packetBytes):count 5078
scalar MultidropNetwork.j[0] packetReceived:vector(packetBytes):sum 235485
scalar MultidropNetwork.j[0] packetReceived:vector(packetBytes):sumweights 5078
scalar MultidropNetwork.j[0] packetReceived:vector(packetBytes):mean 46.373572272548245
scalar MultidropNetwork.j[0] packetReceived:vector(packetBytes):stddev 34.457563494497748
scalar MultidropNetwork.j[0] packetReceived:vector(packetBytes):min 0
scalar MultidropNetwork.j[0] packetReceived:vector(packetBytes):max 80
scalar MultidropNetwork.j[0] packetReceived:vector(packetBytes):starttime 5.0000000000000018e-09
scalar MultidropNetwork.j[0] packetReceived:vector(packetBytes):endtime 0.099983008000000026
scalar MultidropNetwork.j[0] channelOwner:channelOwner:count 2187
scalar MultidropNetwork.j[0] channelOwner:channelOwner:sum 4738
scalar MultidropNetwork.j[0] channelOwner:channelOwner:sumweights 2187
scalar MultidropNetwork.j[0] channelOwner:channelOwner:mean 2.1664380429812526
scalar MultidropNetwork.j[0] channelOwner:channelOwner:stddev 1.2128121602026498
scalar MultidropNetwork.j[0] channelOwner:channelOwner:min 1
scalar MultidropNetwork.j[0] channelOwner:channelOwner:max 4
scalar MultidropNetwork.j[0] channelOwner:channelOwner:starttime 5.0000000000000018e-09
scalar MultidropNetwork.j[0] channelOwner:channelOwner:endtime 0.099983008000000026

