version 3
run WorstCase-0-20250108-11:18:57-9472
attr configname WorstCase
attr datetime 20250108-11:18:57
attr datetimef 20250108-111857
attr experiment WorstCase
attr inifile worstcase.ini
attr iterationvars ""
attr iterationvarsd ""
attr iterationvarsf ""
attr measurement ""
attr network MultidropNetwork
attr processid 9472
attr repetition 0
attr replication #0
attr resultdir results
attr runnumber 0
attr seedset 0
config **.param-recording false
config image-path /home/levy/workspace/inet/images
config output-scalar-file results/worstcase.ini-WorstCase-#0.sca
config output-vector-file results/worstcase.ini-WorstCase-#0.vec
config sim-time-limit 1ms
config description "An Ethernet 10BASE-T1S multidrop link with worst case pending packet delay for one node"
config network MultidropNetwork
config sim-time-limit 1ms
config *.numNodes 4
config *.controller.typename EthernetPlcaHost
config *.node[*].typename EthernetPlcaHost
config *.*.eth[*].plca.max_bc 1
config *.node[*].numApps 1
config *.node[*].app[0].typename EthernetSourceApp
config *.node[*].app[0].io.interface "\"eth0\""
config *.node[*].app[0].io.remoteAddress "\"controller\""
config *.node[*].app[0].source.productionInterval 1s
config *.node[0].app[0].source.initialProductionOffset "5.2075us + 1ps"
config *.node[1].app[0].source.initialProductionOffset 8.4125us
config *.node[2].app[0].source.initialProductionOffset 79.6225us
config *.node[3].app[0].source.initialProductionOffset 150.8325us
config *.node[*].app[0].source.packetLength 46B
config *.controller.numApps 1
config *.controller.app[0].typename EthernetSinkApp
config *.controller.app[0].io.steal true
config *.controller.app[0].io.interface "\"eth0\""
config *.controller.app[0].io.localAddress "\"controller\""
config *.visualizer.interfaceTableVisualizer.displayInterfaceTables true
config *.visualizer.interfaceTableVisualizer.format "\"%N%\\\\%m\""

scalar MultidropNetwork.controller.ethernet pauseSent:count 0
scalar MultidropNetwork.controller.ethernet pauseSent:sum 0
scalar MultidropNetwork.controller.ethernet decapPk:count 0
scalar MultidropNetwork.controller.ethernet decapPk:sum(packetBytes) 0
scalar MultidropNetwork.controller.ethernet encapPk:count 0
scalar MultidropNetwork.controller.ethernet encapPk:sum(packetBytes) 0
scalar MultidropNetwork.controller.eth[0].queue queueLength:last 0
scalar MultidropNetwork.controller.eth[0].queue queueLength:max 0
scalar MultidropNetwork.controller.eth[0].queue queueLength:timeavg 0
scalar MultidropNetwork.controller.eth[0].queue queueBitLength:last 0
scalar MultidropNetwork.controller.eth[0].queue queueBitLength:max 0
scalar MultidropNetwork.controller.eth[0].queue queueBitLength:timeavg 0
scalar MultidropNetwork.controller.eth[0].queue outgoingPackets:count 0
scalar MultidropNetwork.controller.eth[0].queue outgoingPacketLengths:sum 0
scalar MultidropNetwork.controller.eth[0].queue incomingPackets:count 0
scalar MultidropNetwork.controller.eth[0].queue incomingPacketLengths:sum 0
scalar MultidropNetwork.controller.eth[0].queue droppedPacketsQueueOverflow:count 0
scalar MultidropNetwork.controller.eth[0].queue droppedPacketLengthsQueueOverflow:sum 0
scalar MultidropNetwork.controller.eth[0].mac state:count 14
scalar MultidropNetwork.controller.eth[0].mac collision:count 2
scalar MultidropNetwork.controller.eth[0].mac carrierSense:count 10
scalar MultidropNetwork.controller.eth[0].plca transmitOpportunityUsed:count 40
scalar MultidropNetwork.controller.eth[0].plca packetInterval:count 0
scalar MultidropNetwork.controller.eth[0].plca packetPendingDelay:count 0
scalar MultidropNetwork.controller.eth[0].plca txCmd:count 81
scalar MultidropNetwork.controller.eth[0].plca rxCmd:count 25
scalar MultidropNetwork.controller.eth[0].plca dataState:count 30
scalar MultidropNetwork.controller.eth[0].plca controlState:count 568
scalar MultidropNetwork.controller.eth[0].plca collision:count 2
scalar MultidropNetwork.controller.eth[0].plca carrierSense:count 90
scalar MultidropNetwork.controller.eth[0].phy busUsed:count 106
scalar MultidropNetwork.controller.eth[0].phy busUtilization:count 1
scalar MultidropNetwork.controller.eth[0].phy transmittedSignalType:count 82
scalar MultidropNetwork.controller.eth[0].phy receivedSignalType:count 26
scalar MultidropNetwork.controller.eth[0].phy state:count 158
scalar MultidropNetwork.controller.eth[0] packetDropInterfaceDown:count 0
scalar MultidropNetwork.controller.eth[0] packetDropInterfaceDown:sum(packetBytes) 0
scalar MultidropNetwork.controller.eth[0] packetDropNoCarrier:count 0
scalar MultidropNetwork.controller.eth[0] packetDropNoCarrier:sum(packetBytes) 0
scalar MultidropNetwork.controller.app[0].sink packets:count 4
scalar MultidropNetwork.controller.app[0].sink packetLengths:sum 1472
scalar MultidropNetwork.controller.app[0].sink droppedPackets:count 4
scalar MultidropNetwork.controller.app[0].sink droppedPacketLengths:sum 1472
scalar MultidropNetwork.controller.app[0].io "packets sent" 0
scalar MultidropNetwork.controller.app[0].io "packets received" 4
scalar MultidropNetwork.controller.app[0].io packetReceived:count 4
scalar MultidropNetwork.controller.app[0].io packetReceived:sum(packetBytes) 184
scalar MultidropNetwork.controller.app[0].io packetSent:count 0
scalar MultidropNetwork.controller.app[0].io packetSent:sum(packetBytes) 0
scalar MultidropNetwork.node[0].ethernet pauseSent:count 0
scalar MultidropNetwork.node[0].ethernet pauseSent:sum 0
scalar MultidropNetwork.node[0].ethernet decapPk:count 0
scalar MultidropNetwork.node[0].ethernet decapPk:sum(packetBytes) 0
scalar MultidropNetwork.node[0].ethernet encapPk:count 1
scalar MultidropNetwork.node[0].ethernet encapPk:sum(packetBytes) 46
scalar MultidropNetwork.node[0].eth[0].queue queueLength:last 0
scalar MultidropNetwork.node[0].eth[0].queue queueLength:max 0
scalar MultidropNetwork.node[0].eth[0].queue queueLength:timeavg 0
scalar MultidropNetwork.node[0].eth[0].queue queueBitLength:last 0
scalar MultidropNetwork.node[0].eth[0].queue queueBitLength:max 0
scalar MultidropNetwork.node[0].eth[0].queue queueBitLength:timeavg 0
scalar MultidropNetwork.node[0].eth[0].queue outgoingPackets:count 1
scalar MultidropNetwork.node[0].eth[0].queue outgoingPacketLengths:sum 512
scalar MultidropNetwork.node[0].eth[0].queue incomingPackets:count 1
scalar MultidropNetwork.node[0].eth[0].queue incomingPacketLengths:sum 512
scalar MultidropNetwork.node[0].eth[0].queue droppedPacketsQueueOverflow:count 0
scalar MultidropNetwork.node[0].eth[0].queue droppedPacketLengthsQueueOverflow:sum 0
scalar MultidropNetwork.node[0].eth[0].mac state:count 11
scalar MultidropNetwork.node[0].eth[0].mac collision:count 4
scalar MultidropNetwork.node[0].eth[0].mac carrierSense:count 6
scalar MultidropNetwork.node[0].eth[0].plca transmitOpportunityUsed:count 40
scalar MultidropNetwork.node[0].eth[0].plca packetInterval:count 0
scalar MultidropNetwork.node[0].eth[0].plca packetPendingDelay:count 1
scalar MultidropNetwork.node[0].eth[0].plca txCmd:count 5
scalar MultidropNetwork.node[0].eth[0].plca rxCmd:count 99
scalar MultidropNetwork.node[0].eth[0].plca dataState:count 10
scalar MultidropNetwork.node[0].eth[0].plca controlState:count 569
scalar MultidropNetwork.node[0].eth[0].plca collision:count 2
scalar MultidropNetwork.node[0].eth[0].plca carrierSense:count 90
scalar MultidropNetwork.node[0].eth[0].phy busUsed:count 106
scalar MultidropNetwork.node[0].eth[0].phy busUtilization:count 1
scalar MultidropNetwork.node[0].eth[0].phy transmittedSignalType:count 8
scalar MultidropNetwork.node[0].eth[0].phy receivedSignalType:count 100
scalar MultidropNetwork.node[0].eth[0].phy state:count 156
scalar MultidropNetwork.node[0].eth[0] packetDropInterfaceDown:count 0
scalar MultidropNetwork.node[0].eth[0] packetDropInterfaceDown:sum(packetBytes) 0
scalar MultidropNetwork.node[0].eth[0] packetDropNoCarrier:count 0
scalar MultidropNetwork.node[0].eth[0] packetDropNoCarrier:sum(packetBytes) 0
scalar MultidropNetwork.node[0].app[0].source packets:count 1
scalar MultidropNetwork.node[0].app[0].source packetLengths:sum 368
scalar MultidropNetwork.node[0].app[0].io "packets sent" 1
scalar MultidropNetwork.node[0].app[0].io "packets received" 0
scalar MultidropNetwork.node[0].app[0].io packetReceived:count 0
scalar MultidropNetwork.node[0].app[0].io packetReceived:sum(packetBytes) 0
scalar MultidropNetwork.node[0].app[0].io packetSent:count 1
scalar MultidropNetwork.node[0].app[0].io packetSent:sum(packetBytes) 46
scalar MultidropNetwork.node[1].ethernet pauseSent:count 0
scalar MultidropNetwork.node[1].ethernet pauseSent:sum 0
scalar MultidropNetwork.node[1].ethernet decapPk:count 0
scalar MultidropNetwork.node[1].ethernet decapPk:sum(packetBytes) 0
scalar MultidropNetwork.node[1].ethernet encapPk:count 1
scalar MultidropNetwork.node[1].ethernet encapPk:sum(packetBytes) 46
scalar MultidropNetwork.node[1].eth[0].queue queueLength:last 0
scalar MultidropNetwork.node[1].eth[0].queue queueLength:max 0
scalar MultidropNetwork.node[1].eth[0].queue queueLength:timeavg 0
scalar MultidropNetwork.node[1].eth[0].queue queueBitLength:last 0
scalar MultidropNetwork.node[1].eth[0].queue queueBitLength:max 0
scalar MultidropNetwork.node[1].eth[0].queue queueBitLength:timeavg 0
scalar MultidropNetwork.node[1].eth[0].queue outgoingPackets:count 1
scalar MultidropNetwork.node[1].eth[0].queue outgoingPacketLengths:sum 512
scalar MultidropNetwork.node[1].eth[0].queue incomingPackets:count 1
scalar MultidropNetwork.node[1].eth[0].queue incomingPacketLengths:sum 512
scalar MultidropNetwork.node[1].eth[0].queue droppedPacketsQueueOverflow:count 0
scalar MultidropNetwork.node[1].eth[0].queue droppedPacketLengthsQueueOverflow:sum 0
scalar MultidropNetwork.node[1].eth[0].mac state:count 15
scalar MultidropNetwork.node[1].eth[0].mac collision:count 2
scalar MultidropNetwork.node[1].eth[0].mac carrierSense:count 10
scalar MultidropNetwork.node[1].eth[0].plca transmitOpportunityUsed:count 40
scalar MultidropNetwork.node[1].eth[0].plca packetInterval:count 0
scalar MultidropNetwork.node[1].eth[0].plca packetPendingDelay:count 1
scalar MultidropNetwork.node[1].eth[0].plca txCmd:count 5
scalar MultidropNetwork.node[1].eth[0].plca rxCmd:count 99
scalar MultidropNetwork.node[1].eth[0].plca dataState:count 27
scalar MultidropNetwork.node[1].eth[0].plca controlState:count 569
scalar MultidropNetwork.node[1].eth[0].plca collision:count 2
scalar MultidropNetwork.node[1].eth[0].plca carrierSense:count 90
scalar MultidropNetwork.node[1].eth[0].phy busUsed:count 106
scalar MultidropNetwork.node[1].eth[0].phy busUtilization:count 1
scalar MultidropNetwork.node[1].eth[0].phy transmittedSignalType:count 8
scalar MultidropNetwork.node[1].eth[0].phy receivedSignalType:count 100
scalar MultidropNetwork.node[1].eth[0].phy state:count 156
scalar MultidropNetwork.node[1].eth[0] packetDropInterfaceDown:count 0
scalar MultidropNetwork.node[1].eth[0] packetDropInterfaceDown:sum(packetBytes) 0
scalar MultidropNetwork.node[1].eth[0] packetDropNoCarrier:count 0
scalar MultidropNetwork.node[1].eth[0] packetDropNoCarrier:sum(packetBytes) 0
scalar MultidropNetwork.node[1].app[0].source packets:count 1
scalar MultidropNetwork.node[1].app[0].source packetLengths:sum 368
scalar MultidropNetwork.node[1].app[0].io "packets sent" 1
scalar MultidropNetwork.node[1].app[0].io "packets received" 0
scalar MultidropNetwork.node[1].app[0].io packetReceived:count 0
scalar MultidropNetwork.node[1].app[0].io packetReceived:sum(packetBytes) 0
scalar MultidropNetwork.node[1].app[0].io packetSent:count 1
scalar MultidropNetwork.node[1].app[0].io packetSent:sum(packetBytes) 46
scalar MultidropNetwork.node[2].ethernet pauseSent:count 0
scalar MultidropNetwork.node[2].ethernet pauseSent:sum 0
scalar MultidropNetwork.node[2].ethernet decapPk:count 0
scalar MultidropNetwork.node[2].ethernet decapPk:sum(packetBytes) 0
scalar MultidropNetwork.node[2].ethernet encapPk:count 1
scalar MultidropNetwork.node[2].ethernet encapPk:sum(packetBytes) 46
scalar MultidropNetwork.node[2].eth[0].queue queueLength:last 0
scalar MultidropNetwork.node[2].eth[0].queue queueLength:max 0
scalar MultidropNetwork.node[2].eth[0].queue queueLength:timeavg 0
scalar MultidropNetwork.node[2].eth[0].queue queueBitLength:last 0
scalar MultidropNetwork.node[2].eth[0].queue queueBitLength:max 0
scalar MultidropNetwork.node[2].eth[0].queue queueBitLength:timeavg 0
scalar MultidropNetwork.node[2].eth[0].queue outgoingPackets:count 1
scalar MultidropNetwork.node[2].eth[0].queue outgoingPacketLengths:sum 512
scalar MultidropNetwork.node[2].eth[0].queue incomingPackets:count 1
scalar MultidropNetwork.node[2].eth[0].queue incomingPacketLengths:sum 512
scalar MultidropNetwork.node[2].eth[0].queue droppedPacketsQueueOverflow:count 0
scalar MultidropNetwork.node[2].eth[0].queue droppedPacketLengthsQueueOverflow:sum 0
scalar MultidropNetwork.node[2].eth[0].mac state:count 15
scalar MultidropNetwork.node[2].eth[0].mac collision:count 2
scalar MultidropNetwork.node[2].eth[0].mac carrierSense:count 10
scalar MultidropNetwork.node[2].eth[0].plca transmitOpportunityUsed:count 40
scalar MultidropNetwork.node[2].eth[0].plca packetInterval:count 0
scalar MultidropNetwork.node[2].eth[0].plca packetPendingDelay:count 1
scalar MultidropNetwork.node[2].eth[0].plca txCmd:count 5
scalar MultidropNetwork.node[2].eth[0].plca rxCmd:count 99
scalar MultidropNetwork.node[2].eth[0].plca dataState:count 27
scalar MultidropNetwork.node[2].eth[0].plca controlState:count 569
scalar MultidropNetwork.node[2].eth[0].plca collision:count 2
scalar MultidropNetwork.node[2].eth[0].plca carrierSense:count 90
scalar MultidropNetwork.node[2].eth[0].phy busUsed:count 106
scalar MultidropNetwork.node[2].eth[0].phy busUtilization:count 1
scalar MultidropNetwork.node[2].eth[0].phy transmittedSignalType:count 8
scalar MultidropNetwork.node[2].eth[0].phy receivedSignalType:count 100
scalar MultidropNetwork.node[2].eth[0].phy state:count 156
scalar MultidropNetwork.node[2].eth[0] packetDropInterfaceDown:count 0
scalar MultidropNetwork.node[2].eth[0] packetDropInterfaceDown:sum(packetBytes) 0
scalar MultidropNetwork.node[2].eth[0] packetDropNoCarrier:count 0
scalar MultidropNetwork.node[2].eth[0] packetDropNoCarrier:sum(packetBytes) 0
scalar MultidropNetwork.node[2].app[0].source packets:count 1
scalar MultidropNetwork.node[2].app[0].source packetLengths:sum 368
scalar MultidropNetwork.node[2].app[0].io "packets sent" 1
scalar MultidropNetwork.node[2].app[0].io "packets received" 0
scalar MultidropNetwork.node[2].app[0].io packetReceived:count 0
scalar MultidropNetwork.node[2].app[0].io packetReceived:sum(packetBytes) 0
scalar MultidropNetwork.node[2].app[0].io packetSent:count 1
scalar MultidropNetwork.node[2].app[0].io packetSent:sum(packetBytes) 46
scalar MultidropNetwork.node[3].ethernet pauseSent:count 0
scalar MultidropNetwork.node[3].ethernet pauseSent:sum 0
scalar MultidropNetwork.node[3].ethernet decapPk:count 0
scalar MultidropNetwork.node[3].ethernet decapPk:sum(packetBytes) 0
scalar MultidropNetwork.node[3].ethernet encapPk:count 1
scalar MultidropNetwork.node[3].ethernet encapPk:sum(packetBytes) 46
scalar MultidropNetwork.node[3].eth[0].queue queueLength:last 0
scalar MultidropNetwork.node[3].eth[0].queue queueLength:max 0
scalar MultidropNetwork.node[3].eth[0].queue queueLength:timeavg 0
scalar MultidropNetwork.node[3].eth[0].queue queueBitLength:last 0
scalar MultidropNetwork.node[3].eth[0].queue queueBitLength:max 0
scalar MultidropNetwork.node[3].eth[0].queue queueBitLength:timeavg 0
scalar MultidropNetwork.node[3].eth[0].queue outgoingPackets:count 1
scalar MultidropNetwork.node[3].eth[0].queue outgoingPacketLengths:sum 512
scalar MultidropNetwork.node[3].eth[0].queue incomingPackets:count 1
scalar MultidropNetwork.node[3].eth[0].queue incomingPacketLengths:sum 512
scalar MultidropNetwork.node[3].eth[0].queue droppedPacketsQueueOverflow:count 0
scalar MultidropNetwork.node[3].eth[0].queue droppedPacketLengthsQueueOverflow:sum 0
scalar MultidropNetwork.node[3].eth[0].mac state:count 15
scalar MultidropNetwork.node[3].eth[0].mac collision:count 2
scalar MultidropNetwork.node[3].eth[0].mac carrierSense:count 10
scalar MultidropNetwork.node[3].eth[0].plca transmitOpportunityUsed:count 40
scalar MultidropNetwork.node[3].eth[0].plca packetInterval:count 0
scalar MultidropNetwork.node[3].eth[0].plca packetPendingDelay:count 1
scalar MultidropNetwork.node[3].eth[0].plca txCmd:count 5
scalar MultidropNetwork.node[3].eth[0].plca rxCmd:count 99
scalar MultidropNetwork.node[3].eth[0].plca dataState:count 27
scalar MultidropNetwork.node[3].eth[0].plca controlState:count 569
scalar MultidropNetwork.node[3].eth[0].plca collision:count 2
scalar MultidropNetwork.node[3].eth[0].plca carrierSense:count 90
scalar MultidropNetwork.node[3].eth[0].phy busUsed:count 106
scalar MultidropNetwork.node[3].eth[0].phy busUtilization:count 1
scalar MultidropNetwork.node[3].eth[0].phy transmittedSignalType:count 8
scalar MultidropNetwork.node[3].eth[0].phy receivedSignalType:count 100
scalar MultidropNetwork.node[3].eth[0].phy state:count 156
scalar MultidropNetwork.node[3].eth[0] packetDropInterfaceDown:count 0
scalar MultidropNetwork.node[3].eth[0] packetDropInterfaceDown:sum(packetBytes) 0
scalar MultidropNetwork.node[3].eth[0] packetDropNoCarrier:count 0
scalar MultidropNetwork.node[3].eth[0] packetDropNoCarrier:sum(packetBytes) 0
scalar MultidropNetwork.node[3].app[0].source packets:count 1
scalar MultidropNetwork.node[3].app[0].source packetLengths:sum 368
scalar MultidropNetwork.node[3].app[0].io "packets sent" 1
scalar MultidropNetwork.node[3].app[0].io "packets received" 0
scalar MultidropNetwork.node[3].app[0].io packetReceived:count 0
scalar MultidropNetwork.node[3].app[0].io packetReceived:sum(packetBytes) 0
scalar MultidropNetwork.node[3].app[0].io packetSent:count 1
scalar MultidropNetwork.node[3].app[0].io packetSent:sum(packetBytes) 46
scalar MultidropNetwork.j[0] packetReceived:count 60
scalar MultidropNetwork.j[0] packetReceived:sum(packetBytes) 1124
scalar MultidropNetwork.j[1] packetReceived:count 60
scalar MultidropNetwork.j[1] packetReceived:sum(packetBytes) 1124
scalar MultidropNetwork.j[2] packetReceived:count 60
scalar MultidropNetwork.j[2] packetReceived:sum(packetBytes) 1124
scalar MultidropNetwork.j[3] packetReceived:count 60
scalar MultidropNetwork.j[3] packetReceived:sum(packetBytes) 1124
scalar MultidropNetwork.controller.eth[0].queue queueingTime:histogram:count 0
scalar MultidropNetwork.controller.eth[0].queue queueingTime:histogram:sumweights 0
scalar MultidropNetwork.controller.eth[0].queue queueingTime:histogram:mean -nan
scalar MultidropNetwork.controller.eth[0].queue queueingTime:histogram:stddev nan
scalar MultidropNetwork.controller.eth[0].queue queueingTime:histogram:min nan
scalar MultidropNetwork.controller.eth[0].queue queueingTime:histogram:max nan
scalar MultidropNetwork.controller.eth[0].queue queueingTime:histogram:numbins 1
scalar MultidropNetwork.controller.eth[0].queue queueingTime:histogram:rangemin 0
scalar MultidropNetwork.controller.eth[0].queue queueingTime:histogram:rangemax 1
scalar MultidropNetwork.controller.eth[0].queue queueingTime:histogram:underflows 0
scalar MultidropNetwork.controller.eth[0].queue queueingTime:histogram:overflows 0
scalar MultidropNetwork.controller.eth[0].queue outgoingPacketLengths:histogram:count 0
scalar MultidropNetwork.controller.eth[0].queue outgoingPacketLengths:histogram:sumweights 0
scalar MultidropNetwork.controller.eth[0].queue outgoingPacketLengths:histogram:mean -nan
scalar MultidropNetwork.controller.eth[0].queue outgoingPacketLengths:histogram:stddev nan
scalar MultidropNetwork.controller.eth[0].queue outgoingPacketLengths:histogram:min nan
scalar MultidropNetwork.controller.eth[0].queue outgoingPacketLengths:histogram:max nan
scalar MultidropNetwork.controller.eth[0].queue outgoingPacketLengths:histogram:numbins 1
scalar MultidropNetwork.controller.eth[0].queue outgoingPacketLengths:histogram:rangemin 0
scalar MultidropNetwork.controller.eth[0].queue outgoingPacketLengths:histogram:rangemax 1
scalar MultidropNetwork.controller.eth[0].queue outgoingPacketLengths:histogram:underflows 0
scalar MultidropNetwork.controller.eth[0].queue outgoingPacketLengths:histogram:overflows 0
scalar MultidropNetwork.controller.eth[0].queue flowQueueingTime:histogram:count 0
scalar MultidropNetwork.controller.eth[0].queue flowQueueingTime:histogram:sumweights 0
scalar MultidropNetwork.controller.eth[0].queue flowQueueingTime:histogram:mean -nan
scalar MultidropNetwork.controller.eth[0].queue flowQueueingTime:histogram:stddev nan
scalar MultidropNetwork.controller.eth[0].queue flowQueueingTime:histogram:min nan
scalar MultidropNetwork.controller.eth[0].queue flowQueueingTime:histogram:max nan
scalar MultidropNetwork.controller.eth[0].queue flowQueueingTime:histogram:numbins 1
scalar MultidropNetwork.controller.eth[0].queue flowQueueingTime:histogram:rangemin 0
scalar MultidropNetwork.controller.eth[0].queue flowQueueingTime:histogram:rangemax 1
scalar MultidropNetwork.controller.eth[0].queue flowQueueingTime:histogram:underflows 0
scalar MultidropNetwork.controller.eth[0].queue flowQueueingTime:histogram:overflows 0
scalar MultidropNetwork.controller.eth[0].queue incomingPacketLengths:histogram:count 0
scalar MultidropNetwork.controller.eth[0].queue incomingPacketLengths:histogram:sumweights 0
scalar MultidropNetwork.controller.eth[0].queue incomingPacketLengths:histogram:mean -nan
scalar MultidropNetwork.controller.eth[0].queue incomingPacketLengths:histogram:stddev nan
scalar MultidropNetwork.controller.eth[0].queue incomingPacketLengths:histogram:min nan
scalar MultidropNetwork.controller.eth[0].queue incomingPacketLengths:histogram:max nan
scalar MultidropNetwork.controller.eth[0].queue incomingPacketLengths:histogram:numbins 1
scalar MultidropNetwork.controller.eth[0].queue incomingPacketLengths:histogram:rangemin 0
scalar MultidropNetwork.controller.eth[0].queue incomingPacketLengths:histogram:rangemax 1
scalar MultidropNetwork.controller.eth[0].queue incomingPacketLengths:histogram:underflows 0
scalar MultidropNetwork.controller.eth[0].queue incomingPacketLengths:histogram:overflows 0
scalar MultidropNetwork.controller.eth[0].plca packetInterval:histogram:count 0
scalar MultidropNetwork.controller.eth[0].plca packetInterval:histogram:sumweights 0
scalar MultidropNetwork.controller.eth[0].plca packetInterval:histogram:mean -nan
scalar MultidropNetwork.controller.eth[0].plca packetInterval:histogram:stddev nan
scalar MultidropNetwork.controller.eth[0].plca packetInterval:histogram:min nan
scalar MultidropNetwork.controller.eth[0].plca packetInterval:histogram:max nan
scalar MultidropNetwork.controller.eth[0].plca packetInterval:histogram:numbins 1
scalar MultidropNetwork.controller.eth[0].plca packetInterval:histogram:rangemin 0
scalar MultidropNetwork.controller.eth[0].plca packetInterval:histogram:rangemax 1
scalar MultidropNetwork.controller.eth[0].plca packetInterval:histogram:underflows 0
scalar MultidropNetwork.controller.eth[0].plca packetInterval:histogram:overflows 0
scalar MultidropNetwork.controller.eth[0].plca packetPendingDelay:histogram:count 0
scalar MultidropNetwork.controller.eth[0].plca packetPendingDelay:histogram:sumweights 0
scalar MultidropNetwork.controller.eth[0].plca packetPendingDelay:histogram:mean -nan
scalar MultidropNetwork.controller.eth[0].plca packetPendingDelay:histogram:stddev nan
scalar MultidropNetwork.controller.eth[0].plca packetPendingDelay:histogram:min nan
scalar MultidropNetwork.controller.eth[0].plca packetPendingDelay:histogram:max nan
scalar MultidropNetwork.controller.eth[0].plca packetPendingDelay:histogram:numbins 1
scalar MultidropNetwork.controller.eth[0].plca packetPendingDelay:histogram:rangemin 0
scalar MultidropNetwork.controller.eth[0].plca packetPendingDelay:histogram:rangemax 1
scalar MultidropNetwork.controller.eth[0].plca packetPendingDelay:histogram:underflows 0
scalar MultidropNetwork.controller.eth[0].plca packetPendingDelay:histogram:overflows 0
scalar MultidropNetwork.controller.eth[0].phy throughput:histogram:count 1
scalar MultidropNetwork.controller.eth[0].phy throughput:histogram:sumweights 1
scalar MultidropNetwork.controller.eth[0].phy throughput:histogram:mean 800000
scalar MultidropNetwork.controller.eth[0].phy throughput:histogram:stddev nan
scalar MultidropNetwork.controller.eth[0].phy throughput:histogram:min 800000
scalar MultidropNetwork.controller.eth[0].phy throughput:histogram:max 800000
scalar MultidropNetwork.controller.eth[0].phy throughput:histogram:numbins 2
scalar MultidropNetwork.controller.eth[0].phy throughput:histogram:rangemin 799999
scalar MultidropNetwork.controller.eth[0].phy throughput:histogram:rangemax 800001
scalar MultidropNetwork.controller.eth[0].phy throughput:histogram:underflows 0
scalar MultidropNetwork.controller.eth[0].phy throughput:histogram:overflows 0
scalar MultidropNetwork.controller.eth[0].phy transmissionTime:histogram:count 40
scalar MultidropNetwork.controller.eth[0].phy transmissionTime:histogram:sumweights 40
scalar MultidropNetwork.controller.eth[0].phy transmissionTime:histogram:mean 2e-06
scalar MultidropNetwork.controller.eth[0].phy transmissionTime:histogram:stddev 0
scalar MultidropNetwork.controller.eth[0].phy transmissionTime:histogram:min 2e-06
scalar MultidropNetwork.controller.eth[0].phy transmissionTime:histogram:max 2e-06
scalar MultidropNetwork.controller.eth[0].phy transmissionTime:histogram:numbins 51
scalar MultidropNetwork.controller.eth[0].phy transmissionTime:histogram:rangemin 0
scalar MultidropNetwork.controller.eth[0].phy transmissionTime:histogram:rangemax 0.51
scalar MultidropNetwork.controller.eth[0].phy transmissionTime:histogram:underflows 0
scalar MultidropNetwork.controller.eth[0].phy transmissionTime:histogram:overflows 0
scalar MultidropNetwork.controller.app[0].sink packetLengths:histogram:count 4
scalar MultidropNetwork.controller.app[0].sink packetLengths:histogram:sumweights 4
scalar MultidropNetwork.controller.app[0].sink packetLengths:histogram:mean 368
scalar MultidropNetwork.controller.app[0].sink packetLengths:histogram:stddev 0
scalar MultidropNetwork.controller.app[0].sink packetLengths:histogram:min 368
scalar MultidropNetwork.controller.app[0].sink packetLengths:histogram:max 368
scalar MultidropNetwork.controller.app[0].sink packetLengths:histogram:numbins 2
scalar MultidropNetwork.controller.app[0].sink packetLengths:histogram:rangemin 367
scalar MultidropNetwork.controller.app[0].sink packetLengths:histogram:rangemax 369
scalar MultidropNetwork.controller.app[0].sink packetLengths:histogram:underflows 0
scalar MultidropNetwork.controller.app[0].sink packetLengths:histogram:overflows 0
scalar MultidropNetwork.controller.app[0].sink meanBitLifeTimePerPacket:histogram:count 4
scalar MultidropNetwork.controller.app[0].sink meanBitLifeTimePerPacket:histogram:sumweights 4
scalar MultidropNetwork.controller.app[0].sink meanBitLifeTimePerPacket:histogram:mean 0.00011632874975
scalar MultidropNetwork.controller.app[0].sink meanBitLifeTimePerPacket:histogram:stddev 0.00011582249957195
scalar MultidropNetwork.controller.app[0].sink meanBitLifeTimePerPacket:histogram:min 5.84125e-05
scalar MultidropNetwork.controller.app[0].sink meanBitLifeTimePerPacket:histogram:max 0.000290062499
scalar MultidropNetwork.controller.app[0].sink meanBitLifeTimePerPacket:histogram:numbins 70
scalar MultidropNetwork.controller.app[0].sink meanBitLifeTimePerPacket:histogram:rangemin 0
scalar MultidropNetwork.controller.app[0].sink meanBitLifeTimePerPacket:histogram:rangemax 0.00035
scalar MultidropNetwork.controller.app[0].sink meanBitLifeTimePerPacket:histogram:underflows 0
scalar MultidropNetwork.controller.app[0].sink meanBitLifeTimePerPacket:histogram:overflows 0
scalar MultidropNetwork.controller.app[0].sink packetLifeTime:histogram:count 4
scalar MultidropNetwork.controller.app[0].sink packetLifeTime:histogram:sumweights 4
scalar MultidropNetwork.controller.app[0].sink packetLifeTime:histogram:mean 0.00011632874975
scalar MultidropNetwork.controller.app[0].sink packetLifeTime:histogram:stddev 0.00011582249957195
scalar MultidropNetwork.controller.app[0].sink packetLifeTime:histogram:min 5.84125e-05
scalar MultidropNetwork.controller.app[0].sink packetLifeTime:histogram:max 0.000290062499
scalar MultidropNetwork.controller.app[0].sink packetLifeTime:histogram:numbins 70
scalar MultidropNetwork.controller.app[0].sink packetLifeTime:histogram:rangemin 0
scalar MultidropNetwork.controller.app[0].sink packetLifeTime:histogram:rangemax 0.00035
scalar MultidropNetwork.controller.app[0].sink packetLifeTime:histogram:underflows 0
scalar MultidropNetwork.controller.app[0].sink packetLifeTime:histogram:overflows 0
scalar MultidropNetwork.controller.app[0].sink packetJitter:histogram:count 4
scalar MultidropNetwork.controller.app[0].sink packetJitter:histogram:sumweights 4
scalar MultidropNetwork.controller.app[0].sink packetJitter:histogram:mean 7.251562475e-05
scalar MultidropNetwork.controller.app[0].sink packetJitter:histogram:stddev 0.00010959781933877
scalar MultidropNetwork.controller.app[0].sink packetJitter:histogram:min 4.9999999999839e-09
scalar MultidropNetwork.controller.app[0].sink packetJitter:histogram:max 0.000231639999
scalar MultidropNetwork.controller.app[0].sink packetJitter:histogram:numbins 58
scalar MultidropNetwork.controller.app[0].sink packetJitter:histogram:rangemin 0
scalar MultidropNetwork.controller.app[0].sink packetJitter:histogram:rangemax 0.00029
scalar MultidropNetwork.controller.app[0].sink packetJitter:histogram:underflows 0
scalar MultidropNetwork.controller.app[0].sink packetJitter:histogram:overflows 0
scalar MultidropNetwork.controller.app[0].sink packetDelayDifferenceToMean:histogram:count 4
scalar MultidropNetwork.controller.app[0].sink packetDelayDifferenceToMean:histogram:sumweights 4
scalar MultidropNetwork.controller.app[0].sink packetDelayDifferenceToMean:histogram:mean -4.34353123125e-05
scalar MultidropNetwork.controller.app[0].sink packetDelayDifferenceToMean:histogram:stddev 8.6865624648984e-05
scalar MultidropNetwork.controller.app[0].sink packetDelayDifferenceToMean:histogram:min -0.00017373374925
scalar MultidropNetwork.controller.app[0].sink packetDelayDifferenceToMean:histogram:max 0
scalar MultidropNetwork.controller.app[0].sink packetDelayDifferenceToMean:histogram:numbins 53
scalar MultidropNetwork.controller.app[0].sink packetDelayDifferenceToMean:histogram:rangemin -0.00022
scalar MultidropNetwork.controller.app[0].sink packetDelayDifferenceToMean:histogram:rangemax 4.5e-05
scalar MultidropNetwork.controller.app[0].sink packetDelayDifferenceToMean:histogram:underflows 0
scalar MultidropNetwork.controller.app[0].sink packetDelayDifferenceToMean:histogram:overflows 0
scalar MultidropNetwork.controller.app[0].sink packetDelayVariation:histogram:count 4
scalar MultidropNetwork.controller.app[0].sink packetDelayVariation:histogram:sumweights 4
scalar MultidropNetwork.controller.app[0].sink packetDelayVariation:histogram:mean 2.5077952434508e-05
scalar MultidropNetwork.controller.app[0].sink packetDelayVariation:histogram:stddev 5.0151516575116e-05
scalar MultidropNetwork.controller.app[0].sink packetDelayVariation:histogram:min 0
scalar MultidropNetwork.controller.app[0].sink packetDelayVariation:histogram:max 0.00010030522725494
scalar MultidropNetwork.controller.app[0].sink packetDelayVariation:histogram:numbins 63
scalar MultidropNetwork.controller.app[0].sink packetDelayVariation:histogram:rangemin 0
scalar MultidropNetwork.controller.app[0].sink packetDelayVariation:histogram:rangemax 0.000126
scalar MultidropNetwork.controller.app[0].sink packetDelayVariation:histogram:underflows 0
scalar MultidropNetwork.controller.app[0].sink packetDelayVariation:histogram:overflows 0
scalar MultidropNetwork.controller.app[0].sink droppedPacketLengths:histogram:count 4
scalar MultidropNetwork.controller.app[0].sink droppedPacketLengths:histogram:sumweights 4
scalar MultidropNetwork.controller.app[0].sink droppedPacketLengths:histogram:mean 368
scalar MultidropNetwork.controller.app[0].sink droppedPacketLengths:histogram:stddev 0
scalar MultidropNetwork.controller.app[0].sink droppedPacketLengths:histogram:min 368
scalar MultidropNetwork.controller.app[0].sink droppedPacketLengths:histogram:max 368
scalar MultidropNetwork.controller.app[0].sink droppedPacketLengths:histogram:numbins 2
scalar MultidropNetwork.controller.app[0].sink droppedPacketLengths:histogram:rangemin 367
scalar MultidropNetwork.controller.app[0].sink droppedPacketLengths:histogram:rangemax 369
scalar MultidropNetwork.controller.app[0].sink droppedPacketLengths:histogram:underflows 0
scalar MultidropNetwork.controller.app[0].sink droppedPacketLengths:histogram:overflows 0
scalar MultidropNetwork.node[0].eth[0].queue queueingTime:histogram:count 1
scalar MultidropNetwork.node[0].eth[0].queue queueingTime:histogram:sumweights 1
scalar MultidropNetwork.node[0].eth[0].queue queueingTime:histogram:mean 0
scalar MultidropNetwork.node[0].eth[0].queue queueingTime:histogram:stddev nan
scalar MultidropNetwork.node[0].eth[0].queue queueingTime:histogram:min 0
scalar MultidropNetwork.node[0].eth[0].queue queueingTime:histogram:max 0
scalar MultidropNetwork.node[0].eth[0].queue queueingTime:histogram:numbins 50
scalar MultidropNetwork.node[0].eth[0].queue queueingTime:histogram:rangemin -0.5
scalar MultidropNetwork.node[0].eth[0].queue queueingTime:histogram:rangemax 0.5
scalar MultidropNetwork.node[0].eth[0].queue queueingTime:histogram:underflows 0
scalar MultidropNetwork.node[0].eth[0].queue queueingTime:histogram:overflows 0
scalar MultidropNetwork.node[0].eth[0].queue outgoingPacketLengths:histogram:count 1
scalar MultidropNetwork.node[0].eth[0].queue outgoingPacketLengths:histogram:sumweights 1
scalar MultidropNetwork.node[0].eth[0].queue outgoingPacketLengths:histogram:mean 512
scalar MultidropNetwork.node[0].eth[0].queue outgoingPacketLengths:histogram:stddev nan
scalar MultidropNetwork.node[0].eth[0].queue outgoingPacketLengths:histogram:min 512
scalar MultidropNetwork.node[0].eth[0].queue outgoingPacketLengths:histogram:max 512
scalar MultidropNetwork.node[0].eth[0].queue outgoingPacketLengths:histogram:numbins 2
scalar MultidropNetwork.node[0].eth[0].queue outgoingPacketLengths:histogram:rangemin 511
scalar MultidropNetwork.node[0].eth[0].queue outgoingPacketLengths:histogram:rangemax 513
scalar MultidropNetwork.node[0].eth[0].queue outgoingPacketLengths:histogram:underflows 0
scalar MultidropNetwork.node[0].eth[0].queue outgoingPacketLengths:histogram:overflows 0
scalar MultidropNetwork.node[0].eth[0].queue flowQueueingTime:histogram:count 0
scalar MultidropNetwork.node[0].eth[0].queue flowQueueingTime:histogram:sumweights 0
scalar MultidropNetwork.node[0].eth[0].queue flowQueueingTime:histogram:mean -nan
scalar MultidropNetwork.node[0].eth[0].queue flowQueueingTime:histogram:stddev nan
scalar MultidropNetwork.node[0].eth[0].queue flowQueueingTime:histogram:min nan
scalar MultidropNetwork.node[0].eth[0].queue flowQueueingTime:histogram:max nan
scalar MultidropNetwork.node[0].eth[0].queue flowQueueingTime:histogram:numbins 1
scalar MultidropNetwork.node[0].eth[0].queue flowQueueingTime:histogram:rangemin 0
scalar MultidropNetwork.node[0].eth[0].queue flowQueueingTime:histogram:rangemax 1
scalar MultidropNetwork.node[0].eth[0].queue flowQueueingTime:histogram:underflows 0
scalar MultidropNetwork.node[0].eth[0].queue flowQueueingTime:histogram:overflows 0
scalar MultidropNetwork.node[0].eth[0].queue incomingPacketLengths:histogram:count 1
scalar MultidropNetwork.node[0].eth[0].queue incomingPacketLengths:histogram:sumweights 1
scalar MultidropNetwork.node[0].eth[0].queue incomingPacketLengths:histogram:mean 512
scalar MultidropNetwork.node[0].eth[0].queue incomingPacketLengths:histogram:stddev nan
scalar MultidropNetwork.node[0].eth[0].queue incomingPacketLengths:histogram:min 512
scalar MultidropNetwork.node[0].eth[0].queue incomingPacketLengths:histogram:max 512
scalar MultidropNetwork.node[0].eth[0].queue incomingPacketLengths:histogram:numbins 2
scalar MultidropNetwork.node[0].eth[0].queue incomingPacketLengths:histogram:rangemin 511
scalar MultidropNetwork.node[0].eth[0].queue incomingPacketLengths:histogram:rangemax 513
scalar MultidropNetwork.node[0].eth[0].queue incomingPacketLengths:histogram:underflows 0
scalar MultidropNetwork.node[0].eth[0].queue incomingPacketLengths:histogram:overflows 0
scalar MultidropNetwork.node[0].eth[0].plca packetInterval:histogram:count 0
scalar MultidropNetwork.node[0].eth[0].plca packetInterval:histogram:sumweights 0
scalar MultidropNetwork.node[0].eth[0].plca packetInterval:histogram:mean -nan
scalar MultidropNetwork.node[0].eth[0].plca packetInterval:histogram:stddev nan
scalar MultidropNetwork.node[0].eth[0].plca packetInterval:histogram:min nan
scalar MultidropNetwork.node[0].eth[0].plca packetInterval:histogram:max nan
scalar MultidropNetwork.node[0].eth[0].plca packetInterval:histogram:numbins 1
scalar MultidropNetwork.node[0].eth[0].plca packetInterval:histogram:rangemin 0
scalar MultidropNetwork.node[0].eth[0].plca packetInterval:histogram:rangemax 1
scalar MultidropNetwork.node[0].eth[0].plca packetInterval:histogram:underflows 0
scalar MultidropNetwork.node[0].eth[0].plca packetInterval:histogram:overflows 0
scalar MultidropNetwork.node[0].eth[0].plca packetPendingDelay:histogram:count 1
scalar MultidropNetwork.node[0].eth[0].plca packetPendingDelay:histogram:sumweights 1
scalar MultidropNetwork.node[0].eth[0].plca packetPendingDelay:histogram:mean 0.000231654999
scalar MultidropNetwork.node[0].eth[0].plca packetPendingDelay:histogram:stddev nan
scalar MultidropNetwork.node[0].eth[0].plca packetPendingDelay:histogram:min 0.000231654999
scalar MultidropNetwork.node[0].eth[0].plca packetPendingDelay:histogram:max 0.000231654999
scalar MultidropNetwork.node[0].eth[0].plca packetPendingDelay:histogram:numbins 51
scalar MultidropNetwork.node[0].eth[0].plca packetPendingDelay:histogram:rangemin 0
scalar MultidropNetwork.node[0].eth[0].plca packetPendingDelay:histogram:rangemax 0.51
scalar MultidropNetwork.node[0].eth[0].plca packetPendingDelay:histogram:underflows 0
scalar MultidropNetwork.node[0].eth[0].plca packetPendingDelay:histogram:overflows 0
scalar MultidropNetwork.node[0].eth[0].phy throughput:histogram:count 1
scalar MultidropNetwork.node[0].eth[0].phy throughput:histogram:sumweights 1
scalar MultidropNetwork.node[0].eth[0].phy throughput:histogram:mean 800000
scalar MultidropNetwork.node[0].eth[0].phy throughput:histogram:stddev nan
scalar MultidropNetwork.node[0].eth[0].phy throughput:histogram:min 800000
scalar MultidropNetwork.node[0].eth[0].phy throughput:histogram:max 800000
scalar MultidropNetwork.node[0].eth[0].phy throughput:histogram:numbins 2
scalar MultidropNetwork.node[0].eth[0].phy throughput:histogram:rangemin 799999
scalar MultidropNetwork.node[0].eth[0].phy throughput:histogram:rangemax 800001
scalar MultidropNetwork.node[0].eth[0].phy throughput:histogram:underflows 0
scalar MultidropNetwork.node[0].eth[0].phy throughput:histogram:overflows 0
scalar MultidropNetwork.node[0].eth[0].phy transmissionTime:histogram:count 3
scalar MultidropNetwork.node[0].eth[0].phy transmissionTime:histogram:sumweights 3
scalar MultidropNetwork.node[0].eth[0].phy transmissionTime:histogram:mean 2.6933333333333e-05
scalar MultidropNetwork.node[0].eth[0].phy transmissionTime:histogram:stddev 2.7297863164236e-05
scalar MultidropNetwork.node[0].eth[0].phy transmissionTime:histogram:min 9.6e-06
scalar MultidropNetwork.node[0].eth[0].phy transmissionTime:histogram:max 5.84e-05
scalar MultidropNetwork.node[0].eth[0].phy transmissionTime:histogram:numbins 71
scalar MultidropNetwork.node[0].eth[0].phy transmissionTime:histogram:rangemin 0
scalar MultidropNetwork.node[0].eth[0].phy transmissionTime:histogram:rangemax 7.1e-05
scalar MultidropNetwork.node[0].eth[0].phy transmissionTime:histogram:underflows 0
scalar MultidropNetwork.node[0].eth[0].phy transmissionTime:histogram:overflows 0
scalar MultidropNetwork.node[0].app[0].source packetLengths:histogram:count 1
scalar MultidropNetwork.node[0].app[0].source packetLengths:histogram:sumweights 1
scalar MultidropNetwork.node[0].app[0].source packetLengths:histogram:mean 368
scalar MultidropNetwork.node[0].app[0].source packetLengths:histogram:stddev nan
scalar MultidropNetwork.node[0].app[0].source packetLengths:histogram:min 368
scalar MultidropNetwork.node[0].app[0].source packetLengths:histogram:max 368
scalar MultidropNetwork.node[0].app[0].source packetLengths:histogram:numbins 2
scalar MultidropNetwork.node[0].app[0].source packetLengths:histogram:rangemin 367
scalar MultidropNetwork.node[0].app[0].source packetLengths:histogram:rangemax 369
scalar MultidropNetwork.node[0].app[0].source packetLengths:histogram:underflows 0
scalar MultidropNetwork.node[0].app[0].source packetLengths:histogram:overflows 0
scalar MultidropNetwork.node[1].eth[0].queue queueingTime:histogram:count 1
scalar MultidropNetwork.node[1].eth[0].queue queueingTime:histogram:sumweights 1
scalar MultidropNetwork.node[1].eth[0].queue queueingTime:histogram:mean 0
scalar MultidropNetwork.node[1].eth[0].queue queueingTime:histogram:stddev nan
scalar MultidropNetwork.node[1].eth[0].queue queueingTime:histogram:min 0
scalar MultidropNetwork.node[1].eth[0].queue queueingTime:histogram:max 0
scalar MultidropNetwork.node[1].eth[0].queue queueingTime:histogram:numbins 50
scalar MultidropNetwork.node[1].eth[0].queue queueingTime:histogram:rangemin -0.5
scalar MultidropNetwork.node[1].eth[0].queue queueingTime:histogram:rangemax 0.5
scalar MultidropNetwork.node[1].eth[0].queue queueingTime:histogram:underflows 0
scalar MultidropNetwork.node[1].eth[0].queue queueingTime:histogram:overflows 0
scalar MultidropNetwork.node[1].eth[0].queue outgoingPacketLengths:histogram:count 1
scalar MultidropNetwork.node[1].eth[0].queue outgoingPacketLengths:histogram:sumweights 1
scalar MultidropNetwork.node[1].eth[0].queue outgoingPacketLengths:histogram:mean 512
scalar MultidropNetwork.node[1].eth[0].queue outgoingPacketLengths:histogram:stddev nan
scalar MultidropNetwork.node[1].eth[0].queue outgoingPacketLengths:histogram:min 512
scalar MultidropNetwork.node[1].eth[0].queue outgoingPacketLengths:histogram:max 512
scalar MultidropNetwork.node[1].eth[0].queue outgoingPacketLengths:histogram:numbins 2
scalar MultidropNetwork.node[1].eth[0].queue outgoingPacketLengths:histogram:rangemin 511
scalar MultidropNetwork.node[1].eth[0].queue outgoingPacketLengths:histogram:rangemax 513
scalar MultidropNetwork.node[1].eth[0].queue outgoingPacketLengths:histogram:underflows 0
scalar MultidropNetwork.node[1].eth[0].queue outgoingPacketLengths:histogram:overflows 0
scalar MultidropNetwork.node[1].eth[0].queue flowQueueingTime:histogram:count 0
scalar MultidropNetwork.node[1].eth[0].queue flowQueueingTime:histogram:sumweights 0
scalar MultidropNetwork.node[1].eth[0].queue flowQueueingTime:histogram:mean -nan
scalar MultidropNetwork.node[1].eth[0].queue flowQueueingTime:histogram:stddev nan
scalar MultidropNetwork.node[1].eth[0].queue flowQueueingTime:histogram:min nan
scalar MultidropNetwork.node[1].eth[0].queue flowQueueingTime:histogram:max nan
scalar MultidropNetwork.node[1].eth[0].queue flowQueueingTime:histogram:numbins 1
scalar MultidropNetwork.node[1].eth[0].queue flowQueueingTime:histogram:rangemin 0
scalar MultidropNetwork.node[1].eth[0].queue flowQueueingTime:histogram:rangemax 1
scalar MultidropNetwork.node[1].eth[0].queue flowQueueingTime:histogram:underflows 0
scalar MultidropNetwork.node[1].eth[0].queue flowQueueingTime:histogram:overflows 0
scalar MultidropNetwork.node[1].eth[0].queue incomingPacketLengths:histogram:count 1
scalar MultidropNetwork.node[1].eth[0].queue incomingPacketLengths:histogram:sumweights 1
scalar MultidropNetwork.node[1].eth[0].queue incomingPacketLengths:histogram:mean 512
scalar MultidropNetwork.node[1].eth[0].queue incomingPacketLengths:histogram:stddev nan
scalar MultidropNetwork.node[1].eth[0].queue incomingPacketLengths:histogram:min 512
scalar MultidropNetwork.node[1].eth[0].queue incomingPacketLengths:histogram:max 512
scalar MultidropNetwork.node[1].eth[0].queue incomingPacketLengths:histogram:numbins 2
scalar MultidropNetwork.node[1].eth[0].queue incomingPacketLengths:histogram:rangemin 511
scalar MultidropNetwork.node[1].eth[0].queue incomingPacketLengths:histogram:rangemax 513
scalar MultidropNetwork.node[1].eth[0].queue incomingPacketLengths:histogram:underflows 0
scalar MultidropNetwork.node[1].eth[0].queue incomingPacketLengths:histogram:overflows 0
scalar MultidropNetwork.node[1].eth[0].plca packetInterval:histogram:count 0
scalar MultidropNetwork.node[1].eth[0].plca packetInterval:histogram:sumweights 0
scalar MultidropNetwork.node[1].eth[0].plca packetInterval:histogram:mean -nan
scalar MultidropNetwork.node[1].eth[0].plca packetInterval:histogram:stddev nan
scalar MultidropNetwork.node[1].eth[0].plca packetInterval:histogram:min nan
scalar MultidropNetwork.node[1].eth[0].plca packetInterval:histogram:max nan
scalar MultidropNetwork.node[1].eth[0].plca packetInterval:histogram:numbins 1
scalar MultidropNetwork.node[1].eth[0].plca packetInterval:histogram:rangemin 0
scalar MultidropNetwork.node[1].eth[0].plca packetInterval:histogram:rangemax 1
scalar MultidropNetwork.node[1].eth[0].plca packetInterval:histogram:underflows 0
scalar MultidropNetwork.node[1].eth[0].plca packetInterval:histogram:overflows 0
scalar MultidropNetwork.node[1].eth[0].plca packetPendingDelay:histogram:count 1
scalar MultidropNetwork.node[1].eth[0].plca packetPendingDelay:histogram:sumweights 1
scalar MultidropNetwork.node[1].eth[0].plca packetPendingDelay:histogram:mean 0
scalar MultidropNetwork.node[1].eth[0].plca packetPendingDelay:histogram:stddev nan
scalar MultidropNetwork.node[1].eth[0].plca packetPendingDelay:histogram:min 0
scalar MultidropNetwork.node[1].eth[0].plca packetPendingDelay:histogram:max 0
scalar MultidropNetwork.node[1].eth[0].plca packetPendingDelay:histogram:numbins 50
scalar MultidropNetwork.node[1].eth[0].plca packetPendingDelay:histogram:rangemin -0.5
scalar MultidropNetwork.node[1].eth[0].plca packetPendingDelay:histogram:rangemax 0.5
scalar MultidropNetwork.node[1].eth[0].plca packetPendingDelay:histogram:underflows 0
scalar MultidropNetwork.node[1].eth[0].plca packetPendingDelay:histogram:overflows 0
scalar MultidropNetwork.node[1].eth[0].phy throughput:histogram:count 1
scalar MultidropNetwork.node[1].eth[0].phy throughput:histogram:sumweights 1
scalar MultidropNetwork.node[1].eth[0].phy throughput:histogram:mean 704000
scalar MultidropNetwork.node[1].eth[0].phy throughput:histogram:stddev nan
scalar MultidropNetwork.node[1].eth[0].phy throughput:histogram:min 704000
scalar MultidropNetwork.node[1].eth[0].phy throughput:histogram:max 704000
scalar MultidropNetwork.node[1].eth[0].phy throughput:histogram:numbins 2
scalar MultidropNetwork.node[1].eth[0].phy throughput:histogram:rangemin 703999
scalar MultidropNetwork.node[1].eth[0].phy throughput:histogram:rangemax 704001
scalar MultidropNetwork.node[1].eth[0].phy throughput:histogram:underflows 0
scalar MultidropNetwork.node[1].eth[0].phy throughput:histogram:overflows 0
scalar MultidropNetwork.node[1].eth[0].phy transmissionTime:histogram:count 3
scalar MultidropNetwork.node[1].eth[0].phy transmissionTime:histogram:sumweights 3
scalar MultidropNetwork.node[1].eth[0].phy transmissionTime:histogram:mean 2.3733333333333e-05
scalar MultidropNetwork.node[1].eth[0].phy transmissionTime:histogram:stddev 3.0696796792717e-05
scalar MultidropNetwork.node[1].eth[0].phy transmissionTime:histogram:min 0
scalar MultidropNetwork.node[1].eth[0].phy transmissionTime:histogram:max 5.84e-05
scalar MultidropNetwork.node[1].eth[0].phy transmissionTime:histogram:numbins 73
scalar MultidropNetwork.node[1].eth[0].phy transmissionTime:histogram:rangemin 0
scalar MultidropNetwork.node[1].eth[0].phy transmissionTime:histogram:rangemax 7.3e-05
scalar MultidropNetwork.node[1].eth[0].phy transmissionTime:histogram:underflows 0
scalar MultidropNetwork.node[1].eth[0].phy transmissionTime:histogram:overflows 0
scalar MultidropNetwork.node[1].app[0].source packetLengths:histogram:count 1
scalar MultidropNetwork.node[1].app[0].source packetLengths:histogram:sumweights 1
scalar MultidropNetwork.node[1].app[0].source packetLengths:histogram:mean 368
scalar MultidropNetwork.node[1].app[0].source packetLengths:histogram:stddev nan
scalar MultidropNetwork.node[1].app[0].source packetLengths:histogram:min 368
scalar MultidropNetwork.node[1].app[0].source packetLengths:histogram:max 368
scalar MultidropNetwork.node[1].app[0].source packetLengths:histogram:numbins 2
scalar MultidropNetwork.node[1].app[0].source packetLengths:histogram:rangemin 367
scalar MultidropNetwork.node[1].app[0].source packetLengths:histogram:rangemax 369
scalar MultidropNetwork.node[1].app[0].source packetLengths:histogram:underflows 0
scalar MultidropNetwork.node[1].app[0].source packetLengths:histogram:overflows 0
scalar MultidropNetwork.node[2].eth[0].queue queueingTime:histogram:count 1
scalar MultidropNetwork.node[2].eth[0].queue queueingTime:histogram:sumweights 1
scalar MultidropNetwork.node[2].eth[0].queue queueingTime:histogram:mean 0
scalar MultidropNetwork.node[2].eth[0].queue queueingTime:histogram:stddev nan
scalar MultidropNetwork.node[2].eth[0].queue queueingTime:histogram:min 0
scalar MultidropNetwork.node[2].eth[0].queue queueingTime:histogram:max 0
scalar MultidropNetwork.node[2].eth[0].queue queueingTime:histogram:numbins 50
scalar MultidropNetwork.node[2].eth[0].queue queueingTime:histogram:rangemin -0.5
scalar MultidropNetwork.node[2].eth[0].queue queueingTime:histogram:rangemax 0.5
scalar MultidropNetwork.node[2].eth[0].queue queueingTime:histogram:underflows 0
scalar MultidropNetwork.node[2].eth[0].queue queueingTime:histogram:overflows 0
scalar MultidropNetwork.node[2].eth[0].queue outgoingPacketLengths:histogram:count 1
scalar MultidropNetwork.node[2].eth[0].queue outgoingPacketLengths:histogram:sumweights 1
scalar MultidropNetwork.node[2].eth[0].queue outgoingPacketLengths:histogram:mean 512
scalar MultidropNetwork.node[2].eth[0].queue outgoingPacketLengths:histogram:stddev nan
scalar MultidropNetwork.node[2].eth[0].queue outgoingPacketLengths:histogram:min 512
scalar MultidropNetwork.node[2].eth[0].queue outgoingPacketLengths:histogram:max 512
scalar MultidropNetwork.node[2].eth[0].queue outgoingPacketLengths:histogram:numbins 2
scalar MultidropNetwork.node[2].eth[0].queue outgoingPacketLengths:histogram:rangemin 511
scalar MultidropNetwork.node[2].eth[0].queue outgoingPacketLengths:histogram:rangemax 513
scalar MultidropNetwork.node[2].eth[0].queue outgoingPacketLengths:histogram:underflows 0
scalar MultidropNetwork.node[2].eth[0].queue outgoingPacketLengths:histogram:overflows 0
scalar MultidropNetwork.node[2].eth[0].queue flowQueueingTime:histogram:count 0
scalar MultidropNetwork.node[2].eth[0].queue flowQueueingTime:histogram:sumweights 0
scalar MultidropNetwork.node[2].eth[0].queue flowQueueingTime:histogram:mean -nan
scalar MultidropNetwork.node[2].eth[0].queue flowQueueingTime:histogram:stddev nan
scalar MultidropNetwork.node[2].eth[0].queue flowQueueingTime:histogram:min nan
scalar MultidropNetwork.node[2].eth[0].queue flowQueueingTime:histogram:max nan
scalar MultidropNetwork.node[2].eth[0].queue flowQueueingTime:histogram:numbins 1
scalar MultidropNetwork.node[2].eth[0].queue flowQueueingTime:histogram:rangemin 0
scalar MultidropNetwork.node[2].eth[0].queue flowQueueingTime:histogram:rangemax 1
scalar MultidropNetwork.node[2].eth[0].queue flowQueueingTime:histogram:underflows 0
scalar MultidropNetwork.node[2].eth[0].queue flowQueueingTime:histogram:overflows 0
scalar MultidropNetwork.node[2].eth[0].queue incomingPacketLengths:histogram:count 1
scalar MultidropNetwork.node[2].eth[0].queue incomingPacketLengths:histogram:sumweights 1
scalar MultidropNetwork.node[2].eth[0].queue incomingPacketLengths:histogram:mean 512
scalar MultidropNetwork.node[2].eth[0].queue incomingPacketLengths:histogram:stddev nan
scalar MultidropNetwork.node[2].eth[0].queue incomingPacketLengths:histogram:min 512
scalar MultidropNetwork.node[2].eth[0].queue incomingPacketLengths:histogram:max 512
scalar MultidropNetwork.node[2].eth[0].queue incomingPacketLengths:histogram:numbins 2
scalar MultidropNetwork.node[2].eth[0].queue incomingPacketLengths:histogram:rangemin 511
scalar MultidropNetwork.node[2].eth[0].queue incomingPacketLengths:histogram:rangemax 513
scalar MultidropNetwork.node[2].eth[0].queue incomingPacketLengths:histogram:underflows 0
scalar MultidropNetwork.node[2].eth[0].queue incomingPacketLengths:histogram:overflows 0
scalar MultidropNetwork.node[2].eth[0].plca packetInterval:histogram:count 0
scalar MultidropNetwork.node[2].eth[0].plca packetInterval:histogram:sumweights 0
scalar MultidropNetwork.node[2].eth[0].plca packetInterval:histogram:mean -nan
scalar MultidropNetwork.node[2].eth[0].plca packetInterval:histogram:stddev nan
scalar MultidropNetwork.node[2].eth[0].plca packetInterval:histogram:min nan
scalar MultidropNetwork.node[2].eth[0].plca packetInterval:histogram:max nan
scalar MultidropNetwork.node[2].eth[0].plca packetInterval:histogram:numbins 1
scalar MultidropNetwork.node[2].eth[0].plca packetInterval:histogram:rangemin 0
scalar MultidropNetwork.node[2].eth[0].plca packetInterval:histogram:rangemax 1
scalar MultidropNetwork.node[2].eth[0].plca packetInterval:histogram:underflows 0
scalar MultidropNetwork.node[2].eth[0].plca packetInterval:histogram:overflows 0
scalar MultidropNetwork.node[2].eth[0].plca packetPendingDelay:histogram:count 1
scalar MultidropNetwork.node[2].eth[0].plca packetPendingDelay:histogram:sumweights 1
scalar MultidropNetwork.node[2].eth[0].plca packetPendingDelay:histogram:mean 0
scalar MultidropNetwork.node[2].eth[0].plca packetPendingDelay:histogram:stddev nan
scalar MultidropNetwork.node[2].eth[0].plca packetPendingDelay:histogram:min 0
scalar MultidropNetwork.node[2].eth[0].plca packetPendingDelay:histogram:max 0
scalar MultidropNetwork.node[2].eth[0].plca packetPendingDelay:histogram:numbins 50
scalar MultidropNetwork.node[2].eth[0].plca packetPendingDelay:histogram:rangemin -0.5
scalar MultidropNetwork.node[2].eth[0].plca packetPendingDelay:histogram:rangemax 0.5
scalar MultidropNetwork.node[2].eth[0].plca packetPendingDelay:histogram:underflows 0
scalar MultidropNetwork.node[2].eth[0].plca packetPendingDelay:histogram:overflows 0
scalar MultidropNetwork.node[2].eth[0].phy throughput:histogram:count 1
scalar MultidropNetwork.node[2].eth[0].phy throughput:histogram:sumweights 1
scalar MultidropNetwork.node[2].eth[0].phy throughput:histogram:mean 704000
scalar MultidropNetwork.node[2].eth[0].phy throughput:histogram:stddev nan
scalar MultidropNetwork.node[2].eth[0].phy throughput:histogram:min 704000
scalar MultidropNetwork.node[2].eth[0].phy throughput:histogram:max 704000
scalar MultidropNetwork.node[2].eth[0].phy throughput:histogram:numbins 2
scalar MultidropNetwork.node[2].eth[0].phy throughput:histogram:rangemin 703999
scalar MultidropNetwork.node[2].eth[0].phy throughput:histogram:rangemax 704001
scalar MultidropNetwork.node[2].eth[0].phy throughput:histogram:underflows 0
scalar MultidropNetwork.node[2].eth[0].phy throughput:histogram:overflows 0
scalar MultidropNetwork.node[2].eth[0].phy transmissionTime:histogram:count 3
scalar MultidropNetwork.node[2].eth[0].phy transmissionTime:histogram:sumweights 3
scalar MultidropNetwork.node[2].eth[0].phy transmissionTime:histogram:mean 2.3733333333333e-05
scalar MultidropNetwork.node[2].eth[0].phy transmissionTime:histogram:stddev 3.0696796792717e-05
scalar MultidropNetwork.node[2].eth[0].phy transmissionTime:histogram:min 0
scalar MultidropNetwork.node[2].eth[0].phy transmissionTime:histogram:max 5.84e-05
scalar MultidropNetwork.node[2].eth[0].phy transmissionTime:histogram:numbins 73
scalar MultidropNetwork.node[2].eth[0].phy transmissionTime:histogram:rangemin 0
scalar MultidropNetwork.node[2].eth[0].phy transmissionTime:histogram:rangemax 7.3e-05
scalar MultidropNetwork.node[2].eth[0].phy transmissionTime:histogram:underflows 0
scalar MultidropNetwork.node[2].eth[0].phy transmissionTime:histogram:overflows 0
scalar MultidropNetwork.node[2].app[0].source packetLengths:histogram:count 1
scalar MultidropNetwork.node[2].app[0].source packetLengths:histogram:sumweights 1
scalar MultidropNetwork.node[2].app[0].source packetLengths:histogram:mean 368
scalar MultidropNetwork.node[2].app[0].source packetLengths:histogram:stddev nan
scalar MultidropNetwork.node[2].app[0].source packetLengths:histogram:min 368
scalar MultidropNetwork.node[2].app[0].source packetLengths:histogram:max 368
scalar MultidropNetwork.node[2].app[0].source packetLengths:histogram:numbins 2
scalar MultidropNetwork.node[2].app[0].source packetLengths:histogram:rangemin 367
scalar MultidropNetwork.node[2].app[0].source packetLengths:histogram:rangemax 369
scalar MultidropNetwork.node[2].app[0].source packetLengths:histogram:underflows 0
scalar MultidropNetwork.node[2].app[0].source packetLengths:histogram:overflows 0
scalar MultidropNetwork.node[3].eth[0].queue queueingTime:histogram:count 1
scalar MultidropNetwork.node[3].eth[0].queue queueingTime:histogram:sumweights 1
scalar MultidropNetwork.node[3].eth[0].queue queueingTime:histogram:mean 0
scalar MultidropNetwork.node[3].eth[0].queue queueingTime:histogram:stddev nan
scalar MultidropNetwork.node[3].eth[0].queue queueingTime:histogram:min 0
scalar MultidropNetwork.node[3].eth[0].queue queueingTime:histogram:max 0
scalar MultidropNetwork.node[3].eth[0].queue queueingTime:histogram:numbins 50
scalar MultidropNetwork.node[3].eth[0].queue queueingTime:histogram:rangemin -0.5
scalar MultidropNetwork.node[3].eth[0].queue queueingTime:histogram:rangemax 0.5
scalar MultidropNetwork.node[3].eth[0].queue queueingTime:histogram:underflows 0
scalar MultidropNetwork.node[3].eth[0].queue queueingTime:histogram:overflows 0
scalar MultidropNetwork.node[3].eth[0].queue outgoingPacketLengths:histogram:count 1
scalar MultidropNetwork.node[3].eth[0].queue outgoingPacketLengths:histogram:sumweights 1
scalar MultidropNetwork.node[3].eth[0].queue outgoingPacketLengths:histogram:mean 512
scalar MultidropNetwork.node[3].eth[0].queue outgoingPacketLengths:histogram:stddev nan
scalar MultidropNetwork.node[3].eth[0].queue outgoingPacketLengths:histogram:min 512
scalar MultidropNetwork.node[3].eth[0].queue outgoingPacketLengths:histogram:max 512
scalar MultidropNetwork.node[3].eth[0].queue outgoingPacketLengths:histogram:numbins 2
scalar MultidropNetwork.node[3].eth[0].queue outgoingPacketLengths:histogram:rangemin 511
scalar MultidropNetwork.node[3].eth[0].queue outgoingPacketLengths:histogram:rangemax 513
scalar MultidropNetwork.node[3].eth[0].queue outgoingPacketLengths:histogram:underflows 0
scalar MultidropNetwork.node[3].eth[0].queue outgoingPacketLengths:histogram:overflows 0
scalar MultidropNetwork.node[3].eth[0].queue flowQueueingTime:histogram:count 0
scalar MultidropNetwork.node[3].eth[0].queue flowQueueingTime:histogram:sumweights 0
scalar MultidropNetwork.node[3].eth[0].queue flowQueueingTime:histogram:mean -nan
scalar MultidropNetwork.node[3].eth[0].queue flowQueueingTime:histogram:stddev nan
scalar MultidropNetwork.node[3].eth[0].queue flowQueueingTime:histogram:min nan
scalar MultidropNetwork.node[3].eth[0].queue flowQueueingTime:histogram:max nan
scalar MultidropNetwork.node[3].eth[0].queue flowQueueingTime:histogram:numbins 1
scalar MultidropNetwork.node[3].eth[0].queue flowQueueingTime:histogram:rangemin 0
scalar MultidropNetwork.node[3].eth[0].queue flowQueueingTime:histogram:rangemax 1
scalar MultidropNetwork.node[3].eth[0].queue flowQueueingTime:histogram:underflows 0
scalar MultidropNetwork.node[3].eth[0].queue flowQueueingTime:histogram:overflows 0
scalar MultidropNetwork.node[3].eth[0].queue incomingPacketLengths:histogram:count 1
scalar MultidropNetwork.node[3].eth[0].queue incomingPacketLengths:histogram:sumweights 1
scalar MultidropNetwork.node[3].eth[0].queue incomingPacketLengths:histogram:mean 512
scalar MultidropNetwork.node[3].eth[0].queue incomingPacketLengths:histogram:stddev nan
scalar MultidropNetwork.node[3].eth[0].queue incomingPacketLengths:histogram:min 512
scalar MultidropNetwork.node[3].eth[0].queue incomingPacketLengths:histogram:max 512
scalar MultidropNetwork.node[3].eth[0].queue incomingPacketLengths:histogram:numbins 2
scalar MultidropNetwork.node[3].eth[0].queue incomingPacketLengths:histogram:rangemin 511
scalar MultidropNetwork.node[3].eth[0].queue incomingPacketLengths:histogram:rangemax 513
scalar MultidropNetwork.node[3].eth[0].queue incomingPacketLengths:histogram:underflows 0
scalar MultidropNetwork.node[3].eth[0].queue incomingPacketLengths:histogram:overflows 0
scalar MultidropNetwork.node[3].eth[0].plca packetInterval:histogram:count 0
scalar MultidropNetwork.node[3].eth[0].plca packetInterval:histogram:sumweights 0
scalar MultidropNetwork.node[3].eth[0].plca packetInterval:histogram:mean -nan
scalar MultidropNetwork.node[3].eth[0].plca packetInterval:histogram:stddev nan
scalar MultidropNetwork.node[3].eth[0].plca packetInterval:histogram:min nan
scalar MultidropNetwork.node[3].eth[0].plca packetInterval:histogram:max nan
scalar MultidropNetwork.node[3].eth[0].plca packetInterval:histogram:numbins 1
scalar MultidropNetwork.node[3].eth[0].plca packetInterval:histogram:rangemin 0
scalar MultidropNetwork.node[3].eth[0].plca packetInterval:histogram:rangemax 1
scalar MultidropNetwork.node[3].eth[0].plca packetInterval:histogram:underflows 0
scalar MultidropNetwork.node[3].eth[0].plca packetInterval:histogram:overflows 0
scalar MultidropNetwork.node[3].eth[0].plca packetPendingDelay:histogram:count 1
scalar MultidropNetwork.node[3].eth[0].plca packetPendingDelay:histogram:sumweights 1
scalar MultidropNetwork.node[3].eth[0].plca packetPendingDelay:histogram:mean 0
scalar MultidropNetwork.node[3].eth[0].plca packetPendingDelay:histogram:stddev nan
scalar MultidropNetwork.node[3].eth[0].plca packetPendingDelay:histogram:min 0
scalar MultidropNetwork.node[3].eth[0].plca packetPendingDelay:histogram:max 0
scalar MultidropNetwork.node[3].eth[0].plca packetPendingDelay:histogram:numbins 50
scalar MultidropNetwork.node[3].eth[0].plca packetPendingDelay:histogram:rangemin -0.5
scalar MultidropNetwork.node[3].eth[0].plca packetPendingDelay:histogram:rangemax 0.5
scalar MultidropNetwork.node[3].eth[0].plca packetPendingDelay:histogram:underflows 0
scalar MultidropNetwork.node[3].eth[0].plca packetPendingDelay:histogram:overflows 0
scalar MultidropNetwork.node[3].eth[0].phy throughput:histogram:count 1
scalar MultidropNetwork.node[3].eth[0].phy throughput:histogram:sumweights 1
scalar MultidropNetwork.node[3].eth[0].phy throughput:histogram:mean 704000
scalar MultidropNetwork.node[3].eth[0].phy throughput:histogram:stddev nan
scalar MultidropNetwork.node[3].eth[0].phy throughput:histogram:min 704000
scalar MultidropNetwork.node[3].eth[0].phy throughput:histogram:max 704000
scalar MultidropNetwork.node[3].eth[0].phy throughput:histogram:numbins 2
scalar MultidropNetwork.node[3].eth[0].phy throughput:histogram:rangemin 703999
scalar MultidropNetwork.node[3].eth[0].phy throughput:histogram:rangemax 704001
scalar MultidropNetwork.node[3].eth[0].phy throughput:histogram:underflows 0
scalar MultidropNetwork.node[3].eth[0].phy throughput:histogram:overflows 0
scalar MultidropNetwork.node[3].eth[0].phy transmissionTime:histogram:count 3
scalar MultidropNetwork.node[3].eth[0].phy transmissionTime:histogram:sumweights 3
scalar MultidropNetwork.node[3].eth[0].phy transmissionTime:histogram:mean 2.3733333333333e-05
scalar MultidropNetwork.node[3].eth[0].phy transmissionTime:histogram:stddev 3.0696796792717e-05
scalar MultidropNetwork.node[3].eth[0].phy transmissionTime:histogram:min 0
scalar MultidropNetwork.node[3].eth[0].phy transmissionTime:histogram:max 5.84e-05
scalar MultidropNetwork.node[3].eth[0].phy transmissionTime:histogram:numbins 73
scalar MultidropNetwork.node[3].eth[0].phy transmissionTime:histogram:rangemin 0
scalar MultidropNetwork.node[3].eth[0].phy transmissionTime:histogram:rangemax 7.3e-05
scalar MultidropNetwork.node[3].eth[0].phy transmissionTime:histogram:underflows 0
scalar MultidropNetwork.node[3].eth[0].phy transmissionTime:histogram:overflows 0
scalar MultidropNetwork.node[3].app[0].source packetLengths:histogram:count 1
scalar MultidropNetwork.node[3].app[0].source packetLengths:histogram:sumweights 1
scalar MultidropNetwork.node[3].app[0].source packetLengths:histogram:mean 368
scalar MultidropNetwork.node[3].app[0].source packetLengths:histogram:stddev nan
scalar MultidropNetwork.node[3].app[0].source packetLengths:histogram:min 368
scalar MultidropNetwork.node[3].app[0].source packetLengths:histogram:max 368
scalar MultidropNetwork.node[3].app[0].source packetLengths:histogram:numbins 2
scalar MultidropNetwork.node[3].app[0].source packetLengths:histogram:rangemin 367
scalar MultidropNetwork.node[3].app[0].source packetLengths:histogram:rangemax 369
scalar MultidropNetwork.node[3].app[0].source packetLengths:histogram:underflows 0
scalar MultidropNetwork.node[3].app[0].source packetLengths:histogram:overflows 0
statistic MultidropNetwork.controller.eth[0].queue queueingTime:histogram
field count 0
field mean -nan
field stddev nan
field min nan
field max nan
field sum 0
field sqrsum 0
bin	-inf	0
bin	0	0
bin	1	0
statistic MultidropNetwork.controller.eth[0].queue outgoingPacketLengths:histogram
field count 0
field mean -nan
field stddev nan
field min nan
field max nan
field sum 0
field sqrsum 0
bin	-inf	0
bin	0	0
bin	1	0
statistic MultidropNetwork.controller.eth[0].queue flowQueueingTime:histogram
field count 0
field mean -nan
field stddev nan
field min nan
field max nan
field sum 0
field sqrsum 0
bin	-inf	0
bin	0	0
bin	1	0
statistic MultidropNetwork.controller.eth[0].queue incomingPacketLengths:histogram
field count 0
field mean -nan
field stddev nan
field min nan
field max nan
field sum 0
field sqrsum 0
bin	-inf	0
bin	0	0
bin	1	0
statistic MultidropNetwork.controller.eth[0].plca packetInterval:histogram
field count 0
field mean -nan
field stddev nan
field min nan
field max nan
field sum 0
field sqrsum 0
bin	-inf	0
bin	0	0
bin	1	0
statistic MultidropNetwork.controller.eth[0].plca packetPendingDelay:histogram
field count 0
field mean -nan
field stddev nan
field min nan
field max nan
field sum 0
field sqrsum 0
bin	-inf	0
bin	0	0
bin	1	0
statistic MultidropNetwork.controller.eth[0].phy throughput:histogram
field count 1
field mean 800000
field stddev nan
field min 800000
field max 800000
field sum 800000
field sqrsum 640000000000
bin	-inf	0
bin	799999	0
bin	800000	1
bin	800001	0
statistic MultidropNetwork.controller.eth[0].phy transmissionTime:histogram
field count 40
field mean 2e-06
field stddev 0
field min 2e-06
field max 2e-06
field sum 8e-05
field sqrsum 1.6e-10
bin	-inf	0
bin	0	40
bin	0.01	0
bin	0.02	0
bin	0.03	0
bin	0.04	0
bin	0.05	0
bin	0.06	0
bin	0.07	0
bin	0.08	0
bin	0.09	0
bin	0.1	0
bin	0.11	0
bin	0.12	0
bin	0.13	0
bin	0.14	0
bin	0.15	0
bin	0.16	0
bin	0.17	0
bin	0.18	0
bin	0.19	0
bin	0.2	0
bin	0.21	0
bin	0.22	0
bin	0.23	0
bin	0.24	0
bin	0.25	0
bin	0.26	0
bin	0.27	0
bin	0.28	0
bin	0.29	0
bin	0.3	0
bin	0.31	0
bin	0.32	0
bin	0.33	0
bin	0.34	0
bin	0.35	0
bin	0.36	0
bin	0.37	0
bin	0.38	0
bin	0.39	0
bin	0.4	0
bin	0.41	0
bin	0.42	0
bin	0.43	0
bin	0.44	0
bin	0.45	0
bin	0.46	0
bin	0.47	0
bin	0.48	0
bin	0.49	0
bin	0.5	0
bin	0.51	0
statistic MultidropNetwork.controller.app[0].sink packetLengths:histogram
field count 4
field mean 368
field stddev 0
field min 368
field max 368
field sum 1472
field sqrsum 541696
bin	-inf	0
bin	367	0
bin	368	4
bin	369	0
statistic MultidropNetwork.controller.app[0].sink meanBitLifeTimePerPacket:histogram
field count 4
field mean 0.00011632874975
field stddev 0.00011582249957195
field min 5.84125e-05
field max 0.000290062499
field sum 0.000465314999
field sqrsum 9.4374066294875e-08
bin	-inf	0
bin	0	0
bin	5e-06	0
bin	1e-05	0
bin	1.5e-05	0
bin	2e-05	0
bin	2.5e-05	0
bin	3e-05	0
bin	3.5e-05	0
bin	4e-05	0
bin	4.5e-05	0
bin	5e-05	0
bin	5.5e-05	3
bin	6e-05	0
bin	6.5e-05	0
bin	7e-05	0
bin	7.5e-05	0
bin	8e-05	0
bin	8.5e-05	0
bin	9e-05	0
bin	9.5e-05	0
bin	0.0001	0
bin	0.000105	0
bin	0.00011	0
bin	0.000115	0
bin	0.00012	0
bin	0.000125	0
bin	0.00013	0
bin	0.000135	0
bin	0.00014	0
bin	0.000145	0
bin	0.00015	0
bin	0.000155	0
bin	0.00016	0
bin	0.000165	0
bin	0.00017	0
bin	0.000175	0
bin	0.00018	0
bin	0.000185	0
bin	0.00019	0
bin	0.000195	0
bin	0.0002	0
bin	0.000205	0
bin	0.00021	0
bin	0.000215	0
bin	0.00022	0
bin	0.000225	0
bin	0.00023	0
bin	0.000235	0
bin	0.00024	0
bin	0.000245	0
bin	0.00025	0
bin	0.000255	0
bin	0.00026	0
bin	0.000265	0
bin	0.00027	0
bin	0.000275	0
bin	0.00028	0
bin	0.000285	0
bin	0.00029	1
bin	0.000295	0
bin	0.0003	0
bin	0.000305	0
bin	0.00031	0
bin	0.000315	0
bin	0.00032	0
bin	0.000325	0
bin	0.00033	0
bin	0.000335	0
bin	0.00034	0
bin	0.000345	0
bin	0.00035	0
statistic MultidropNetwork.controller.app[0].sink packetLifeTime:histogram
field count 4
field mean 0.00011632874975
field stddev 0.00011582249957195
field min 5.84125e-05
field max 0.000290062499
field sum 0.000465314999
field sqrsum 9.4374066294875e-08
bin	-inf	0
bin	0	0
bin	5e-06	0
bin	1e-05	0
bin	1.5e-05	0
bin	2e-05	0
bin	2.5e-05	0
bin	3e-05	0
bin	3.5e-05	0
bin	4e-05	0
bin	4.5e-05	0
bin	5e-05	0
bin	5.5e-05	3
bin	6e-05	0
bin	6.5e-05	0
bin	7e-05	0
bin	7.5e-05	0
bin	8e-05	0
bin	8.5e-05	0
bin	9e-05	0
bin	9.5e-05	0
bin	0.0001	0
bin	0.000105	0
bin	0.00011	0
bin	0.000115	0
bin	0.00012	0
bin	0.000125	0
bin	0.00013	0
bin	0.000135	0
bin	0.00014	0
bin	0.000145	0
bin	0.00015	0
bin	0.000155	0
bin	0.00016	0
bin	0.000165	0
bin	0.00017	0
bin	0.000175	0
bin	0.00018	0
bin	0.000185	0
bin	0.00019	0
bin	0.000195	0
bin	0.0002	0
bin	0.000205	0
bin	0.00021	0
bin	0.000215	0
bin	0.00022	0
bin	0.000225	0
bin	0.00023	0
bin	0.000235	0
bin	0.00024	0
bin	0.000245	0
bin	0.00025	0
bin	0.000255	0
bin	0.00026	0
bin	0.000265	0
bin	0.00027	0
bin	0.000275	0
bin	0.00028	0
bin	0.000285	0
bin	0.00029	1
bin	0.000295	0
bin	0.0003	0
bin	0.000305	0
bin	0.00031	0
bin	0.000315	0
bin	0.00032	0
bin	0.000325	0
bin	0.00033	0
bin	0.000335	0
bin	0.00034	0
bin	0.000345	0
bin	0.00035	0
statistic MultidropNetwork.controller.app[0].sink packetJitter:histogram
field count 4
field mean 7.251562475e-05
field stddev 0.00010959781933877
field min 4.9999999999839e-09
field max 0.000231639999
field sum 0.000290062499
field sqrsum 5.706910934297e-08
bin	-inf	0
bin	0	2
bin	5e-06	0
bin	1e-05	0
bin	1.5e-05	0
bin	2e-05	0
bin	2.5e-05	0
bin	3e-05	0
bin	3.5e-05	0
bin	4e-05	0
bin	4.5e-05	0
bin	5e-05	0
bin	5.5e-05	1
bin	6e-05	0
bin	6.5e-05	0
bin	7e-05	0
bin	7.5e-05	0
bin	8e-05	0
bin	8.5e-05	0
bin	9e-05	0
bin	9.5e-05	0
bin	0.0001	0
bin	0.000105	0
bin	0.00011	0
bin	0.000115	0
bin	0.00012	0
bin	0.000125	0
bin	0.00013	0
bin	0.000135	0
bin	0.00014	0
bin	0.000145	0
bin	0.00015	0
bin	0.000155	0
bin	0.00016	0
bin	0.000165	0
bin	0.00017	0
bin	0.000175	0
bin	0.00018	0
bin	0.000185	0
bin	0.00019	0
bin	0.000195	0
bin	0.0002	0
bin	0.000205	0
bin	0.00021	0
bin	0.000215	0
bin	0.00022	0
bin	0.000225	0
bin	0.00023	1
bin	0.000235	0
bin	0.00024	0
bin	0.000245	0
bin	0.00025	0
bin	0.000255	0
bin	0.00026	0
bin	0.000265	0
bin	0.00027	0
bin	0.000275	0
bin	0.00028	0
bin	0.000285	0
bin	0.00029	0
statistic MultidropNetwork.controller.app[0].sink packetDelayDifferenceToMean:histogram
field count 4
field mean -4.34353123125e-05
field stddev 8.6865624648984e-05
field min -0.00017373374925
field max 0
field sum -0.00017374124925
field sqrsum 3.0183415659712e-08
bin	-inf	0
bin	-0.00022	0
bin	-0.000215	0
bin	-0.00021	0
bin	-0.000205	0
bin	-0.0002	0
bin	-0.000195	0
bin	-0.00019	0
bin	-0.000185	0
bin	-0.00018	0
bin	-0.000175	1
bin	-0.00017	0
bin	-0.000165	0
bin	-0.00016	0
bin	-0.000155	0
bin	-0.00015	0
bin	-0.000145	0
bin	-0.00014	0
bin	-0.000135	0
bin	-0.00013	0
bin	-0.000125	0
bin	-0.00012	0
bin	-0.000115	0
bin	-0.00011	0
bin	-0.000105	0
bin	-0.0001	0
bin	-9.5e-05	0
bin	-9e-05	0
bin	-8.5e-05	0
bin	-8e-05	0
bin	-7.5e-05	0
bin	-7e-05	0
bin	-6.5e-05	0
bin	-6e-05	0
bin	-5.5e-05	0
bin	-5e-05	0
bin	-4.5e-05	0
bin	-4e-05	0
bin	-3.5e-05	0
bin	-3e-05	0
bin	-2.5e-05	0
bin	-2e-05	0
bin	-1.5e-05	0
bin	-1e-05	0
bin	-5e-06	2
bin	0	1
bin	5e-06	0
bin	1e-05	0
bin	1.5e-05	0
bin	2e-05	0
bin	2.5e-05	0
bin	3e-05	0
bin	3.5e-05	0
bin	4e-05	0
bin	4.5e-05	0
statistic MultidropNetwork.controller.app[0].sink packetDelayVariation:histogram
field count 4
field mean 2.5077952434508e-05
field stddev 5.0151516575116e-05
field min 0
field max 0.00010030522725494
field sum 0.00010031180973803
field sqrsum 1.0061138637582e-08
bin	-inf	0
bin	0	3
bin	2e-06	0
bin	4e-06	0
bin	6e-06	0
bin	8e-06	0
bin	1e-05	0
bin	1.2e-05	0
bin	1.4e-05	0
bin	1.6e-05	0
bin	1.8e-05	0
bin	2e-05	0
bin	2.2e-05	0
bin	2.4e-05	0
bin	2.6e-05	0
bin	2.8e-05	0
bin	3e-05	0
bin	3.2e-05	0
bin	3.4e-05	0
bin	3.6e-05	0
bin	3.8e-05	0
bin	4e-05	0
bin	4.2e-05	0
bin	4.4e-05	0
bin	4.6e-05	0
bin	4.8e-05	0
bin	5e-05	0
bin	5.2e-05	0
bin	5.4e-05	0
bin	5.6e-05	0
bin	5.8e-05	0
bin	6e-05	0
bin	6.2e-05	0
bin	6.4e-05	0
bin	6.6e-05	0
bin	6.8e-05	0
bin	7e-05	0
bin	7.2e-05	0
bin	7.4e-05	0
bin	7.6e-05	0
bin	7.8e-05	0
bin	8e-05	0
bin	8.2e-05	0
bin	8.4e-05	0
bin	8.6e-05	0
bin	8.8e-05	0
bin	9e-05	0
bin	9.2e-05	0
bin	9.4e-05	0
bin	9.6e-05	0
bin	9.8e-05	0
bin	0.0001	1
bin	0.000102	0
bin	0.000104	0
bin	0.000106	0
bin	0.000108	0
bin	0.00011	0
bin	0.000112	0
bin	0.000114	0
bin	0.000116	0
bin	0.000118	0
bin	0.00012	0
bin	0.000122	0
bin	0.000124	0
bin	0.000126	0
statistic MultidropNetwork.controller.app[0].sink droppedPacketLengths:histogram
field count 4
field mean 368
field stddev 0
field min 368
field max 368
field sum 1472
field sqrsum 541696
bin	-inf	0
bin	367	0
bin	368	4
bin	369	0
statistic MultidropNetwork.node[0].eth[0].queue queueingTime:histogram
field count 1
field mean 0
field stddev nan
field min 0
field max 0
field sum 0
field sqrsum 0
bin	-inf	0
bin	-0.5	0
bin	-0.48	0
bin	-0.46	0
bin	-0.44	0
bin	-0.42	0
bin	-0.4	0
bin	-0.38	0
bin	-0.36	0
bin	-0.34	0
bin	-0.32	0
bin	-0.3	0
bin	-0.28	0
bin	-0.26	0
bin	-0.24	0
bin	-0.22	0
bin	-0.2	0
bin	-0.18	0
bin	-0.16	0
bin	-0.14	0
bin	-0.12	0
bin	-0.1	0
bin	-0.08	0
bin	-0.06	0
bin	-0.04	0
bin	-0.02	0
bin	0	1
bin	0.02	0
bin	0.04	0
bin	0.06	0
bin	0.08	0
bin	0.1	0
bin	0.12	0
bin	0.14	0
bin	0.16	0
bin	0.18	0
bin	0.2	0
bin	0.22	0
bin	0.24	0
bin	0.26	0
bin	0.28	0
bin	0.3	0
bin	0.32	0
bin	0.34	0
bin	0.36	0
bin	0.38	0
bin	0.4	0
bin	0.42	0
bin	0.44	0
bin	0.46	0
bin	0.48	0
bin	0.5	0
statistic MultidropNetwork.node[0].eth[0].queue outgoingPacketLengths:histogram
field count 1
field mean 512
field stddev nan
field min 512
field max 512
field sum 512
field sqrsum 262144
bin	-inf	0
bin	511	0
bin	512	1
bin	513	0
statistic MultidropNetwork.node[0].eth[0].queue flowQueueingTime:histogram
field count 0
field mean -nan
field stddev nan
field min nan
field max nan
field sum 0
field sqrsum 0
bin	-inf	0
bin	0	0
bin	1	0
statistic MultidropNetwork.node[0].eth[0].queue incomingPacketLengths:histogram
field count 1
field mean 512
field stddev nan
field min 512
field max 512
field sum 512
field sqrsum 262144
bin	-inf	0
bin	511	0
bin	512	1
bin	513	0
statistic MultidropNetwork.node[0].eth[0].plca packetInterval:histogram
field count 0
field mean -nan
field stddev nan
field min nan
field max nan
field sum 0
field sqrsum 0
bin	-inf	0
bin	0	0
bin	1	0
statistic MultidropNetwork.node[0].eth[0].plca packetPendingDelay:histogram
field count 1
field mean 0.000231654999
field stddev nan
field min 0.000231654999
field max 0.000231654999
field sum 0.000231654999
field sqrsum 5.366403856169e-08
bin	-inf	0
bin	0	1
bin	0.01	0
bin	0.02	0
bin	0.03	0
bin	0.04	0
bin	0.05	0
bin	0.06	0
bin	0.07	0
bin	0.08	0
bin	0.09	0
bin	0.1	0
bin	0.11	0
bin	0.12	0
bin	0.13	0
bin	0.14	0
bin	0.15	0
bin	0.16	0
bin	0.17	0
bin	0.18	0
bin	0.19	0
bin	0.2	0
bin	0.21	0
bin	0.22	0
bin	0.23	0
bin	0.24	0
bin	0.25	0
bin	0.26	0
bin	0.27	0
bin	0.28	0
bin	0.29	0
bin	0.3	0
bin	0.31	0
bin	0.32	0
bin	0.33	0
bin	0.34	0
bin	0.35	0
bin	0.36	0
bin	0.37	0
bin	0.38	0
bin	0.39	0
bin	0.4	0
bin	0.41	0
bin	0.42	0
bin	0.43	0
bin	0.44	0
bin	0.45	0
bin	0.46	0
bin	0.47	0
bin	0.48	0
bin	0.49	0
bin	0.5	0
bin	0.51	0
statistic MultidropNetwork.node[0].eth[0].phy throughput:histogram
field count 1
field mean 800000
field stddev nan
field min 800000
field max 800000
field sum 800000
field sqrsum 640000000000
bin	-inf	0
bin	799999	0
bin	800000	1
bin	800001	0
statistic MultidropNetwork.node[0].eth[0].phy transmissionTime:histogram
field count 3
field mean 2.6933333333333e-05
field stddev 2.7297863164236e-05
field min 9.6e-06
field max 5.84e-05
field sum 8.08e-05
field sqrsum 3.66656e-09
bin	-inf	0
bin	0	0
bin	1e-06	0
bin	2e-06	0
bin	3e-06	0
bin	4e-06	0
bin	5e-06	0
bin	6e-06	0
bin	7e-06	0
bin	8e-06	0
bin	9e-06	1
bin	1e-05	0
bin	1.1e-05	0
bin	1.2e-05	1
bin	1.3e-05	0
bin	1.4e-05	0
bin	1.5e-05	0
bin	1.6e-05	0
bin	1.7e-05	0
bin	1.8e-05	0
bin	1.9e-05	0
bin	2e-05	0
bin	2.1e-05	0
bin	2.2e-05	0
bin	2.3e-05	0
bin	2.4e-05	0
bin	2.5e-05	0
bin	2.6e-05	0
bin	2.7e-05	0
bin	2.8e-05	0
bin	2.9e-05	0
bin	3e-05	0
bin	3.1e-05	0
bin	3.2e-05	0
bin	3.3e-05	0
bin	3.4e-05	0
bin	3.5e-05	0
bin	3.6e-05	0
bin	3.7e-05	0
bin	3.8e-05	0
bin	3.9e-05	0
bin	4e-05	0
bin	4.1e-05	0
bin	4.2e-05	0
bin	4.3e-05	0
bin	4.4e-05	0
bin	4.5e-05	0
bin	4.6e-05	0
bin	4.7e-05	0
bin	4.8e-05	0
bin	4.9e-05	0
bin	5e-05	0
bin	5.1e-05	0
bin	5.2e-05	0
bin	5.3e-05	0
bin	5.4e-05	0
bin	5.5e-05	0
bin	5.6e-05	0
bin	5.7e-05	0
bin	5.8e-05	1
bin	5.9e-05	0
bin	6e-05	0
bin	6.1e-05	0
bin	6.2e-05	0
bin	6.3e-05	0
bin	6.4e-05	0
bin	6.5e-05	0
bin	6.6e-05	0
bin	6.7e-05	0
bin	6.8e-05	0
bin	6.9e-05	0
bin	7e-05	0
bin	7.1e-05	0
statistic MultidropNetwork.node[0].app[0].source packetLengths:histogram
field count 1
field mean 368
field stddev nan
field min 368
field max 368
field sum 368
field sqrsum 135424
bin	-inf	0
bin	367	0
bin	368	1
bin	369	0
statistic MultidropNetwork.node[1].eth[0].queue queueingTime:histogram
field count 1
field mean 0
field stddev nan
field min 0
field max 0
field sum 0
field sqrsum 0
bin	-inf	0
bin	-0.5	0
bin	-0.48	0
bin	-0.46	0
bin	-0.44	0
bin	-0.42	0
bin	-0.4	0
bin	-0.38	0
bin	-0.36	0
bin	-0.34	0
bin	-0.32	0
bin	-0.3	0
bin	-0.28	0
bin	-0.26	0
bin	-0.24	0
bin	-0.22	0
bin	-0.2	0
bin	-0.18	0
bin	-0.16	0
bin	-0.14	0
bin	-0.12	0
bin	-0.1	0
bin	-0.08	0
bin	-0.06	0
bin	-0.04	0
bin	-0.02	0
bin	0	1
bin	0.02	0
bin	0.04	0
bin	0.06	0
bin	0.08	0
bin	0.1	0
bin	0.12	0
bin	0.14	0
bin	0.16	0
bin	0.18	0
bin	0.2	0
bin	0.22	0
bin	0.24	0
bin	0.26	0
bin	0.28	0
bin	0.3	0
bin	0.32	0
bin	0.34	0
bin	0.36	0
bin	0.38	0
bin	0.4	0
bin	0.42	0
bin	0.44	0
bin	0.46	0
bin	0.48	0
bin	0.5	0
statistic MultidropNetwork.node[1].eth[0].queue outgoingPacketLengths:histogram
field count 1
field mean 512
field stddev nan
field min 512
field max 512
field sum 512
field sqrsum 262144
bin	-inf	0
bin	511	0
bin	512	1
bin	513	0
statistic MultidropNetwork.node[1].eth[0].queue flowQueueingTime:histogram
field count 0
field mean -nan
field stddev nan
field min nan
field max nan
field sum 0
field sqrsum 0
bin	-inf	0
bin	0	0
bin	1	0
statistic MultidropNetwork.node[1].eth[0].queue incomingPacketLengths:histogram
field count 1
field mean 512
field stddev nan
field min 512
field max 512
field sum 512
field sqrsum 262144
bin	-inf	0
bin	511	0
bin	512	1
bin	513	0
statistic MultidropNetwork.node[1].eth[0].plca packetInterval:histogram
field count 0
field mean -nan
field stddev nan
field min nan
field max nan
field sum 0
field sqrsum 0
bin	-inf	0
bin	0	0
bin	1	0
statistic MultidropNetwork.node[1].eth[0].plca packetPendingDelay:histogram
field count 1
field mean 0
field stddev nan
field min 0
field max 0
field sum 0
field sqrsum 0
bin	-inf	0
bin	-0.5	0
bin	-0.48	0
bin	-0.46	0
bin	-0.44	0
bin	-0.42	0
bin	-0.4	0
bin	-0.38	0
bin	-0.36	0
bin	-0.34	0
[...]
scalar MultidropNetwork.node[3].eth[0].plca transmitOpportunityUsed:vector:starttime 0.0001508325
scalar MultidropNetwork.node[3].eth[0].plca transmitOpportunityUsed:vector:endtime 0.0009985295
scalar MultidropNetwork.node[3].eth[0].plca numPacketsPerTo:vector:count 199
scalar MultidropNetwork.node[3].eth[0].plca numPacketsPerTo:vector:sum 4
scalar MultidropNetwork.node[3].eth[0].plca numPacketsPerTo:vector:sumweights 199
scalar MultidropNetwork.node[3].eth[0].plca numPacketsPerTo:vector:mean 0.020100502512563
scalar MultidropNetwork.node[3].eth[0].plca numPacketsPerTo:vector:stddev 0.14069807903518
scalar MultidropNetwork.node[3].eth[0].plca numPacketsPerTo:vector:min 0
scalar MultidropNetwork.node[3].eth[0].plca numPacketsPerTo:vector:max 1
scalar MultidropNetwork.node[3].eth[0].plca numPacketsPerTo:vector:starttime 5.2225e-06
scalar MultidropNetwork.node[3].eth[0].plca numPacketsPerTo:vector:endtime 0.0009985295
scalar MultidropNetwork.node[3].eth[0].plca numPacketsPerOwnTo:vector:count 39
scalar MultidropNetwork.node[3].eth[0].plca numPacketsPerOwnTo:vector:sum 1
scalar MultidropNetwork.node[3].eth[0].plca numPacketsPerOwnTo:vector:sumweights 39
scalar MultidropNetwork.node[3].eth[0].plca numPacketsPerOwnTo:vector:mean 0.025641025641026
scalar MultidropNetwork.node[3].eth[0].plca numPacketsPerOwnTo:vector:stddev 0.16012815380509
scalar MultidropNetwork.node[3].eth[0].plca numPacketsPerOwnTo:vector:min 0
scalar MultidropNetwork.node[3].eth[0].plca numPacketsPerOwnTo:vector:max 1
scalar MultidropNetwork.node[3].eth[0].plca numPacketsPerOwnTo:vector:starttime 0.0002220325
scalar MultidropNetwork.node[3].eth[0].plca numPacketsPerOwnTo:vector:endtime 0.0009837285
scalar MultidropNetwork.node[3].eth[0].plca numPacketsPerCycle:vector:count 39
scalar MultidropNetwork.node[3].eth[0].plca numPacketsPerCycle:vector:sum 4
scalar MultidropNetwork.node[3].eth[0].plca numPacketsPerCycle:vector:sumweights 39
scalar MultidropNetwork.node[3].eth[0].plca numPacketsPerCycle:vector:mean 0.1025641025641
scalar MultidropNetwork.node[3].eth[0].plca numPacketsPerCycle:vector:stddev 0.50235612210294
scalar MultidropNetwork.node[3].eth[0].plca numPacketsPerCycle:vector:min 0
scalar MultidropNetwork.node[3].eth[0].plca numPacketsPerCycle:vector:max 3
scalar MultidropNetwork.node[3].eth[0].plca numPacketsPerCycle:vector:starttime 0.0002240775
scalar MultidropNetwork.node[3].eth[0].plca numPacketsPerCycle:vector:endtime 0.0009857295
scalar MultidropNetwork.node[3].eth[0].plca toLength:vector:count 199
scalar MultidropNetwork.node[3].eth[0].plca toLength:vector:sum 0.000918415
scalar MultidropNetwork.node[3].eth[0].plca toLength:vector:sumweights 199
scalar MultidropNetwork.node[3].eth[0].plca toLength:vector:mean 4.6151507537688e-06
scalar MultidropNetwork.node[3].eth[0].plca toLength:vector:stddev 9.9232836074011e-06
scalar MultidropNetwork.node[3].eth[0].plca toLength:vector:min 3.2e-06
scalar MultidropNetwork.node[3].eth[0].plca toLength:vector:max 8.0805e-05
scalar MultidropNetwork.node[3].eth[0].plca toLength:vector:starttime 5.2225e-06
scalar MultidropNetwork.node[3].eth[0].plca toLength:vector:endtime 0.0009985295
scalar MultidropNetwork.node[3].eth[0].plca ownToLength:vector:count 39
scalar MultidropNetwork.node[3].eth[0].plca ownToLength:vector:sum 0.0001928
scalar MultidropNetwork.node[3].eth[0].plca ownToLength:vector:sumweights 39
scalar MultidropNetwork.node[3].eth[0].plca ownToLength:vector:mean 4.9435897435897e-06
scalar MultidropNetwork.node[3].eth[0].plca ownToLength:vector:stddev 1.0888714458746e-05
scalar MultidropNetwork.node[3].eth[0].plca ownToLength:vector:min 3.2e-06
scalar MultidropNetwork.node[3].eth[0].plca ownToLength:vector:max 7.12e-05
scalar MultidropNetwork.node[3].eth[0].plca ownToLength:vector:starttime 0.0002220325
scalar MultidropNetwork.node[3].eth[0].plca ownToLength:vector:endtime 0.0009837285
scalar MultidropNetwork.node[3].eth[0].plca cycleLength:vector:count 39
scalar MultidropNetwork.node[3].eth[0].plca cycleLength:vector:sum 0.000983707
scalar MultidropNetwork.node[3].eth[0].plca cycleLength:vector:sumweights 39
scalar MultidropNetwork.node[3].eth[0].plca cycleLength:vector:mean 2.5223256410256e-05
scalar MultidropNetwork.node[3].eth[0].plca cycleLength:vector:stddev 3.4651531975489e-05
scalar MultidropNetwork.node[3].eth[0].plca cycleLength:vector:min 1.8001e-05
scalar MultidropNetwork.node[3].eth[0].plca cycleLength:vector:max 0.000222055
scalar MultidropNetwork.node[3].eth[0].plca cycleLength:vector:starttime 0.0002240775
scalar MultidropNetwork.node[3].eth[0].plca cycleLength:vector:endtime 0.0009857295
scalar MultidropNetwork.node[3].eth[0].phy state:vector:count 156
scalar MultidropNetwork.node[3].eth[0].phy state:vector:sum 321
scalar MultidropNetwork.node[3].eth[0].phy state:vector:sumweights 156
scalar MultidropNetwork.node[3].eth[0].phy state:vector:mean 2.0576923076923
scalar MultidropNetwork.node[3].eth[0].phy state:vector:stddev 1.5953172790526
scalar MultidropNetwork.node[3].eth[0].phy state:vector:min 0
scalar MultidropNetwork.node[3].eth[0].phy state:vector:max 4
scalar MultidropNetwork.node[3].eth[0].phy state:vector:starttime 0
scalar MultidropNetwork.node[3].eth[0].phy state:vector:endtime 0.001
scalar MultidropNetwork.node[3].eth[0].phy receivedSignalType:vector:count 100
scalar MultidropNetwork.node[3].eth[0].phy receivedSignalType:vector:sum 61
scalar MultidropNetwork.node[3].eth[0].phy receivedSignalType:vector:sumweights 100
scalar MultidropNetwork.node[3].eth[0].phy receivedSignalType:vector:mean 0.61
scalar MultidropNetwork.node[3].eth[0].phy receivedSignalType:vector:stddev 0.7371114795832
scalar MultidropNetwork.node[3].eth[0].phy receivedSignalType:vector:min 0
scalar MultidropNetwork.node[3].eth[0].phy receivedSignalType:vector:max 3
scalar MultidropNetwork.node[3].eth[0].phy receivedSignalType:vector:starttime 0
scalar MultidropNetwork.node[3].eth[0].phy receivedSignalType:vector:endtime 0.001
scalar MultidropNetwork.node[3].eth[0].phy transmittedSignalType:vector:count 8
scalar MultidropNetwork.node[3].eth[0].phy transmittedSignalType:vector:sum 7
scalar MultidropNetwork.node[3].eth[0].phy transmittedSignalType:vector:sumweights 8
scalar MultidropNetwork.node[3].eth[0].phy transmittedSignalType:vector:mean 0.875
scalar MultidropNetwork.node[3].eth[0].phy transmittedSignalType:vector:stddev 1.2464234547582
scalar MultidropNetwork.node[3].eth[0].phy transmittedSignalType:vector:min 0
scalar MultidropNetwork.node[3].eth[0].phy transmittedSignalType:vector:max 3
scalar MultidropNetwork.node[3].eth[0].phy transmittedSignalType:vector:starttime 0
scalar MultidropNetwork.node[3].eth[0].phy transmittedSignalType:vector:endtime 0.001
scalar MultidropNetwork.node[3].eth[0].phy transmitting:vector:count 8
scalar MultidropNetwork.node[3].eth[0].phy transmitting:vector:sum 3
scalar MultidropNetwork.node[3].eth[0].phy transmitting:vector:sumweights 8
scalar MultidropNetwork.node[3].eth[0].phy transmitting:vector:mean 0.375
scalar MultidropNetwork.node[3].eth[0].phy transmitting:vector:stddev 0.51754916950677
scalar MultidropNetwork.node[3].eth[0].phy transmitting:vector:min 0
scalar MultidropNetwork.node[3].eth[0].phy transmitting:vector:max 1
scalar MultidropNetwork.node[3].eth[0].phy transmitting:vector:starttime 0
scalar MultidropNetwork.node[3].eth[0].phy transmitting:vector:endtime 0.0002220325
scalar MultidropNetwork.node[3].eth[0].phy throughput:vector:count 1
scalar MultidropNetwork.node[3].eth[0].phy throughput:vector:sum 704000
scalar MultidropNetwork.node[3].eth[0].phy throughput:vector:sumweights 1
scalar MultidropNetwork.node[3].eth[0].phy throughput:vector:mean 704000
scalar MultidropNetwork.node[3].eth[0].phy throughput:vector:stddev nan
scalar MultidropNetwork.node[3].eth[0].phy throughput:vector:min 704000
scalar MultidropNetwork.node[3].eth[0].phy throughput:vector:max 704000
scalar MultidropNetwork.node[3].eth[0].phy throughput:vector:starttime 0.001
scalar MultidropNetwork.node[3].eth[0].phy throughput:vector:endtime 0.001
scalar MultidropNetwork.node[3].eth[0].phy transmissionTime:vector:count 3
scalar MultidropNetwork.node[3].eth[0].phy transmissionTime:vector:sum 7.12e-05
scalar MultidropNetwork.node[3].eth[0].phy transmissionTime:vector:sumweights 3
scalar MultidropNetwork.node[3].eth[0].phy transmissionTime:vector:mean 2.3733333333333e-05
scalar MultidropNetwork.node[3].eth[0].phy transmissionTime:vector:stddev 3.0696796792717e-05
scalar MultidropNetwork.node[3].eth[0].phy transmissionTime:vector:min 0
scalar MultidropNetwork.node[3].eth[0].phy transmissionTime:vector:max 5.84e-05
scalar MultidropNetwork.node[3].eth[0].phy transmissionTime:vector:starttime 0.0001508325
scalar MultidropNetwork.node[3].eth[0].phy transmissionTime:vector:endtime 0.0002220325
scalar MultidropNetwork.node[3].eth[0].phy busUsed:vector:count 106
scalar MultidropNetwork.node[3].eth[0].phy busUsed:vector:sum 4
scalar MultidropNetwork.node[3].eth[0].phy busUsed:vector:sumweights 106
scalar MultidropNetwork.node[3].eth[0].phy busUsed:vector:mean 0.037735849056604
scalar MultidropNetwork.node[3].eth[0].phy busUsed:vector:stddev 0.19146195951337
scalar MultidropNetwork.node[3].eth[0].phy busUsed:vector:min 0
scalar MultidropNetwork.node[3].eth[0].phy busUsed:vector:max 1
scalar MultidropNetwork.node[3].eth[0].phy busUsed:vector:starttime 0
scalar MultidropNetwork.node[3].eth[0].phy busUsed:vector:endtime 0.001
scalar MultidropNetwork.node[3].eth[0].phy busUtilization:vector:count 1
scalar MultidropNetwork.node[3].eth[0].phy busUtilization:vector:sum 0.2336
scalar MultidropNetwork.node[3].eth[0].phy busUtilization:vector:sumweights 1
scalar MultidropNetwork.node[3].eth[0].phy busUtilization:vector:mean 0.2336
scalar MultidropNetwork.node[3].eth[0].phy busUtilization:vector:stddev nan
scalar MultidropNetwork.node[3].eth[0].phy busUtilization:vector:min 0.2336
scalar MultidropNetwork.node[3].eth[0].phy busUtilization:vector:max 0.2336
scalar MultidropNetwork.node[3].eth[0].phy busUtilization:vector:starttime 0.001
scalar MultidropNetwork.node[3].eth[0].phy busUtilization:vector:endtime 0.001
scalar MultidropNetwork.node[3].eth[0] packetDropInterfaceDown:vector(packetBytes):count 0
scalar MultidropNetwork.node[3].eth[0] packetDropInterfaceDown:vector(packetBytes):sum 0
scalar MultidropNetwork.node[3].eth[0] packetDropInterfaceDown:vector(packetBytes):sumweights 0
scalar MultidropNetwork.node[3].eth[0] packetDropInterfaceDown:vector(packetBytes):mean -nan
scalar MultidropNetwork.node[3].eth[0] packetDropInterfaceDown:vector(packetBytes):stddev nan
scalar MultidropNetwork.node[3].eth[0] packetDropInterfaceDown:vector(packetBytes):min inf
scalar MultidropNetwork.node[3].eth[0] packetDropInterfaceDown:vector(packetBytes):max -inf
scalar MultidropNetwork.node[3].eth[0] packetDropInterfaceDown:vector(packetBytes):starttime nan
scalar MultidropNetwork.node[3].eth[0] packetDropInterfaceDown:vector(packetBytes):endtime nan
scalar MultidropNetwork.node[3].eth[0] packetDropNoCarrier:vector(packetBytes):count 0
scalar MultidropNetwork.node[3].eth[0] packetDropNoCarrier:vector(packetBytes):sum 0
scalar MultidropNetwork.node[3].eth[0] packetDropNoCarrier:vector(packetBytes):sumweights 0
scalar MultidropNetwork.node[3].eth[0] packetDropNoCarrier:vector(packetBytes):mean -nan
scalar MultidropNetwork.node[3].eth[0] packetDropNoCarrier:vector(packetBytes):stddev nan
scalar MultidropNetwork.node[3].eth[0] packetDropNoCarrier:vector(packetBytes):min inf
scalar MultidropNetwork.node[3].eth[0] packetDropNoCarrier:vector(packetBytes):max -inf
scalar MultidropNetwork.node[3].eth[0] packetDropNoCarrier:vector(packetBytes):starttime nan
scalar MultidropNetwork.node[3].eth[0] packetDropNoCarrier:vector(packetBytes):endtime nan
scalar MultidropNetwork.node[3].app[0].source packetLengths:vector:count 1
scalar MultidropNetwork.node[3].app[0].source packetLengths:vector:sum 368
scalar MultidropNetwork.node[3].app[0].source packetLengths:vector:sumweights 1
scalar MultidropNetwork.node[3].app[0].source packetLengths:vector:mean 368
scalar MultidropNetwork.node[3].app[0].source packetLengths:vector:stddev nan
scalar MultidropNetwork.node[3].app[0].source packetLengths:vector:min 368
scalar MultidropNetwork.node[3].app[0].source packetLengths:vector:max 368
scalar MultidropNetwork.node[3].app[0].source packetLengths:vector:starttime 0.0001508325
scalar MultidropNetwork.node[3].app[0].source packetLengths:vector:endtime 0.0001508325
scalar MultidropNetwork.node[3].app[0].source dataRate:vector:count 1
scalar MultidropNetwork.node[3].app[0].source dataRate:vector:sum 368000
scalar MultidropNetwork.node[3].app[0].source dataRate:vector:sumweights 1
scalar MultidropNetwork.node[3].app[0].source dataRate:vector:mean 368000
scalar MultidropNetwork.node[3].app[0].source dataRate:vector:stddev nan
scalar MultidropNetwork.node[3].app[0].source dataRate:vector:min 368000
scalar MultidropNetwork.node[3].app[0].source dataRate:vector:max 368000
scalar MultidropNetwork.node[3].app[0].source dataRate:vector:starttime 0.001
scalar MultidropNetwork.node[3].app[0].source dataRate:vector:endtime 0.001
scalar MultidropNetwork.node[3].app[0].io packetSent:vector(packetBytes):count 1
scalar MultidropNetwork.node[3].app[0].io packetSent:vector(packetBytes):sum 46
scalar MultidropNetwork.node[3].app[0].io packetSent:vector(packetBytes):sumweights 1
scalar MultidropNetwork.node[3].app[0].io packetSent:vector(packetBytes):mean 46
scalar MultidropNetwork.node[3].app[0].io packetSent:vector(packetBytes):stddev nan
scalar MultidropNetwork.node[3].app[0].io packetSent:vector(packetBytes):min 46
scalar MultidropNetwork.node[3].app[0].io packetSent:vector(packetBytes):max 46
scalar MultidropNetwork.node[3].app[0].io packetSent:vector(packetBytes):starttime 0.0001508325
scalar MultidropNetwork.node[3].app[0].io packetSent:vector(packetBytes):endtime 0.0001508325
scalar MultidropNetwork.node[3].app[0].io packetReceived:vector(packetBytes):count 0
scalar MultidropNetwork.node[3].app[0].io packetReceived:vector(packetBytes):sum 0
scalar MultidropNetwork.node[3].app[0].io packetReceived:vector(packetBytes):sumweights 0
scalar MultidropNetwork.node[3].app[0].io packetReceived:vector(packetBytes):mean -nan
scalar MultidropNetwork.node[3].app[0].io packetReceived:vector(packetBytes):stddev nan
scalar MultidropNetwork.node[3].app[0].io packetReceived:vector(packetBytes):min inf
scalar MultidropNetwork.node[3].app[0].io packetReceived:vector(packetBytes):max -inf
scalar MultidropNetwork.node[3].app[0].io packetReceived:vector(packetBytes):starttime nan
scalar MultidropNetwork.node[3].app[0].io packetReceived:vector(packetBytes):endtime nan
scalar MultidropNetwork.j[0] packetReceived:vector(packetBytes):count 60
scalar MultidropNetwork.j[0] packetReceived:vector(packetBytes):sum 1124
scalar MultidropNetwork.j[0] packetReceived:vector(packetBytes):sumweights 60
scalar MultidropNetwork.j[0] packetReceived:vector(packetBytes):mean 18.733333333333
scalar MultidropNetwork.j[0] packetReceived:vector(packetBytes):stddev 29.803802889341
scalar MultidropNetwork.j[0] packetReceived:vector(packetBytes):min 0
scalar MultidropNetwork.j[0] packetReceived:vector(packetBytes):max 80
scalar MultidropNetwork.j[0] packetReceived:vector(packetBytes):starttime 5e-09
scalar MultidropNetwork.j[0] packetReceived:vector(packetBytes):endtime 0.000983712
scalar MultidropNetwork.j[0] channelOwner:channelOwner:count 88
scalar MultidropNetwork.j[0] channelOwner:channelOwner:sum 186
scalar MultidropNetwork.j[0] channelOwner:channelOwner:sumweights 88
scalar MultidropNetwork.j[0] channelOwner:channelOwner:mean 2.1136363636364
scalar MultidropNetwork.j[0] channelOwner:channelOwner:stddev 1.2542508702644
scalar MultidropNetwork.j[0] channelOwner:channelOwner:min 1
scalar MultidropNetwork.j[0] channelOwner:channelOwner:max 7
scalar MultidropNetwork.j[0] channelOwner:channelOwner:starttime 5e-09
scalar MultidropNetwork.j[0] channelOwner:channelOwner:endtime 0.000985712
scalar MultidropNetwork.j[1] packetReceived:vector(packetBytes):count 60
scalar MultidropNetwork.j[1] packetReceived:vector(packetBytes):sum 1124
scalar MultidropNetwork.j[1] packetReceived:vector(packetBytes):sumweights 60
scalar MultidropNetwork.j[1] packetReceived:vector(packetBytes):mean 18.733333333333
scalar MultidropNetwork.j[1] packetReceived:vector(packetBytes):stddev 29.803802889341
scalar MultidropNetwork.j[1] packetReceived:vector(packetBytes):min 0
scalar MultidropNetwork.j[1] packetReceived:vector(packetBytes):max 80
scalar MultidropNetwork.j[1] packetReceived:vector(packetBytes):starttime 1e-08
scalar MultidropNetwork.j[1] packetReceived:vector(packetBytes):endtime 0.000983717
scalar MultidropNetwork.j[1] channelOwner:channelOwner:count 88
scalar MultidropNetwork.j[1] channelOwner:channelOwner:sum 186
scalar MultidropNetwork.j[1] channelOwner:channelOwner:sumweights 88
scalar MultidropNetwork.j[1] channelOwner:channelOwner:mean 2.1136363636364
scalar MultidropNetwork.j[1] channelOwner:channelOwner:stddev 1.2542508702644
scalar MultidropNetwork.j[1] channelOwner:channelOwner:min 1
scalar MultidropNetwork.j[1] channelOwner:channelOwner:max 7
scalar MultidropNetwork.j[1] channelOwner:channelOwner:starttime 1e-08
scalar MultidropNetwork.j[1] channelOwner:channelOwner:endtime 0.000985717
scalar MultidropNetwork.j[2] packetReceived:vector(packetBytes):count 60
scalar MultidropNetwork.j[2] packetReceived:vector(packetBytes):sum 1124
scalar MultidropNetwork.j[2] packetReceived:vector(packetBytes):sumweights 60
scalar MultidropNetwork.j[2] packetReceived:vector(packetBytes):mean 18.733333333333
scalar MultidropNetwork.j[2] packetReceived:vector(packetBytes):stddev 29.803802889341
scalar MultidropNetwork.j[2] packetReceived:vector(packetBytes):min 0
scalar MultidropNetwork.j[2] packetReceived:vector(packetBytes):max 80
scalar MultidropNetwork.j[2] packetReceived:vector(packetBytes):starttime 1.5e-08
scalar MultidropNetwork.j[2] packetReceived:vector(packetBytes):endtime 0.000983722
scalar MultidropNetwork.j[2] channelOwner:channelOwner:count 88
scalar MultidropNetwork.j[2] channelOwner:channelOwner:sum 186
scalar MultidropNetwork.j[2] channelOwner:channelOwner:sumweights 88
scalar MultidropNetwork.j[2] channelOwner:channelOwner:mean 2.1136363636364
scalar MultidropNetwork.j[2] channelOwner:channelOwner:stddev 1.2542508702644
scalar MultidropNetwork.j[2] channelOwner:channelOwner:min 1
scalar MultidropNetwork.j[2] channelOwner:channelOwner:max 7
scalar MultidropNetwork.j[2] channelOwner:channelOwner:starttime 1.5e-08
scalar MultidropNetwork.j[2] channelOwner:channelOwner:endtime 0.000985722
scalar MultidropNetwork.j[3] packetReceived:vector(packetBytes):count 60
scalar MultidropNetwork.j[3] packetReceived:vector(packetBytes):sum 1124
scalar MultidropNetwork.j[3] packetReceived:vector(packetBytes):sumweights 60
scalar MultidropNetwork.j[3] packetReceived:vector(packetBytes):mean 18.733333333333
scalar MultidropNetwork.j[3] packetReceived:vector(packetBytes):stddev 29.803802889341
scalar MultidropNetwork.j[3] packetReceived:vector(packetBytes):min 0
scalar MultidropNetwork.j[3] packetReceived:vector(packetBytes):max 80
scalar MultidropNetwork.j[3] packetReceived:vector(packetBytes):starttime 2e-08
scalar MultidropNetwork.j[3] packetReceived:vector(packetBytes):endtime 0.000983727
scalar MultidropNetwork.j[3] channelOwner:channelOwner:count 88
scalar MultidropNetwork.j[3] channelOwner:channelOwner:sum 186
scalar MultidropNetwork.j[3] channelOwner:channelOwner:sumweights 88
scalar MultidropNetwork.j[3] channelOwner:channelOwner:mean 2.1136363636364
scalar MultidropNetwork.j[3] channelOwner:channelOwner:stddev 1.2542508702644
scalar MultidropNetwork.j[3] channelOwner:channelOwner:min 1
scalar MultidropNetwork.j[3] channelOwner:channelOwner:max 7
scalar MultidropNetwork.j[3] channelOwner:channelOwner:starttime 2e-08
scalar MultidropNetwork.j[3] channelOwner:channelOwner:endtime 0.000985727

