version 3
run MultiGeneric-0-20230411-10:32:03-42708
attr configname MultiGeneric
attr datetime 20230411-10:32:03
attr datetimef 20230411-103203
attr description "using generic network protocol on multiple network protocols"
attr experiment MultiGeneric
attr inifile omnetpp.ini
attr iterationvars ""
attr iterationvarsd ""
attr iterationvarsf ""
attr measurement ""
attr network DYMONetwork
attr processid 42708
attr repetition 0
attr replication #0
attr resultdir results
attr runnumber 0
attr seedset 0
config **.param-recording false
config image-path /home/levy/workspace/inet/images
config sim-time-limit 10s
config sim-time-limit 10s
config description "using generic network protocol on multiple network protocols"
config extends _Generic,_Multi
config description "base for generic"
config **.host[*].hasGn true
config **.host[*].generic.typename NextHopNetworkLayer
config **.dymo.routingTableModule "\"^.generic.routingTable\""
config **.dymo.networkProtocolModule "\"^.generic.nextHop\""
config *.host[0].app[0].destAddr "\"host[1](modulepath)\""
config description "multiple network protocols"
config **.host[*].hasIpv4 true
config **.host[*].hasIpv6 true
config **.host[*].hasGn true
config **.host[*].generic.typename NextHopNetworkLayer
config network DYMONetwork
config *.numHosts 20
config num-rngs 3
config **.mobility.rng-0 1
config **.wlan[*].mac.rng-0 2
config **.host[*].mobility.typename StationaryMobility
config **.mobility.constraintAreaMinZ 0m
config **.mobility.constraintAreaMaxZ 0m
config **.mobility.constraintAreaMinX 0m
config **.mobility.constraintAreaMinY 0m
config **.mobility.constraintAreaMaxX 600m
config **.mobility.constraintAreaMaxY 600m
config *.host[0].numApps 1
config *.host[0].app[*].typename PingApp
config *.host[0].app[0].startTime uniform(1s,5s)
config *.host[0].app[0].printPing true
config **.wlan[*].bitrate 2Mbps
config **.wlan[*].mac.dcf.channelAccess.pendingQueue.packetCapacity 14
config **.wlan[*].mac.dcf.channelAccess.cwMin 7
config **.wlan[*].radio.transmitter.power 2mW

scalar DYMONetwork.radioMedium.propagation "Arrival computation count" 119871
scalar DYMONetwork.radioMedium "transmission count" 6309
scalar DYMONetwork.radioMedium "signal send count" 119871
scalar DYMONetwork.radioMedium "reception computation count" 119871
scalar DYMONetwork.radioMedium "interference computation count" 329691
scalar DYMONetwork.radioMedium "reception decision computation count" 43267
scalar DYMONetwork.radioMedium "listening decision computation count" 169325
scalar DYMONetwork.radioMedium "reception cache hit" 82.98608893374
attr unit %
scalar DYMONetwork.radioMedium "interference cache hit" 66.666666666667
attr unit %
scalar DYMONetwork.radioMedium "noise cache hit" 0
attr unit %
scalar DYMONetwork.radioMedium "snir cache hit" 50
attr unit %
scalar DYMONetwork.radioMedium "reception decision cache hit" 50
attr unit %
scalar DYMONetwork.radioMedium "reception result cache hit" 0
attr unit %
scalar DYMONetwork.host[0].lo[0].lo rcvdPkFromHl:count 0
attr interpolationmode none
attr recordingmode count
attr source packetReceivedFromUpper
attr title "packets received from higher layer, count"
scalar DYMONetwork.host[0].lo[0].lo rcvdPkFromHl:sum(packetBytes) 0
attr interpolationmode none
attr recordingmode sum(packetBytes)
attr source packetReceivedFromUpper
attr title "packets received from higher layer, sum(packetBytes)"
scalar DYMONetwork.host[0].lo[0].lo passedUpPk:count 0
attr interpolationmode none
attr recordingmode count
attr source packetSentToUpper
attr title "packets passed to higher layer, count"
scalar DYMONetwork.host[0].lo[0].lo passedUpPk:sum(packetBytes) 0
attr interpolationmode none
attr recordingmode sum(packetBytes)
attr source packetSentToUpper
attr title "packets passed to higher layer, sum(packetBytes)"
scalar DYMONetwork.host[0].lo[0] packetDropInterfaceDown:count 0
attr interpolationmode none
attr recordingmode count
attr source packetDropReasonIsInterfaceDown(packetDropped)
attr title "packet drops: interface down, count"
scalar DYMONetwork.host[0].lo[0] packetDropInterfaceDown:sum(packetBytes) 0
attr interpolationmode none
attr recordingmode sum(packetBytes)
attr source packetDropReasonIsInterfaceDown(packetDropped)
attr title "packet drops: interface down, sum(packetBytes)"
scalar DYMONetwork.host[0].lo[0] packetDropNoCarrier:count 0
attr interpolationmode none
attr recordingmode count
attr source packetDropReasonIsNoCarrier(packetDropped)
attr title "packet drops: no carrier, count"
scalar DYMONetwork.host[0].lo[0] packetDropNoCarrier:sum(packetBytes) 0
attr interpolationmode none
attr recordingmode sum(packetBytes)
attr source packetDropReasonIsNoCarrier(packetDropped)
attr title "packet drops: no carrier, sum(packetBytes)"
scalar DYMONetwork.host[0].wlan[0].mac.dcf.channelAccess.pendingQueue queueLength:last 0
attr autoWarmupFilter false
attr interpolationmode sample-hold
attr recordingmode last
attr source "warmup(atomic(constant0(packetPushEnded) + count(packetPushStarted) - count(packetPulled) - count(packetRemoved) - count(packetDropped)))"
attr title "queue length, last"
attr unit pk
scalar DYMONetwork.host[0].wlan[0].mac.dcf.channelAccess.pendingQueue queueLength:max 9
attr autoWarmupFilter false
attr interpolationmode sample-hold
attr recordingmode max
attr source "warmup(atomic(constant0(packetPushEnded) + count(packetPushStarted) - count(packetPulled) - count(packetRemoved) - count(packetDropped)))"
attr title "queue length, max"
attr unit pk
scalar DYMONetwork.host[0].wlan[0].mac.dcf.channelAccess.pendingQueue queueLength:timeavg 0.23695671168362
attr autoWarmupFilter false
attr interpolationmode sample-hold
attr recordingmode timeavg
attr source "warmup(atomic(constant0(packetPushEnded) + count(packetPushStarted) - count(packetPulled) - count(packetRemoved) - count(packetDropped)))"
attr title "queue length, timeavg"
attr unit pk
scalar DYMONetwork.host[0].wlan[0].mac.dcf.channelAccess.pendingQueue queueBitLength:last 0
attr autoWarmupFilter false
attr interpolationmode sample-hold
attr recordingmode last
attr source "warmup(atomic(constant0(packetPushEnded) + sum(packetLength(packetPushStarted)) - sum(packetLength(packetPulled)) - sum(packetLength(packetRemoved)) - sum(packetLength(packetDropped))))"
attr title "queue bit length, last"
attr unit b
scalar DYMONetwork.host[0].wlan[0].mac.dcf.channelAccess.pendingQueue queueBitLength:max 7696
attr autoWarmupFilter false
attr interpolationmode sample-hold
attr recordingmode max
attr source "warmup(atomic(constant0(packetPushEnded) + sum(packetLength(packetPushStarted)) - sum(packetLength(packetPulled)) - sum(packetLength(packetRemoved)) - sum(packetLength(packetDropped))))"
attr title "queue bit length, max"
attr unit b
scalar DYMONetwork.host[0].wlan[0].mac.dcf.channelAccess.pendingQueue queueBitLength:timeavg 191.54446814448
attr autoWarmupFilter false
attr interpolationmode sample-hold
attr recordingmode timeavg
attr source "warmup(atomic(constant0(packetPushEnded) + sum(packetLength(packetPushStarted)) - sum(packetLength(packetPulled)) - sum(packetLength(packetRemoved)) - sum(packetLength(packetDropped))))"
attr title "queue bit length, timeavg"
attr unit b
statistic DYMONetwork.host[0].wlan[0].mac.dcf.channelAccess.pendingQueue queueingTime:histogram
field count 235
field mean 0.010033912473762
field stddev 0.031520005361524
field min 0
field max 0.18739033144
field sum 2.357969431334
field sqrsum 0.25614117157959
attr interpolationmode none
attr recordingmode histogram
attr source queueingTime(packetPulled)
attr title "queueing times"
attr unit s
bin	-inf	0
bin	0	205
bin	0.005	2
bin	0.01	0
bin	0.015	1
bin	0.02	0
bin	0.025	2
bin	0.03	1
bin	0.035	3
bin	0.04	0
bin	0.045	1
bin	0.05	2
bin	0.055	3
bin	0.06	1
bin	0.065	2
bin	0.07	0
bin	0.075	0
bin	0.08	1
bin	0.085	1
bin	0.09	0
bin	0.095	0
bin	0.1	2
bin	0.105	2
bin	0.11	0
bin	0.115	0
bin	0.12	0
bin	0.125	0
bin	0.13	0
bin	0.135	2
bin	0.14	0
bin	0.145	0
bin	0.15	1
bin	0.155	0
bin	0.16	0
bin	0.165	0
bin	0.17	1
bin	0.175	0
bin	0.18	1
bin	0.185	1
bin	0.19	0
bin	0.195	0
bin	0.2	0
bin	0.205	0
bin	0.21	0
bin	0.215	0
bin	0.22	0
bin	0.225	0
bin	0.23	0
bin	0.235	0
scalar DYMONetwork.host[0].wlan[0].mac.dcf.channelAccess.pendingQueue outgoingPackets:count 235
attr recordingmode count
attr source packetPulled
attr title "outgoing packets, count"
attr unit pk
scalar DYMONetwork.host[0].wlan[0].mac.dcf.channelAccess.pendingQueue outgoingPacketLengths:sum 199920
attr interpolationmode none
attr recordingmode sum
attr source packetLength(packetPulled)
attr title "outgoing packet lengths, sum"
attr unit b
statistic DYMONetwork.host[0].wlan[0].mac.dcf.channelAccess.pendingQueue outgoingPacketLengths:histogram
field count 235
field mean 850.72340425532
field stddev 54.901972520594
field min 656
field max 944
field sum 199920
field sqrsum 170781952
attr interpolationmode none
attr recordingmode histogram
attr source packetLength(packetPulled)
attr title "outgoing packet lengths"
attr unit b
bin	-inf	0
bin	656	15
bin	660	0
bin	664	0
bin	668	0
bin	672	0
bin	676	0
bin	680	0
bin	684	0
bin	688	0
bin	692	0
bin	696	0
bin	700	0
bin	704	0
bin	708	0
bin	712	0
bin	716	0
bin	720	0
bin	724	0
bin	728	0
bin	732	0
bin	736	0
bin	740	0
bin	744	0
bin	748	0
bin	752	4
bin	756	0
bin	760	0
bin	764	0
bin	768	0
bin	772	0
bin	776	0
bin	780	0
bin	784	0
bin	788	0
bin	792	0
bin	796	0
bin	800	3
bin	804	0
bin	808	0
bin	812	0
bin	816	0
bin	820	0
bin	824	0
bin	828	0
bin	832	0
bin	836	0
bin	840	0
bin	844	0
bin	848	0
bin	852	0
bin	856	0
bin	860	0
bin	864	198
bin	868	0
bin	872	0
bin	876	0
bin	880	2
bin	884	0
bin	888	0
bin	892	0
bin	896	9
bin	900	0
bin	904	0
bin	908	0
bin	912	0
bin	916	0
bin	920	0
bin	924	0
bin	928	0
bin	932	0
bin	936	0
bin	940	0
bin	944	4
bin	948	0
statistic DYMONetwork.host[0].wlan[0].mac.dcf.channelAccess.pendingQueue flowQueueingTime:histogram
field count 0
field mean -nan
field stddev nan
field min nan
field max nan
field sum 0
field sqrsum 0
attr interpolationmode none
attr recordingmode histogram
attr source queueingTime(demuxFlow(packetPulled))
attr title "flow queueing times"
attr unit s
bin	-inf	0
bin	0	0
bin	1	0
scalar DYMONetwork.host[0].wlan[0].mac.dcf.channelAccess.pendingQueue incomingPackets:count 235
attr recordingmode count
attr source packetPushStarted
attr title "incoming packets, count"
attr unit pk
scalar DYMONetwork.host[0].wlan[0].mac.dcf.channelAccess.pendingQueue incomingPacketLengths:sum 199920
attr interpolationmode none
attr recordingmode sum
attr source packetLength(packetPushStarted)
attr title "incoming packet lengths, sum"
attr unit b
statistic DYMONetwork.host[0].wlan[0].mac.dcf.channelAccess.pendingQueue incomingPacketLengths:histogram
field count 235
field mean 850.72340425532
field stddev 54.901972520594
field min 656
field max 944
field sum 199920
field sqrsum 170781952
attr interpolationmode none
attr recordingmode histogram
attr source packetLength(packetPushStarted)
attr title "incoming packet lengths"
attr unit b
bin	-inf	0
bin	656	15
bin	660	0
bin	664	0
bin	668	0
bin	672	0
bin	676	0
bin	680	0
bin	684	0
bin	688	0
bin	692	0
bin	696	0
bin	700	0
bin	704	0
bin	708	0
bin	712	0
bin	716	0
bin	720	0
bin	724	0
bin	728	0
bin	732	0
bin	736	0
bin	740	0
bin	744	0
bin	748	0
bin	752	4
bin	756	0
bin	760	0
bin	764	0
bin	768	0
bin	772	0
bin	776	0
bin	780	0
bin	784	0
bin	788	0
bin	792	0
bin	796	0
bin	800	3
bin	804	0
bin	808	0
bin	812	0
bin	816	0
bin	820	0
bin	824	0
bin	828	0
bin	832	0
bin	836	0
bin	840	0
bin	844	0
bin	848	0
bin	852	0
bin	856	0
bin	860	0
bin	864	198
bin	868	0
bin	872	0
bin	876	0
bin	880	2
bin	884	0
bin	888	0
bin	892	0
bin	896	9
bin	900	0
bin	904	0
bin	908	0
bin	912	0
bin	916	0
bin	920	0
bin	924	0
bin	928	0
bin	932	0
bin	936	0
bin	940	0
bin	944	4
bin	948	0
scalar DYMONetwork.host[0].wlan[0].mac.dcf.channelAccess.pendingQueue droppedPacketsQueueOverflow:count 0
attr interpolationmode none
attr recordingmode count
attr source packetDropReasonIsQueueOverflow(packetDropped)
attr title "dropped packets: queue overflow, count"
attr unit pk
scalar DYMONetwork.host[0].wlan[0].mac.dcf.channelAccess.pendingQueue droppedPacketLengthsQueueOverflow:sum 0
attr interpolationmode none
attr recordingmode sum
attr source packetLength(packetDropReasonIsQueueOverflow(packetDropped))
attr title "dropped packet lengths: queue overflow, sum"
attr unit b
statistic DYMONetwork.host[0].wlan[0].mac.dcf.channelAccess.inProgressFrames queueingTime:histogram
field count 235
field mean 0.0048949815386893
field stddev 0.0175938239813
field min 0.00052
field max 0.146071348328
field sum 1.150320661592
field sqrsum 0.078063776696745
attr interpolationmode none
attr recordingmode histogram
attr source queueingTime(packetDequeued)
attr title "queueing times"
bin	-inf	0
bin	0	214
bin	0.002	2
bin	0.004	3
bin	0.006	0
bin	0.008	0
bin	0.01	0
bin	0.012	0
bin	0.014	1
bin	0.016	1
bin	0.018	0
bin	0.02	0
bin	0.022	0
bin	0.024	0
bin	0.026	0
bin	0.028	0
bin	0.03	0
bin	0.032	1
bin	0.034	0
bin	0.036	0
bin	0.038	0
bin	0.04	0
bin	0.042	0
bin	0.044	1
bin	0.046	1
bin	0.048	0
bin	0.05	0
bin	0.052	1
bin	0.054	1
bin	0.056	1
bin	0.058	1
bin	0.06	1
bin	0.062	0
bin	0.064	3
bin	0.066	0
bin	0.068	0
bin	0.07	0
bin	0.072	0
bin	0.074	0
bin	0.076	1
bin	0.078	0
bin	0.08	0
bin	0.082	0
bin	0.084	0
bin	0.086	0
bin	0.088	0
bin	0.09	0
bin	0.092	0
bin	0.094	0
bin	0.096	0
bin	0.098	0
bin	0.1	0
bin	0.102	0
bin	0.104	0
bin	0.106	0
bin	0.108	0
bin	0.11	0
bin	0.112	0
bin	0.114	0
bin	0.116	0
bin	0.118	0
bin	0.12	0
bin	0.122	0
bin	0.124	1
bin	0.126	0
bin	0.128	0
bin	0.13	0
bin	0.132	0
bin	0.134	0
bin	0.136	0
bin	0.138	0
bin	0.14	0
bin	0.142	0
bin	0.144	0
bin	0.146	1
bin	0.148	0
scalar DYMONetwork.host[0].wlan[0].mac.dcf.channelAccess.inProgressFrames queueLength:max 2
attr autoWarmupFilter false
attr interpolationmode sample-hold
attr recordingmode max
attr source "warmup(count(packetEnqueued) - count(packetDequeued))"
attr title "queue length, max"
scalar DYMONetwork.host[0].wlan[0].mac.dcf.channelAccess.inProgressFrames queueLength:timeavg 0.1150320661592
attr autoWarmupFilter false
attr interpolationmode sample-hold
attr recordingmode timeavg
attr source "warmup(count(packetEnqueued) - count(packetDequeued))"
attr title "queue length, timeavg"
scalar DYMONetwork.host[0].wlan[0].mac.dcf.channelAccess.contention channelAccessGranted:count 286
attr recordingmode count
attr title "channel access granted, count"
scalar DYMONetwork.host[0].wlan[0].mac.dcf.channelAccess.contention stateChanged:count 12700
attr enum IDLE,DEFER,IFS_AND_BACKOFF
attr interpolationmode none
attr recordingmode count
attr title "contention state changed, count"
attr type enum
scalar DYMONetwork.host[0].wlan[0].mac.dcf.channelAccess channelOwnershipChanged:count 572
attr interpolationmode sample-hold
attr recordingmode count
attr title "channel ownership, count"
scalar DYMONetwork.host[0].wlan[0].mac.dcf.originatorMacDataService packetAggregated:count 0
attr recordingmode count
attr title "packets aggregated, count"
scalar DYMONetwork.host[0].wlan[0].mac.dcf.originatorMacDataService packetFragmented:count 0
attr recordingmode count
attr title "packets fragmented, count"
scalar DYMONetwork.host[0].wlan[0].mac.dcf.recipientMacDataService packetDeaggregated:count 0
attr recordingmode count
attr title "packets deaggregated, count"
scalar DYMONetwork.host[0].wlan[0].mac.dcf.recipientMacDataService packetDefragmented:count 1157
attr recordingmode count
attr title "packets defragmented, count"
scalar DYMONetwork.host[0].wlan[0].mac.dcf.recipientMacDataService packetDropDuplicateDetected:count 0
attr interpolationmode none
attr recordingmode count
attr source packetDropReasonIsDuplicateDetected(packetDropped)
attr title "packet drops: duplicate detected, count"
scalar DYMONetwork.host[0].wlan[0].mac.dcf.recipientMacDataService packetDropDuplicateDetected:sum(packetBytes) 0
attr interpolationmode none
attr recordingmode sum(packetBytes)
attr source packetDropReasonIsDuplicateDetected(packetDropped)
attr title "packet drops: duplicate detected, sum(packetBytes)"
scalar DYMONetwork.host[0].wlan[0].mac.dcf.recoveryProcedure retryLimitReached:count 5
attr recordingmode count
attr title "retry limit reached, count"
scalar DYMONetwork.host[0].wlan[0].mac.dcf frameSequenceFinished:count 286
attr recordingmode count
attr title "finished frame sequences, count"
statistic DYMONetwork.host[0].wlan[0].mac.dcf frameSequenceDuration:histogram
field count 286
field mean 0.00065517798069231
field stddev 7.1981515387147e-05
field min 0.00052
field max 0.001231349254
field sum 0.187380902478
field sqrsum 0.00012424452279471
attr recordingmode histogram
attr source frameSequenceDuration(frameSequenceFinished)
attr title "frame sequence durations"
bin	-inf	0
bin	0.000519	4
bin	0.000531	0
bin	0.000543	0
bin	0.000555	0
bin	0.000567	4
bin	0.000579	0
bin	0.000591	3
bin	0.000603	0
bin	0.000615	198
bin	0.000627	0
bin	0.000639	9
bin	0.000651	0
bin	0.000663	4
bin	0.000675	0
bin	0.000687	0
bin	0.000699	0
bin	0.000711	0
bin	0.000723	0
bin	0.000735	46
bin	0.000747	0
bin	0.000759	0
bin	0.000771	9
bin	0.000783	0
bin	0.000795	0
bin	0.000807	0
bin	0.000819	0
bin	0.000831	0
bin	0.000843	6
bin	0.000855	0
bin	0.000867	0
bin	0.000879	1
bin	0.000891	1
bin	0.000903	0
bin	0.000915	0
bin	0.000927	0
bin	0.000939	0
bin	0.000951	0
bin	0.000963	0
bin	0.000975	0
bin	0.000987	0
bin	0.000999	0
bin	0.001011	0
bin	0.001023	0
bin	0.001035	0
bin	0.001047	0
bin	0.001059	0
bin	0.001071	0
bin	0.001083	0
bin	0.001095	0
bin	0.001107	0
bin	0.001119	0
bin	0.001131	0
bin	0.001143	0
bin	0.001155	0
bin	0.001167	0
bin	0.001179	0
bin	0.001191	0
bin	0.001203	0
bin	0.001215	0
bin	0.001227	1
bin	0.001239	0
statistic DYMONetwork.host[0].wlan[0].mac.dcf frameSequenceNumPackets:histogram
field count 286
field mean 1.2237762237762
field stddev 0.41750437198392
field min 1
field max 2
field sum 350
field sqrsum 478
attr recordingmode histogram
attr source frameSequenceNumPackets(frameSequenceFinished)
attr title "frame sequences: number of packets"
bin	-inf	0
bin	0	0
bin	1	222
bin	2	64
bin	3	0
scalar DYMONetwork.host[0].wlan[0].mac.dcf packetReceivedFromPeer:count 1165
attr interpolationmode none
attr recordingmode count
attr title "packets received, count"
scalar DYMONetwork.host[0].wlan[0].mac.dcf packetReceivedFromPeer:sum(packetBytes) 125186
attr interpolationmode none
attr recordingmode sum(packetBytes)
attr title "packets received, sum(packetBytes)"
scalar DYMONetwork.host[0].wlan[0].mac.dcf packetReceivedFromPeerUnicast:count 12
attr interpolationmode none
attr recordingmode count
attr source ieee80211Unicast(packetReceivedFromPeer)
attr title "packets received: unicast, count"
scalar DYMONetwork.host[0].wlan[0].mac.dcf packetReceivedFromPeerUnicast:sum(packetBytes) 522
attr interpolationmode none
attr recordingmode sum(packetBytes)
attr source ieee80211Unicast(packetReceivedFromPeer)
attr title "packets received: unicast, sum(packetBytes)"
scalar DYMONetwork.host[0].wlan[0].mac.dcf packetReceivedFromPeerMulticast:count 1153
attr interpolationmode none
attr recordingmode count
attr source ieee80211Multicast(packetReceivedFromPeer)
attr title "packets received: multicast, count"
scalar DYMONetwork.host[0].wlan[0].mac.dcf packetReceivedFromPeerMulticast:sum(packetBytes) 124664
attr interpolationmode none
attr recordingmode sum(packetBytes)
attr source ieee80211Multicast(packetReceivedFromPeer)
attr title "packets received: multicast, sum(packetBytes)"
scalar DYMONetwork.host[0].wlan[0].mac.dcf packetReceivedFromPeerBroadcast:count 1066
attr interpolationmode none
attr recordingmode count
attr source ieee80211Broadcast(packetReceivedFromPeer)
attr title "packets received: broadcast, count"
scalar DYMONetwork.host[0].wlan[0].mac.dcf packetReceivedFromPeerBroadcast:sum(packetBytes) 115088
attr interpolationmode none
attr recordingmode sum(packetBytes)
attr source ieee80211Broadcast(packetReceivedFromPeer)
attr title "packets received: broadcast, sum(packetBytes)"
scalar DYMONetwork.host[0].wlan[0].mac.dcf packetReceivedFromPeerWithRetry:count 1
attr interpolationmode none
attr recordingmode count
attr source ieee80211Retry(packetReceivedFromPeer)
attr title "packets received: with retry, count"
scalar DYMONetwork.host[0].wlan[0].mac.dcf packetReceivedFromPeerWithRetry:sum(packetBytes) 100
attr interpolationmode none
attr recordingmode sum(packetBytes)
attr source ieee80211Retry(packetReceivedFromPeer)
attr title "packets received: with retry, sum(packetBytes)"
scalar DYMONetwork.host[0].wlan[0].mac.dcf packetReceivedFromPeerWithoutRetry:count 1164
attr interpolationmode none
attr recordingmode count
attr source ieee80211NotRetry(packetReceivedFromPeer)
attr title "packets received: without retry, count"
scalar DYMONetwork.host[0].wlan[0].mac.dcf packetReceivedFromPeerWithoutRetry:sum(packetBytes) 125086
attr interpolationmode none
attr recordingmode sum(packetBytes)
attr source ieee80211NotRetry(packetReceivedFromPeer)
attr title "packets received: without retry, sum(packetBytes)"
scalar DYMONetwork.host[0].wlan[0].mac.dcf packetSentToPeer:count 290
attr interpolationmode none
attr recordingmode count
attr title "packets sent, count"
scalar DYMONetwork.host[0].wlan[0].mac.dcf packetSentToPeer:sum(packetBytes) 29396
attr interpolationmode none
attr recordingmode sum(packetBytes)
attr title "packets sent, sum(packetBytes)"
scalar DYMONetwork.host[0].wlan[0].mac.dcf packetSentToPeerUnicast:count 68
attr interpolationmode none
attr recordingmode count
attr source ieee80211Unicast(packetSentToPeer)
attr title "packets sent: unicast, count"
scalar DYMONetwork.host[0].wlan[0].mac.dcf packetSentToPeerUnicast:sum(packetBytes) 5528
attr interpolationmode none
attr recordingmode sum(packetBytes)
attr source ieee80211Unicast(packetSentToPeer)
attr title "packets sent: unicast, sum(packetBytes)"
scalar DYMONetwork.host[0].wlan[0].mac.dcf packetSentToPeerMulticast:count 222
attr interpolationmode none
attr recordingmode count
attr source ieee80211Multicast(packetSentToPeer)
attr title "packets sent: multicast, count"
scalar DYMONetwork.host[0].wlan[0].mac.dcf packetSentToPeerMulticast:sum(packetBytes) 23868
attr interpolationmode none
attr recordingmode sum(packetBytes)
attr source ieee80211Multicast(packetSentToPeer)
attr title "packets sent: multicast, sum(packetBytes)"
scalar DYMONetwork.host[0].wlan[0].mac.dcf packetSentToPeerBroadcast:count 199
attr interpolationmode none
attr recordingmode count
attr source ieee80211Broadcast(packetSentToPeer)
attr title "packets sent: broadcast , count"
scalar DYMONetwork.host[0].wlan[0].mac.dcf packetSentToPeerBroadcast:sum(packetBytes) 21484
attr interpolationmode none
attr recordingmode sum(packetBytes)
attr source ieee80211Broadcast(packetSentToPeer)
attr title "packets sent: broadcast , sum(packetBytes)"
scalar DYMONetwork.host[0].wlan[0].mac.dcf packetSentToPeerWithRetry:count 51
attr interpolationmode none
attr recordingmode count
attr source ieee80211Retry(packetSentToPeer)
attr title "packets sent: with retry, count"
scalar DYMONetwork.host[0].wlan[0].mac.dcf packetSentToPeerWithRetry:sum(packetBytes) 4350
attr interpolationmode none
attr recordingmode sum(packetBytes)
attr source ieee80211Retry(packetSentToPeer)
attr title "packets sent: with retry, sum(packetBytes)"
scalar DYMONetwork.host[0].wlan[0].mac.dcf packetSentToPeerWithoutRetry:count 239
attr interpolationmode none
attr recordingmode count
attr source ieee80211NotRetry(packetSentToPeer)
attr title "packets sent: without retry, count"
scalar DYMONetwork.host[0].wlan[0].mac.dcf packetSentToPeerWithoutRetry:sum(packetBytes) 25046
attr interpolationmode none
attr recordingmode sum(packetBytes)
attr source ieee80211NotRetry(packetSentToPeer)
attr title "packets sent: without retry, sum(packetBytes)"
scalar DYMONetwork.host[0].wlan[0].mac.dcf packetDrop:count 63
attr interpolationmode none
attr recordingmode count
attr source packetDropped
attr title "packet drops, count"
scalar DYMONetwork.host[0].wlan[0].mac.dcf packetDrop:sum(packetBytes) 3124
attr interpolationmode none
attr recordingmode sum(packetBytes)
attr source packetDropped
attr title "packet drops, sum(packetBytes)"
scalar DYMONetwork.host[0].wlan[0].mac.dcf packetDropNotAddressedToUs:count 58
attr interpolationmode none
attr recordingmode count
attr source packetDropReasonIsNotAddressedToUs(packetDropped)
attr title "packet drops: not addressed to us, count"
scalar DYMONetwork.host[0].wlan[0].mac.dcf packetDropNotAddressedToUs:sum(packetBytes) 2686
attr interpolationmode none
attr recordingmode sum(packetBytes)
attr source packetDropReasonIsNotAddressedToUs(packetDropped)
attr title "packet drops: not addressed to us, sum(packetBytes)"
scalar DYMONetwork.host[0].wlan[0].mac.dcf packetDropQueueOverflow:count 0
attr interpolationmode none
attr recordingmode count
attr source packetDropReasonIsQueueOverflow(packetDropped)
attr title "packet drops: queue overflow, count"
scalar DYMONetwork.host[0].wlan[0].mac.dcf packetDropQueueOverflow:sum(packetBytes) 0
attr interpolationmode none
attr recordingmode sum(packetBytes)
attr source packetDropReasonIsQueueOverflow(packetDropped)
attr title "packet drops: queue overflow, sum(packetBytes)"
scalar DYMONetwork.host[0].wlan[0].mac.dcf packetDropRetryLimitReached:count 5
attr interpolationmode none
attr recordingmode count
attr source packetDropReasonIsRetryLimitReached(packetDropped)
attr title "packet drops: retry limit reached, count"
scalar DYMONetwork.host[0].wlan[0].mac.dcf packetDropRetryLimitReached:sum(packetBytes) 438
attr interpolationmode none
attr recordingmode sum(packetBytes)
attr source packetDropReasonIsRetryLimitReached(packetDropped)
attr title "packet drops: retry limit reached, sum(packetBytes)"
scalar DYMONetwork.host[0].wlan[0].mac.dcf linkBroken:count 5
attr interpolationmode none
attr recordingmode count
attr title "link breaks, count"
scalar DYMONetwork.host[0].wlan[0].mac packetReceivedFromLower:count 1913
attr interpolationmode none
attr recordingmode count
attr title "packets received from lower layer, count"
scalar DYMONetwork.host[0].wlan[0].mac packetReceivedFromLower:sum(packetBytes) 200950
attr interpolationmode none
attr recordingmode sum(packetBytes)
attr title "packets received from lower layer, sum(packetBytes)"
scalar DYMONetwork.host[0].wlan[0].mac packetSentToLower:count 290
attr interpolationmode none
attr recordingmode count
attr title "packets sent to lower layer, count"
scalar DYMONetwork.host[0].wlan[0].mac packetSentToLower:sum(packetBytes) 29396
attr interpolationmode none
attr recordingmode sum(packetBytes)
attr title "packets sent to lower layer, sum(packetBytes)"
scalar DYMONetwork.host[0].wlan[0].mac packetReceivedFromUpper:count 235
attr interpolationmode none
attr recordingmode count
attr title "packets received from upper layer, count"
scalar DYMONetwork.host[0].wlan[0].mac packetReceivedFromUpper:sum(packetBytes) 18410
attr interpolationmode none
attr recordingmode sum(packetBytes)
attr title "packets received from upper layer, sum(packetBytes)"
scalar DYMONetwork.host[0].wlan[0].mac packetSentToUpper:count 1157
attr interpolationmode none
attr recordingmode count
attr title "packets sent to upper layer, count"
scalar DYMONetwork.host[0].wlan[0].mac packetSentToUpper:sum(packetBytes) 92678
attr interpolationmode none
attr recordingmode sum(packetBytes)
attr title "packets sent to upper layer, sum(packetBytes)"
scalar DYMONetwork.host[0].wlan[0].mac packetDrop:count 753
attr interpolationmode none
attr recordingmode count
attr source packetDropped
attr title "packet drops, count"
scalar DYMONetwork.host[0].wlan[0].mac packetDrop:sum(packetBytes) 76202
attr interpolationmode none
attr recordingmode sum(packetBytes)
attr source packetDropped
attr title "packet drops, sum(packetBytes)"
scalar DYMONetwork.host[0].wlan[0].mac packetDropIncorrectlyReceived:count 690
attr interpolationmode none
attr recordingmode count
attr source packetDropReasonIsIncorrectlyReceived(packetDropped)
attr title "packet drops: incorrectly received, count"
scalar DYMONetwork.host[0].wlan[0].mac packetDropIncorrectlyReceived:sum(packetBytes) 73078
attr interpolationmode none
attr recordingmode sum(packetBytes)
attr source packetDropReasonIsIncorrectlyReceived(packetDropped)
attr title "packet drops: incorrectly received, sum(packetBytes)"
scalar DYMONetwork.host[0].wlan[0].mac packetDropNotAddressedToUs:count 58
attr interpolationmode none
attr recordingmode count
attr source packetDropReasonIsNotAddressedToUs(packetDropped)
attr title "packet drops: not addressed to us, count"
scalar DYMONetwork.host[0].wlan[0].mac packetDropNotAddressedToUs:sum(packetBytes) 2686
attr interpolationmode none
attr recordingmode sum(packetBytes)
attr source packetDropReasonIsNotAddressedToUs(packetDropped)
attr title "packet drops: not addressed to us, sum(packetBytes)"
scalar DYMONetwork.host[0].wlan[0].mac packetDropQueueOverflow:count 0
attr interpolationmode none
attr recordingmode count
attr source packetDropReasonIsQueueOverflow(packetDropped)
attr title "packet drops: queue overflow, count"
scalar DYMONetwork.host[0].wlan[0].mac packetDropQueueOverflow:sum(packetBytes) 0
attr interpolationmode none
attr recordingmode sum(packetBytes)
attr source packetDropReasonIsQueueOverflow(packetDropped)
attr title "packet drops: queue overflow, sum(packetBytes)"
scalar DYMONetwork.host[0].wlan[0].mac packetDropRetryLimitReached:count 5
attr interpolationmode none
attr recordingmode count
attr source packetDropReasonIsRetryLimitReached(packetDropped)
attr title "packet drops: retry limit reached, count"
scalar DYMONetwork.host[0].wlan[0].mac packetDropRetryLimitReached:sum(packetBytes) 438
attr interpolationmode none
attr recordingmode sum(packetBytes)
attr source packetDropReasonIsRetryLimitReached(packetDropped)
attr title "packet drops: retry limit reached, sum(packetBytes)"
scalar DYMONetwork.host[0].wlan[0].mac packetDropDuplicateDetected:count 0
attr interpolationmode none
attr recordingmode count
attr source packetDropReasonIsDuplicateDetected(packetDropped)
attr title "packet drops: duplicate detected, count"
scalar DYMONetwork.host[0].wlan[0].mac packetDropDuplicateDetected:sum(packetBytes) 0
attr interpolationmode none
attr recordingmode sum(packetBytes)
attr source packetDropReasonIsDuplicateDetected(packetDropped)
attr title "packet drops: duplicate detected, sum(packetBytes)"
scalar DYMONetwork.host[0].wlan[0].mac packetDropOther:count 0
attr interpolationmode none
attr recordingmode count
attr source packetDropReasonIsOther(packetDropped)
attr title "packet drops: other, count"
scalar DYMONetwork.host[0].wlan[0].mac packetDropOther:sum(packetBytes) 0
attr interpolationmode none
attr recordingmode sum(packetBytes)
attr source packetDropReasonIsOther(packetDropped)
attr title "packet drops: other, sum(packetBytes)"
scalar DYMONetwork.host[0].wlan[0].mac linkBroken:count 5
attr interpolationmode none
attr recordingmode count
attr title "link breaks, count"
statistic DYMONetwork.host[0].wlan[0].radio radioChannel:histogram
field count 1
field mean 0
field stddev nan
field min 0
field max 0
field sum 0
field sqrsum 0
attr interpolationmode sample-hold
attr recordingmode histogram
attr source radioChannelChanged
attr title "Radio channel"
bin	-inf	0
bin	-0.5	0
bin	-0.48	0
bin	-0.46	0
bin	-0.44	0
bin	-0.42	0
bin	-0.4	0
bin	-0.38	0
bin	-0.36	0
bin	-0.34	0
bin	-0.32	0
bin	-0.3	0
bin	-0.28	0
bin	-0.26	0
bin	-0.24	0
bin	-0.22	0
bin	-0.2	0
bin	-0.18	0
bin	-0.16	0
bin	-0.14	0
bin	-0.12	0
bin	-0.1	0
bin	-0.08	0
bin	-0.06	0
bin	-0.04	0
bin	-0.02	0
bin	0	1
bin	0.02	0
bin	0.04	0
bin	0.06	0
bin	0.08	0
bin	0.1	0
bin	0.12	0
bin	0.14	0
bin	0.16	0
bin	0.18	0
bin	0.2	0
bin	0.22	0
bin	0.24	0
bin	0.26	0
bin	0.28	0
bin	0.3	0
bin	0.32	0
bin	0.34	0
bin	0.36	0
bin	0.38	0
bin	0.4	0
bin	0.42	0
bin	0.44	0
bin	0.46	0
bin	0.48	0
bin	0.5	0
scalar DYMONetwork.host[0].wlan[0].radio radioMode:count 583
attr interpolationmode sample-hold
attr recordingmode count
attr source radioModeChanged
attr title "Radio mode, count"
scalar DYMONetwork.host[0].wlan[0].radio receptionState:count 5168
attr interpolationmode sample-hold
attr recordingmode count
attr source receptionStateChanged
attr title "Radio reception state, count"
scalar DYMONetwork.host[0].wlan[0].radio transmissionState:count 1160
attr interpolationmode sample-hold
attr recordingmode count
attr source transmissionStateChanged
attr title "Radio transmission state, count"
statistic DYMONetwork.host[0].wlan[0].radio minSnir:histogram
field count 1913
field mean 381.33221966268
field stddev 419.24641899116
field min 0.37942565581021
field max 1436.5760870586
field sum 729488.53621471
field sqrsum 614245057.14142
attr recordingmode histogram
attr source minimumSnir(packetSentToUpper)
attr title "Min SNIR"
bin	-inf	0
bin	0	774
bin	20	0
bin	40	0
bin	60	0
bin	80	0
bin	100	0
bin	120	0
bin	140	0
bin	160	0
bin	180	0
bin	200	0
bin	220	0
bin	240	0
bin	260	0
bin	280	0
bin	300	0
bin	320	0
bin	340	229
bin	360	0
bin	380	192
bin	400	123
bin	420	0
bin	440	0
bin	460	159
bin	480	0
bin	500	0
bin	520	0
bin	540	0
bin	560	0
bin	580	0
bin	600	133
bin	620	0
bin	640	0
bin	660	0
bin	680	0
bin	700	0
bin	720	0
bin	740	0
bin	760	0
bin	780	0
bin	800	0
bin	820	0
bin	840	0
bin	860	0
bin	880	0
bin	900	0
bin	920	0
bin	940	0
bin	960	0
bin	980	162
bin	1000	0
bin	1020	0
bin	1040	0
bin	1060	0
bin	1080	0
bin	1100	0
bin	1120	0
bin	1140	0
bin	1160	0
bin	1180	0
bin	1200	0
bin	1220	0
bin	1240	0
bin	1260	0
bin	1280	0
bin	1300	0
bin	1320	0
bin	1340	0
bin	1360	0
bin	1380	0
bin	1400	0
bin	1420	141
bin	1440	0
bin	1460	0
bin	1480	0
bin	1500	0
bin	1520	0
bin	1540	0
bin	1560	0
bin	1580	0
bin	1600	0
bin	1620	0
bin	1640	0
bin	1660	0
bin	1680	0
bin	1700	0
bin	1720	0
bin	1740	0
bin	1760	0
bin	1780	0
bin	1800	0
statistic DYMONetwork.host[0].wlan[0].radio packetErrorRate:histogram
field count 1913
field mean 0.36020406128688
field stddev 0.46633481250022
field min 0
field max 1
field sum 689.07036924181
field sqrsum 664.00506236581
attr recordingmode histogram
attr source packetErrorRate(packetSentToUpper)
attr title "Packet error rate"
bin	-inf	0
bin	0	1143
bin	0.02	6
bin	0.04	0
bin	0.06	1
bin	0.08	11
bin	0.1	12
bin	0.12	3
bin	0.14	16
bin	0.16	0
bin	0.18	0
bin	0.2	0
bin	0.22	0
bin	0.24	0
bin	0.26	11
bin	0.28	3
bin	0.3	0
bin	0.32	0
bin	0.34	0
bin	0.36	0
bin	0.38	2
bin	0.4	4
bin	0.42	0
bin	0.44	3
bin	0.46	0
bin	0.48	0
bin	0.5	0
bin	0.52	0
bin	0.54	1
bin	0.56	5
bin	0.58	8
bin	0.6	2
bin	0.62	2
bin	0.64	1
bin	0.66	10
bin	0.68	7
bin	0.7	2
bin	0.72	7
bin	0.74	5
bin	0.76	1
bin	0.78	0
bin	0.8	0
bin	0.82	0
bin	0.84	3
bin	0.86	0
bin	0.88	10
bin	0.9	17
bin	0.92	12
bin	0.94	1
bin	0.96	23
bin	0.98	312
bin	1	269
bin	1.02	0
bin	1.04	0
bin	1.06	0
bin	1.08	0
bin	1.1	0
bin	1.12	0
bin	1.14	0
bin	1.16	0
bin	1.18	0
bin	1.2	0
bin	1.22	0
bin	1.24	0
bin	1.26	0
statistic DYMONetwork.host[0].wlan[0].radio bitErrorRate:histogram
field count 0
field mean -nan
field stddev nan
field min nan
field max nan
field sum 0
field sqrsum 0
attr recordingmode histogram
attr source bitErrorRate(packetSentToUpper)
attr title "Bit error rate"
bin	-inf	0
bin	0	0
bin	1	0
statistic DYMONetwork.host[0].wlan[0].radio symbolErrorRate:histogram
field count 0
field mean -nan
field stddev nan
field min nan
field max nan
field sum 0
field sqrsum 0
attr recordingmode histogram
attr source symbolErrorRate(packetSentToUpper)
attr title "Symbol error rate"
bin	-inf	0
bin	0	0
bin	1	0
scalar DYMONetwork.host[0].wlan[0] packetDropInterfaceDown:count 0
attr interpolationmode none
attr recordingmode count
attr source packetDropReasonIsInterfaceDown(packetDropped)
attr title "packet drops: interface down, count"
scalar DYMONetwork.host[0].wlan[0] packetDropInterfaceDown:sum(packetBytes) 0
attr interpolationmode none
attr recordingmode sum(packetBytes)
attr source packetDropReasonIsInterfaceDown(packetDropped)
attr title "packet drops: interface down, sum(packetBytes)"
scalar DYMONetwork.host[0].wlan[0] packetDropNoCarrier:count 0
attr interpolationmode none
attr recordingmode count
attr source packetDropReasonIsNoCarrier(packetDropped)
attr title "packet drops: no carrier, count"
scalar DYMONetwork.host[0].wlan[0] packetDropNoCarrier:sum(packetBytes) 0
attr interpolationmode none
attr recordingmode sum(packetBytes)
attr source packetDropReasonIsNoCarrier(packetDropped)
attr title "packet drops: no carrier, sum(packetBytes)"
scalar DYMONetwork.host[0].ipv4.ip packetDropAddressResolutionFailed:count 0
attr interpolationmode none
attr recordingmode count
attr source packetDropReasonIsAddressResolutionFailed(packetDropped)
attr title "packet drop: address resolution failed, count"
scalar DYMONetwork.host[0].ipv4.ip packetDropAddressResolutionFailed:sum(packetBytes) 0
attr interpolationmode none
attr recordingmode sum(packetBytes)
attr source packetDropReasonIsAddressResolutionFailed(packetDropped)
attr title "packet drop: address resolution failed, sum(packetBytes)"
scalar DYMONetwork.host[0].ipv4.ip packetDropHopLimitReached:count 0
attr interpolationmode none
attr recordingmode count
attr source packetDropReasonIsHopLimitReached(packetDropped)
attr title "packet drop: hop limit reached, count"
scalar DYMONetwork.host[0].ipv4.ip packetDropHopLimitReached:sum(packetBytes) 0
attr interpolationmode none
attr recordingmode sum(packetBytes)
attr source packetDropReasonIsHopLimitReached(packetDropped)
attr title "packet drop: hop limit reached, sum(packetBytes)"
scalar DYMONetwork.host[0].ipv4.ip packetDropForwardingDisabled:count 0
attr interpolationmode none
attr recordingmode count
attr source packetDropReasonIsForwardingDisabled(packetDropped)
attr title "packet drop: forwarding disabled, count"
scalar DYMONetwork.host[0].ipv4.ip packetDropForwardingDisabled:sum(packetBytes) 0
attr interpolationmode none
attr recordingmode sum(packetBytes)
attr source packetDropReasonIsForwardingDisabled(packetDropped)
attr title "packet drop: forwarding disabled, sum(packetBytes)"
scalar DYMONetwork.host[0].ipv4.ip packetDropNoInterfaceFound:count 0
attr interpolationmode none
attr recordingmode count
attr source packetDropReasonIsNoInterfaceFound(packetDropped)
attr title "packet drop: no interface found, count"
scalar DYMONetwork.host[0].ipv4.ip packetDropNoInterfaceFound:sum(packetBytes) 0
attr interpolationmode none
attr recordingmode sum(packetBytes)
attr source packetDropReasonIsNoInterfaceFound(packetDropped)
attr title "packet drop: no interface found, sum(packetBytes)"
scalar DYMONetwork.host[0].ipv4.ip packetDropNoRouteFound:count 0
attr interpolationmode none
attr recordingmode count
attr source packetDropReasonIsNoRouteFound(packetDropped)
attr title "packet drop: no route found, count"
scalar DYMONetwork.host[0].ipv4.ip packetDropNoRouteFound:sum(packetBytes) 0
attr interpolationmode none
attr recordingmode sum(packetBytes)
attr source packetDropReasonIsNoRouteFound(packetDropped)
attr title "packet drop: no route found, sum(packetBytes)"
scalar DYMONetwork.host[0].ipv4.ip packetDropUndefined:count 0
attr interpolationmode none
attr recordingmode count
attr source packetDropReasonIsUndefined(packetDropped)
attr title "packet drop: undefined, count"
scalar DYMONetwork.host[0].ipv4.ip packetDropUndefined:sum(packetBytes) 0
attr interpolationmode none
attr recordingmode sum(packetBytes)
attr source packetDropReasonIsUndefined(packetDropped)
attr title "packet drop: undefined, sum(packetBytes)"
scalar DYMONetwork.host[0].ipv4.arp arpResolutionFailed:count 0
attr recordingmode count
attr title "ARP failed resolutions, count"
scalar DYMONetwork.host[0].ipv4.arp arpResolutionCompleted:count 0
attr recordingmode count
attr title "ARP completed resolutions, count"
scalar DYMONetwork.host[0].ipv4.arp arpResolutionInitiated:count 0
attr recordingmode count
attr title "ARP initiated resolutions, count"
scalar DYMONetwork.host[0].ipv4.arp arpReplySent:count 0
attr recordingmode count
attr source arpReplySent
attr title "ARP replies sent, count"
scalar DYMONetwork.host[0].ipv4.arp arpReplySent:sum(packetBytes) 0
attr recordingmode sum(packetBytes)
attr source arpReplySent
attr title "ARP replies sent, sum(packetBytes)"
scalar DYMONetwork.host[0].ipv4.arp arpRequestSent:count 0
attr recordingmode count
attr source arpRequestSent
attr title "ARP request sent, count"
scalar DYMONetwork.host[0].ipv4.arp arpRequestSent:sum(packetBytes) 0
attr recordingmode sum(packetBytes)
attr source arpRequestSent
attr title "ARP request sent, sum(packetBytes)"
scalar DYMONetwork.host[0].ipv6.neighbourDiscovery startDad:count 1
attr recordingmode count
attr title "DAD started, count"
scalar DYMONetwork.host[0].udp packetReceived:count 0
attr interpolationmode none
attr recordingmode count
attr source packetReceived
attr title "packets received, count"
scalar DYMONetwork.host[0].udp packetReceived:sum(packetBytes) 0
attr interpolationmode none
attr recordingmode sum(packetBytes)
attr source packetReceived
attr title "packets received, sum(packetBytes)"
scalar DYMONetwork.host[0].udp packetSent:count 0
attr interpolationmode none
attr recordingmode count
attr source packetSent
attr title "packets sent, count"
scalar DYMONetwork.host[0].udp packetSent:sum(packetBytes) 0
attr interpolationmode none
attr recordingmode sum(packetBytes)
attr source packetSent
attr title "packets sent, sum(packetBytes)"
scalar DYMONetwork.host[0].udp passedUpPk:count 0
attr interpolationmode none
attr recordingmode count
attr source packetSentToUpper
attr title "packets passed up, count"
scalar DYMONetwork.host[0].udp droppedPkWrongPort:count 0
attr interpolationmode none
attr recordingmode count
attr source packetDropReasonIsNoPortFound(packetDropped)
attr title "packets dropped (wrong port), count"
scalar DYMONetwork.host[0].udp droppedPkBadChecksum:count 0
attr interpolationmode none
attr recordingmode count
attr source packetDropReasonIsIncorrectlyReceived(packetDropped)
attr title "packets dropped (checksum error), count"
scalar DYMONetwork.host[0].app[0] "Pings sent" 7
scalar DYMONetwork.host[0].app[0] "ping loss rate (%)" 85.714285714286
scalar DYMONetwork.host[0].app[0] "ping out-of-order rate (%)" 0
scalar DYMONetwork.host[0].app[0] pingRxSeq:count 1
attr interpolationmode none
attr recordingmode count
attr title "ping rx seq, count"
scalar DYMONetwork.host[0].app[0] pingTxSeq:count 7
attr interpolationmode none
attr recordingmode count
attr title "ping tx seq, count"
scalar DYMONetwork.host[0].app[0] numOutOfOrderArrivals:last nan
attr interpolationmode none
attr recordingmode last
attr title "ping out-of-order arrivals, last"
scalar DYMONetwork.host[0].app[0] numLost:last 1
attr interpolationmode none
attr recordingmode last
attr title "pings lost, last"
statistic DYMONetwork.host[0].app[0] rtt:histogram
field count 1
field mean 0.197614815911
field stddev nan
field min 0.197614815911
field max 0.197614815911
field sum 0.197614815911
field sqrsum 0.039051615467538
attr interpolationmode none
attr recordingmode histogram
attr title "ping round-trip time"
attr unit s
bin	-inf	0
bin	0	0
bin	0.01	0
bin	0.02	0
bin	0.03	0
bin	0.04	0
bin	0.05	0
bin	0.06	0
bin	0.07	0
bin	0.08	0
bin	0.09	0
bin	0.1	0
bin	0.11	0
bin	0.12	0
bin	0.13	0
bin	0.14	0
bin	0.15	0
bin	0.16	0
bin	0.17	0
bin	0.18	0
bin	0.19	1
bin	0.2	0
bin	0.21	0
bin	0.22	0
bin	0.23	0
bin	0.24	0
bin	0.25	0
bin	0.26	0
bin	0.27	0
bin	0.28	0
bin	0.29	0
bin	0.3	0
bin	0.31	0
bin	0.32	0
bin	0.33	0
bin	0.34	0
bin	0.35	0
bin	0.36	0
bin	0.37	0
bin	0.38	0
bin	0.39	0
bin	0.4	0
bin	0.41	0
bin	0.42	0
bin	0.43	0
bin	0.44	0
bin	0.45	0
bin	0.46	0
bin	0.47	0
bin	0.48	0
bin	0.49	0
bin	0.5	0
bin	0.51	0
bin	0.52	0
bin	0.53	0
bin	0.54	0
bin	0.55	0
bin	0.56	0
bin	0.57	0
bin	0.58	0
bin	0.59	0
bin	0.6	0
bin	0.61	0
bin	0.62	0
bin	0.63	0
bin	0.64	0
bin	0.65	0
bin	0.66	0
bin	0.67	0
bin	0.68	0
bin	0.69	0
bin	0.7	0
scalar DYMONetwork.host[1].lo[0].lo rcvdPkFromHl:count 0
attr interpolationmode none
attr recordingmode count
attr source packetReceivedFromUpper
attr title "packets received from higher layer, count"
scalar DYMONetwork.host[1].lo[0].lo rcvdPkFromHl:sum(packetBytes) 0
attr interpolationmode none
attr recordingmode sum(packetBytes)
attr source packetReceivedFromUpper
attr title "packets received from higher layer, sum(packetBytes)"
scalar DYMONetwork.host[1].lo[0].lo passedUpPk:count 0
attr interpolationmode none
attr recordingmode count
attr source packetSentToUpper
attr title "packets passed to higher layer, count"
scalar DYMONetwork.host[1].lo[0].lo passedUpPk:sum(packetBytes) 0
attr interpolationmode none
attr recordingmode sum(packetBytes)
attr source packetSentToUpper
attr title "packets passed to higher layer, sum(packetBytes)"
scalar DYMONetwork.host[1].lo[0] packetDropInterfaceDown:count 0
attr interpolationmode none
attr recordingmode count
attr source packetDropReasonIsInterfaceDown(packetDropped)
attr title "packet drops: interface down, count"
scalar DYMONetwork.host[1].lo[0] packetDropInterfaceDown:sum(packetBytes) 0
attr interpolationmode none
attr recordingmode sum(packetBytes)
attr source packetDropReasonIsInterfaceDown(packetDropped)
attr title "packet drops: interface down, sum(packetBytes)"
scalar DYMONetwork.host[1].lo[0] packetDropNoCarrier:count 0
attr interpolationmode none
attr recordingmode count
attr source packetDropReasonIsNoCarrier(packetDropped)
attr title "packet drops: no carrier, count"
scalar DYMONetwork.host[1].lo[0] packetDropNoCarrier:sum(packetBytes) 0
attr interpolationmode none
attr recordingmode sum(packetBytes)
attr source packetDropReasonIsNoCarrier(packetDropped)
attr title "packet drops: no carrier, sum(packetBytes)"
scalar DYMONetwork.host[1].wlan[0].mac.dcf.channelAccess.pendingQueue queueLength:last 0
attr autoWarmupFilter false
attr interpolationmode sample-hold
attr recordingmode last
attr source "warmup(atomic(constant0(packetPushEnded) + count(packetPushStarted) - count(packetPulled) - count(packetRemoved) - count(packetDropped)))"
attr title "queue length, last"
attr unit pk
scalar DYMONetwork.host[1].wlan[0].mac.dcf.channelAccess.pendingQueue queueLength:max 14
attr autoWarmupFilter false
attr interpolationmode sample-hold
attr recordingmode max
attr source "warmup(atomic(constant0(packetPushEnded) + count(packetPushStarted) - count(packetPulled) - count(packetRemoved) - count(packetDropped)))"
attr title "queue length, max"
attr unit pk
scalar DYMONetwork.host[1].wlan[0].mac.dcf.channelAccess.pendingQueue queueLength:timeavg 0.28698457627639
attr autoWarmupFilter false
attr interpolationmode sample-hold
attr recordingmode timeavg
attr source "warmup(atomic(constant0(packetPushEnded) + count(packetPushStarted) - count(packetPulled) - count(packetRemoved) - count(packetDropped)))"
attr title "queue length, timeavg"
attr unit pk
scalar DYMONetwork.host[1].wlan[0].mac.dcf.channelAccess.pendingQueue queueBitLength:last 0
attr autoWarmupFilter false
attr interpolationmode sample-hold
attr recordingmode last
attr source "warmup(atomic(constant0(packetPushEnded) + sum(packetLength(packetPushStarted)) - sum(packetLength(packetPulled)) - sum(packetLength(packetRemoved)) - sum(packetLength(packetDropped))))"
attr title "queue bit length, last"
attr unit b
scalar DYMONetwork.host[1].wlan[0].mac.dcf.channelAccess.pendingQueue queueBitLength:max 12064
attr autoWarmupFilter false
attr interpolationmode sample-hold
attr recordingmode max
attr source "warmup(atomic(constant0(packetPushEnded) + sum(packetLength(packetPushStarted)) - sum(packetLength(packetPulled)) - sum(packetLength(packetRemoved)) - sum(packetLength(packetDropped))))"
attr title "queue bit length, max"
attr unit b
scalar DYMONetwork.host[1].wlan[0].mac.dcf.channelAccess.pendingQueue queueBitLength:timeavg 226.28093881213
attr autoWarmupFilter false
attr interpolationmode sample-hold
attr recordingmode timeavg
attr source "warmup(atomic(constant0(packetPushEnded) + sum(packetLength(packetPushStarted)) - sum(packetLength(packetPulled)) - sum(packetLength(packetRemoved)) - sum(packetLength(packetDropped))))"
attr title "queue bit length, timeavg"
attr unit b
statistic DYMONetwork.host[1].wlan[0].mac.dcf.channelAccess.pendingQueue queueingTime:histogram
field count 379
field mean 0.0075251774779894
field stddev 0.016385298348639
field min 0
field max 0.109306688977
field sum 2.852042264158
field sqrsum 0.12294680895865
attr interpolationmode none
attr recordingmode histogram
attr source queueingTime(packetPulled)
attr title "queueing times"
attr unit s
bin	-inf	0
bin	0	238
bin	0.002	20
bin	0.004	17
bin	0.006	7
bin	0.008	18
bin	0.01	5
bin	0.012	5
bin	0.014	7
bin	0.016	5
bin	0.018	13
bin	0.02	7
bin	0.022	4
bin	0.024	4
bin	0.026	3
bin	0.028	5
bin	0.03	1
bin	0.032	1
bin	0.034	4
bin	0.036	1
bin	0.038	0
bin	0.04	0
bin	0.042	0
bin	0.044	0
bin	0.046	1
bin	0.048	0
bin	0.05	1
bin	0.052	0
bin	0.054	0
bin	0.056	0
bin	0.058	0
bin	0.06	0
bin	0.062	0
bin	0.064	0
bin	0.066	0
bin	0.068	0
bin	0.07	2
bin	0.072	0
bin	0.074	1
bin	0.076	2
bin	0.078	0
bin	0.08	0
bin	0.082	1
bin	0.084	4
bin	0.086	0
bin	0.088	0
bin	0.09	0
bin	0.092	1
bin	0.094	0
bin	0.096	0
bin	0.098	0
bin	0.1	0
bin	0.102	0
bin	0.104	0
bin	0.106	0
bin	0.108	1
bin	0.11	0
bin	0.112	0
bin	0.114	0
bin	0.116	0
bin	0.118	0
bin	0.12	0
bin	0.122	0
bin	0.124	0
bin	0.126	0
bin	0.128	0
bin	0.13	0
bin	0.132	0
bin	0.134	0
bin	0.136	0
bin	0.138	0
scalar DYMONetwork.host[1].wlan[0].mac.dcf.channelAccess.pendingQueue outgoingPackets:count 379
attr recordingmode count
attr source packetPulled
attr title "outgoing packets, count"
attr unit pk
scalar DYMONetwork.host[1].wlan[0].mac.dcf.channelAccess.pendingQueue outgoingPacketLengths:sum 311024
attr interpolationmode none
attr recordingmode sum
attr source packetLength(packetPulled)
attr title "outgoing packet lengths, sum"
attr unit b
statistic DYMONetwork.host[1].wlan[0].mac.dcf.channelAccess.pendingQueue outgoingPacketLengths:histogram
field count 379
field mean 820.6437994723
field stddev 87.589514498461
field min 608
field max 896
field sum 311024
field sqrsum 258139904
attr interpolationmode none
attr recordingmode histogram
attr source packetLength(packetPulled)
attr title "outgoing packet lengths"
attr unit b
bin	-inf	0
bin	608	2
bin	612	0
bin	616	0
bin	620	0
bin	624	0
bin	628	0
bin	632	0
bin	636	0
bin	640	0
bin	644	0
bin	648	0
bin	652	0
bin	656	76
bin	660	0
bin	664	0
bin	668	0
bin	672	0
bin	676	0
bin	680	0
bin	684	0
bin	688	0
bin	692	0
bin	696	0
bin	700	0
bin	704	0
bin	708	0
bin	712	0
bin	716	0
bin	720	0
bin	724	0
bin	728	0
bin	732	0
bin	736	0
bin	740	0
bin	744	0
bin	748	0
bin	752	6
bin	756	0
bin	760	0
bin	764	0
bin	768	0
bin	772	0
bin	776	0
bin	780	0
bin	784	0
bin	788	0
bin	792	0
bin	796	0
bin	800	13
bin	804	0
bin	808	0
bin	812	0
bin	816	0
bin	820	0
bin	824	0
bin	828	0
bin	832	0
bin	836	0
bin	840	0
bin	844	0
bin	848	27
bin	852	0
bin	856	0
bin	860	0
bin	864	197
bin	868	0
bin	872	0
bin	876	0
bin	880	2
bin	884	0
bin	888	0
bin	892	0
bin	896	56
bin	900	0
statistic DYMONetwork.host[1].wlan[0].mac.dcf.channelAccess.pendingQueue flowQueueingTime:histogram
field count 0
field mean -nan
field stddev nan
field min nan
field max nan
field sum 0
field sqrsum 0
attr interpolationmode none
attr recordingmode histogram
attr source queueingTime(demuxFlow(packetPulled))
attr title "flow queueing times"
attr unit s
bin	-inf	0
bin	0	0
bin	1	0
scalar DYMONetwork.host[1].wlan[0].mac.dcf.channelAccess.pendingQueue incomingPackets:count 379
attr recordingmode count
attr source packetPushStarted
attr title "incoming packets, count"
attr unit pk
scalar DYMONetwork.host[1].wlan[0].mac.dcf.channelAccess.pendingQueue incomingPacketLengths:sum 311024
attr interpolationmode none
attr recordingmode sum
attr source packetLength(packetPushStarted)
attr title "incoming packet lengths, sum"
attr unit b
statistic DYMONetwork.host[1].wlan[0].mac.dcf.channelAccess.pendingQueue incomingPacketLengths:histogram
field count 379
field mean 820.6437994723
field stddev 87.589514498461
field min 608
field max 896
field sum 311024
field sqrsum 258139904
attr interpolationmode none
attr recordingmode histogram
attr source packetLength(packetPushStarted)
attr title "incoming packet lengths"
attr unit b
bin	-inf	0
bin	608	2
bin	612	0
bin	616	0
bin	620	0
bin	624	0
bin	628	0
bin	632	0
bin	636	0
bin	640	0
bin	644	0
bin	648	0
bin	652	0
bin	656	76
bin	660	0
bin	664	0
bin	668	0
bin	672	0
bin	676	0
bin	680	0
bin	684	0
bin	688	0
bin	692	0
bin	696	0
bin	700	0
bin	704	0
bin	708	0
bin	712	0
bin	716	0
bin	720	0
bin	724	0
bin	728	0
bin	732	0
bin	736	0
bin	740	0
bin	744	0
bin	748	0
bin	752	6
bin	756	0
bin	760	0
bin	764	0
bin	768	0
bin	772	0
bin	776	0
bin	780	0
bin	784	0
bin	788	0
bin	792	0
bin	796	0
bin	800	13
bin	804	0
bin	808	0
bin	812	0
bin	816	0
bin	820	0
bin	824	0
bin	828	0
bin	832	0
bin	836	0
bin	840	0
bin	844	0
bin	848	27
bin	852	0
bin	856	0
bin	860	0
bin	864	197
bin	868	0
bin	872	0
bin	876	0
bin	880	2
bin	884	0
bin	888	0
bin	892	0
bin	896	56
bin	900	0
scalar DYMONetwork.host[1].wlan[0].mac.dcf.channelAccess.pendingQueue droppedPacketsQueueOverflow:count 0
attr interpolationmode none
attr recordingmode count
attr source packetDropReasonIsQueueOverflow(packetDropped)
attr title "dropped packets: queue overflow, count"
attr unit pk
scalar DYMONetwork.host[1].wlan[0].mac.dcf.channelAccess.pendingQueue droppedPacketLengthsQueueOverflow:sum 0
attr interpolationmode none
attr recordingmode sum
attr source packetLength(packetDropReasonIsQueueOverflow(packetDropped))
attr title "dropped packet lengths: queue overflow, sum"
attr unit b
statistic DYMONetwork.host[1].wlan[0].mac.dcf.channelAccess.inProgressFrames queueingTime:histogram
field count 379
field mean 0.0022454145810316
field stddev 0.0058662868225166
field min 0.000496
field max 0.074337003222
field sum 0.851012126211
field sqrsum 0.014919110406593
attr interpolationmode none
attr recordingmode histogram
attr source queueingTime(packetDequeued)
attr title "queueing times"
bin	-inf	0
bin	0	231
bin	0.001	55
bin	0.002	35
bin	0.003	14
bin	0.004	15
bin	0.005	7
bin	0.006	8
bin	0.007	3
bin	0.008	1
bin	0.009	1
bin	0.01	1
bin	0.011	1
bin	0.012	0
bin	0.013	0
bin	0.014	1
bin	0.015	1
bin	0.016	0
bin	0.017	0
bin	0.018	0
bin	0.019	0
bin	0.02	0
bin	0.021	0
bin	0.022	0
bin	0.023	0
bin	0.024	0
bin	0.025	0
bin	0.026	0
bin	0.027	0
bin	0.028	0
bin	0.029	0
bin	0.03	0
bin	0.031	0
bin	0.032	0
bin	0.033	0
bin	0.034	0
bin	0.035	1
bin	0.036	0
bin	0.037	0
bin	0.038	0
bin	0.039	0
bin	0.04	0
bin	0.041	2
bin	0.042	0
bin	0.043	0
bin	0.044	0
bin	0.045	0
bin	0.046	0
bin	0.047	1
bin	0.048	0
bin	0.049	0
bin	0.05	0
bin	0.051	0
bin	0.052	0
bin	0.053	0
bin	0.054	0
bin	0.055	0
bin	0.056	0
bin	0.057	0
bin	0.058	0
bin	0.059	0
bin	0.06	0
bin	0.061	0
bin	0.062	0
bin	0.063	0
bin	0.064	0
bin	0.065	0
bin	0.066	0
bin	0.067	0
bin	0.068	0
bin	0.069	0
bin	0.07	0
bin	0.071	0
bin	0.072	0
bin	0.073	0
bin	0.074	1
bin	0.075	0
scalar DYMONetwork.host[1].wlan[0].mac.dcf.channelAccess.inProgressFrames queueLength:max 2
attr autoWarmupFilter false
attr interpolationmode sample-hold
attr recordingmode max
attr source "warmup(count(packetEnqueued) - count(packetDequeued))"
attr title "queue length, max"
scalar DYMONetwork.host[1].wlan[0].mac.dcf.channelAccess.inProgressFrames queueLength:timeavg 0.0851012126211
attr autoWarmupFilter false
attr interpolationmode sample-hold
attr recordingmode timeavg
attr source "warmup(count(packetEnqueued) - count(packetDequeued))"
attr title "queue length, timeavg"
scalar DYMONetwork.host[1].wlan[0].mac.dcf.channelAccess.contention channelAccessGranted:count 414
attr recordingmode count
attr title "channel access granted, count"
scalar DYMONetwork.host[1].wlan[0].mac.dcf.channelAccess.contention stateChanged:count 13086
attr enum IDLE,DEFER,IFS_AND_BACKOFF
attr interpolationmode none
attr recordingmode count
attr title "contention state changed, count"
attr type enum
scalar DYMONetwork.host[1].wlan[0].mac.dcf.channelAccess channelOwnershipChanged:count 828
attr interpolationmode sample-hold
attr recordingmode count
attr title "channel ownership, count"
scalar DYMONetwork.host[1].wlan[0].mac.dcf.originatorMacDataService packetAggregated:count 0
attr recordingmode count
attr title "packets aggregated, count"
scalar DYMONetwork.host[1].wlan[0].mac.dcf.originatorMacDataService packetFragmented:count 0
attr recordingmode count
attr title "packets fragmented, count"
scalar DYMONetwork.host[1].wlan[0].mac.dcf.recipientMacDataService packetDeaggregated:count 0
attr recordingmode count
attr title "packets deaggregated, count"
scalar DYMONetwork.host[1].wlan[0].mac.dcf.recipientMacDataService packetDefragmented:count 1290
attr recordingmode count
attr title "packets defragmented, count"
scalar DYMONetwork.host[1].wlan[0].mac.dcf.recipientMacDataService packetDropDuplicateDetected:count 0
attr interpolationmode none
attr recordingmode count
attr source packetDropReasonIsDuplicateDetected(packetDropped)
attr title "packet drops: duplicate detected, count"
scalar DYMONetwork.host[1].wlan[0].mac.dcf.recipientMacDataService packetDropDuplicateDetected:sum(packetBytes) 0
attr interpolationmode none
attr recordingmode sum(packetBytes)
attr source packetDropReasonIsDuplicateDetected(packetDropped)
attr title "packet drops: duplicate detected, sum(packetBytes)"
scalar DYMONetwork.host[1].wlan[0].mac.dcf.recoveryProcedure retryLimitReached:count 2
attr recordingmode count
attr title "retry limit reached, count"
scalar DYMONetwork.host[1].wlan[0].mac.dcf frameSequenceFinished:count 414
attr recordingmode count
attr title "finished frame sequences, count"
statistic DYMONetwork.host[1].wlan[0].mac.dcf frameSequenceDuration:histogram
field count 414
field mean 0.00067072027702657
field stddev 0.00010984345046088
field min 0.000496
field max 0.001394017676
field sum 0.277678194689
field sqrsum 0.00019122748169663
attr recordingmode histogram
attr source frameSequenceDuration(frameSequenceFinished)
attr title "frame sequence durations"
bin	-inf	0
bin	0.000487	2
bin	0.000499	0
bin	0.000511	3
bin	0.000523	0
bin	0.000535	0
bin	0.000547	0
bin	0.000559	6
bin	0.000571	0
bin	0.000583	13
bin	0.000595	0
bin	0.000607	27
bin	0.000619	197
bin	0.000631	56
bin	0.000643	0
bin	0.000655	0
bin	0.000667	0
bin	0.000679	0
bin	0.000691	0
bin	0.000703	0
bin	0.000715	0
bin	0.000727	0
bin	0.000739	30
bin	0.000751	0
bin	0.000763	0
bin	0.000775	71
bin	0.000787	0
bin	0.000799	0
bin	0.000811	0
bin	0.000823	0
bin	0.000835	0
bin	0.000847	0
bin	0.000859	0
bin	0.000871	0
bin	0.000883	2
bin	0.000895	0
bin	0.000907	0
bin	0.000919	0
bin	0.000931	0
bin	0.000943	0
bin	0.000955	0
bin	0.000967	0
bin	0.000979	0
bin	0.000991	0
bin	0.001003	0
bin	0.001015	0
bin	0.001027	0
bin	0.001039	0
bin	0.001051	0
bin	0.001063	0
bin	0.001075	0
bin	0.001087	0
bin	0.001099	0
bin	0.001111	0
bin	0.001123	0
bin	0.001135	0
bin	0.001147	0
bin	0.001159	0
bin	0.001171	0
bin	0.001183	0
bin	0.001195	0
bin	0.001207	0
bin	0.001219	0
bin	0.001231	0
bin	0.001243	0
bin	0.001255	1
bin	0.001267	0
bin	0.001279	1
bin	0.001291	0
bin	0.001303	1
bin	0.001315	0
bin	0.001327	1
bin	0.001339	0
bin	0.001351	0
bin	0.001363	2
bin	0.001375	0
bin	0.001387	1
bin	0.001399	0
statistic DYMONetwork.host[1].wlan[0].mac.dcf frameSequenceNumPackets:histogram
field count 414
field mean 1.2657004830918
field stddev 0.44223991511161
field min 1
field max 2
field sum 524
field sqrsum 744
attr recordingmode histogram
attr source frameSequenceNumPackets(frameSequenceFinished)
attr title "frame sequences: number of packets"
bin	-inf	0
bin	0	0
bin	1	304
bin	2	110
bin	3	0
scalar DYMONetwork.host[1].wlan[0].mac.dcf packetReceivedFromPeer:count 1363
attr interpolationmode none
attr recordingmode count
attr title "packets received, count"
scalar DYMONetwork.host[1].wlan[0].mac.dcf packetReceivedFromPeer:sum(packetBytes) 140820
attr interpolationmode none
attr recordingmode sum(packetBytes)
attr title "packets received, sum(packetBytes)"
scalar DYMONetwork.host[1].wlan[0].mac.dcf packetReceivedFromPeerUnicast:count 81
attr interpolationmode none
attr recordingmode count
attr source ieee80211Unicast(packetReceivedFromPeer)
attr title "packets received: unicast, count"
scalar DYMONetwork.host[1].wlan[0].mac.dcf packetReceivedFromPeerUnicast:sum(packetBytes) 1818
attr interpolationmode none
attr recordingmode sum(packetBytes)
attr source ieee80211Unicast(packetReceivedFromPeer)
attr title "packets received: unicast, sum(packetBytes)"
scalar DYMONetwork.host[1].wlan[0].mac.dcf packetReceivedFromPeerMulticast:count 1282
attr interpolationmode none
attr recordingmode count
attr source ieee80211Multicast(packetReceivedFromPeer)
attr title "packets received: multicast, count"
scalar DYMONetwork.host[1].wlan[0].mac.dcf packetReceivedFromPeerMulticast:sum(packetBytes) 139002
attr interpolationmode none
attr recordingmode sum(packetBytes)
attr source ieee80211Multicast(packetReceivedFromPeer)
attr title "packets received: multicast, sum(packetBytes)"
scalar DYMONetwork.host[1].wlan[0].mac.dcf packetReceivedFromPeerBroadcast:count 869
attr interpolationmode none
attr recordingmode count
attr source ieee80211Broadcast(packetReceivedFromPeer)
attr title "packets received: broadcast, count"
scalar DYMONetwork.host[1].wlan[0].mac.dcf packetReceivedFromPeerBroadcast:sum(packetBytes) 93820
attr interpolationmode none
attr recordingmode sum(packetBytes)
attr source ieee80211Broadcast(packetReceivedFromPeer)
attr title "packets received: broadcast, sum(packetBytes)"
scalar DYMONetwork.host[1].wlan[0].mac.dcf packetReceivedFromPeerWithRetry:count 0
attr interpolationmode none
attr recordingmode count
attr source ieee80211Retry(packetReceivedFromPeer)
attr title "packets received: with retry, count"
scalar DYMONetwork.host[1].wlan[0].mac.dcf packetReceivedFromPeerWithRetry:sum(packetBytes) 0
attr interpolationmode none
attr recordingmode sum(packetBytes)
attr source ieee80211Retry(packetReceivedFromPeer)
attr title "packets received: with retry, sum(packetBytes)"
scalar DYMONetwork.host[1].wlan[0].mac.dcf packetReceivedFromPeerWithoutRetry:count 1363
attr interpolationmode none
attr recordingmode count
attr source ieee80211NotRetry(packetReceivedFromPeer)
attr title "packets received: without retry, count"
scalar DYMONetwork.host[1].wlan[0].mac.dcf packetReceivedFromPeerWithoutRetry:sum(packetBytes) 140820
attr interpolationmode none
attr recordingmode sum(packetBytes)
attr source ieee80211NotRetry(packetReceivedFromPeer)
attr title "packets received: without retry, sum(packetBytes)"
scalar DYMONetwork.host[1].wlan[0].mac.dcf packetSentToPeer:count 422
attr interpolationmode none
attr recordingmode count
attr title "packets sent, count"
scalar DYMONetwork.host[1].wlan[0].mac.dcf packetSentToPeer:sum(packetBytes) 41860
attr interpolationmode none
attr recordingmode sum(packetBytes)
attr title "packets sent, sum(packetBytes)"
scalar DYMONetwork.host[1].wlan[0].mac.dcf packetSentToPeerUnicast:count 118
attr interpolationmode none
attr recordingmode count
attr source ieee80211Unicast(packetSentToPeer)
attr title "packets sent: unicast, count"
scalar DYMONetwork.host[1].wlan[0].mac.dcf packetSentToPeerUnicast:sum(packetBytes) 9188
attr interpolationmode none
attr recordingmode sum(packetBytes)
attr source ieee80211Unicast(packetSentToPeer)
attr title "packets sent: unicast, sum(packetBytes)"
scalar DYMONetwork.host[1].wlan[0].mac.dcf packetSentToPeerMulticast:count 304
attr interpolationmode none
attr recordingmode count
attr source ieee80211Multicast(packetSentToPeer)
attr title "packets sent: multicast, count"
scalar DYMONetwork.host[1].wlan[0].mac.dcf packetSentToPeerMulticast:sum(packetBytes) 32672
attr interpolationmode none
attr recordingmode sum(packetBytes)
attr source ieee80211Multicast(packetSentToPeer)
attr title "packets sent: multicast, sum(packetBytes)"
scalar DYMONetwork.host[1].wlan[0].mac.dcf packetSentToPeerBroadcast:count 198
attr interpolationmode none
attr recordingmode count
attr source ieee80211Broadcast(packetSentToPeer)
attr title "packets sent: broadcast , count"
scalar DYMONetwork.host[1].wlan[0].mac.dcf packetSentToPeerBroadcast:sum(packetBytes) 21376
attr interpolationmode none
attr recordingmode sum(packetBytes)
attr source ieee80211Broadcast(packetSentToPeer)
attr title "packets sent: broadcast , sum(packetBytes)"
scalar DYMONetwork.host[1].wlan[0].mac.dcf packetSentToPeerWithRetry:count 35
attr interpolationmode none
attr recordingmode count
attr source ieee80211Retry(packetSentToPeer)
attr title "packets sent: with retry, count"
scalar DYMONetwork.host[1].wlan[0].mac.dcf packetSentToPeerWithRetry:sum(packetBytes) 2870
attr interpolationmode none
attr recordingmode sum(packetBytes)
attr source ieee80211Retry(packetSentToPeer)
attr title "packets sent: with retry, sum(packetBytes)"
scalar DYMONetwork.host[1].wlan[0].mac.dcf packetSentToPeerWithoutRetry:count 387
attr interpolationmode none
attr recordingmode count
attr source ieee80211NotRetry(packetSentToPeer)
attr title "packets sent: without retry, count"
scalar DYMONetwork.host[1].wlan[0].mac.dcf packetSentToPeerWithoutRetry:sum(packetBytes) 38990
attr interpolationmode none
attr recordingmode sum(packetBytes)
attr source ieee80211NotRetry(packetSentToPeer)
attr title "packets sent: without retry, sum(packetBytes)"
scalar DYMONetwork.host[1].wlan[0].mac.dcf packetDrop:count 264
attr interpolationmode none
attr recordingmode count
attr source packetDropped
attr title "packet drops, count"
scalar DYMONetwork.host[1].wlan[0].mac.dcf packetDrop:sum(packetBytes) 17006
attr interpolationmode none
attr recordingmode sum(packetBytes)
attr source packetDropped
attr title "packet drops, sum(packetBytes)"
scalar DYMONetwork.host[1].wlan[0].mac.dcf packetDropNotAddressedToUs:count 262
attr interpolationmode none
attr recordingmode count
attr source packetDropReasonIsNotAddressedToUs(packetDropped)
attr title "packet drops: not addressed to us, count"
scalar DYMONetwork.host[1].wlan[0].mac.dcf packetDropNotAddressedToUs:sum(packetBytes) 16842
attr interpolationmode none
attr recordingmode sum(packetBytes)
attr source packetDropReasonIsNotAddressedToUs(packetDropped)
attr title "packet drops: not addressed to us, sum(packetBytes)"
scalar DYMONetwork.host[1].wlan[0].mac.dcf packetDropQueueOverflow:count 0
attr interpolationmode none
attr recordingmode count
attr source packetDropReasonIsQueueOverflow(packetDropped)
attr title "packet drops: queue overflow, count"
scalar DYMONetwork.host[1].wlan[0].mac.dcf packetDropQueueOverflow:sum(packetBytes) 0
attr interpolationmode none
attr recordingmode sum(packetBytes)
attr source packetDropReasonIsQueueOverflow(packetDropped)
attr title "packet drops: queue overflow, sum(packetBytes)"
scalar DYMONetwork.host[1].wlan[0].mac.dcf packetDropRetryLimitReached:count 2
attr interpolationmode none
attr recordingmode count
attr source packetDropReasonIsRetryLimitReached(packetDropped)
attr title "packet drops: retry limit reached, count"
scalar DYMONetwork.host[1].wlan[0].mac.dcf packetDropRetryLimitReached:sum(packetBytes) 164
attr interpolationmode none
attr recordingmode sum(packetBytes)
attr source packetDropReasonIsRetryLimitReached(packetDropped)
attr title "packet drops: retry limit reached, sum(packetBytes)"
scalar DYMONetwork.host[1].wlan[0].mac.dcf linkBroken:count 2
attr interpolationmode none
attr recordingmode count
attr title "link breaks, count"
scalar DYMONetwork.host[1].wlan[0].mac packetReceivedFromLower:count 1951
attr interpolationmode none
attr recordingmode count
attr title "packets received from lower layer, count"
scalar DYMONetwork.host[1].wlan[0].mac packetReceivedFromLower:sum(packetBytes) 192328
attr interpolationmode none
attr recordingmode sum(packetBytes)
attr title "packets received from lower layer, sum(packetBytes)"
scalar DYMONetwork.host[1].wlan[0].mac packetSentToLower:count 422
attr interpolationmode none
attr recordingmode count
attr title "packets sent to lower layer, count"
scalar DYMONetwork.host[1].wlan[0].mac packetSentToLower:sum(packetBytes) 41860
attr interpolationmode none
attr recordingmode sum(packetBytes)
attr title "packets sent to lower layer, sum(packetBytes)"
scalar DYMONetwork.host[1].wlan[0].mac packetReceivedFromUpper:count 379
attr interpolationmode none
attr recordingmode count
attr title "packets received from upper layer, count"
scalar DYMONetwork.host[1].wlan[0].mac packetReceivedFromUpper:sum(packetBytes) 28266
attr interpolationmode none
attr recordingmode sum(packetBytes)
attr title "packets received from upper layer, sum(packetBytes)"
scalar DYMONetwork.host[1].wlan[0].mac packetSentToUpper:count 1290
attr interpolationmode none
attr recordingmode count
attr title "packets sent to upper layer, count"
scalar DYMONetwork.host[1].wlan[0].mac packetSentToUpper:sum(packetBytes) 103678
attr interpolationmode none
attr recordingmode sum(packetBytes)
attr title "packets sent to upper layer, sum(packetBytes)"
scalar DYMONetwork.host[1].wlan[0].mac packetDrop:count 584
attr interpolationmode none
attr recordingmode count
attr source packetDropped
attr title "packet drops, count"
scalar DYMONetwork.host[1].wlan[0].mac packetDrop:sum(packetBytes) 51000
attr interpolationmode none
attr recordingmode sum(packetBytes)
attr source packetDropped
attr title "packet drops, sum(packetBytes)"
scalar DYMONetwork.host[1].wlan[0].mac packetDropIncorrectlyReceived:count 320
attr interpolationmode none
attr recordingmode count
attr source packetDropReasonIsIncorrectlyReceived(packetDropped)
attr title "packet drops: incorrectly received, count"
scalar DYMONetwork.host[1].wlan[0].mac packetDropIncorrectlyReceived:sum(packetBytes) 33994
attr interpolationmode none
attr recordingmode sum(packetBytes)
attr source packetDropReasonIsIncorrectlyReceived(packetDropped)
attr title "packet drops: incorrectly received, sum(packetBytes)"
scalar DYMONetwork.host[1].wlan[0].mac packetDropNotAddressedToUs:count 262
attr interpolationmode none
attr recordingmode count
attr source packetDropReasonIsNotAddressedToUs(packetDropped)
attr title "packet drops: not addressed to us, count"
scalar DYMONetwork.host[1].wlan[0].mac packetDropNotAddressedToUs:sum(packetBytes) 16842
attr interpolationmode none
attr recordingmode sum(packetBytes)
attr source packetDropReasonIsNotAddressedToUs(packetDropped)
attr title "packet drops: not addressed to us, sum(packetBytes)"
scalar DYMONetwork.host[1].wlan[0].mac packetDropQueueOverflow:count 0
attr interpolationmode none
attr recordingmode count
attr source packetDropReasonIsQueueOverflow(packetDropped)
attr title "packet drops: queue overflow, count"
scalar DYMONetwork.host[1].wlan[0].mac packetDropQueueOverflow:sum(packetBytes) 0
attr interpolationmode none
attr recordingmode sum(packetBytes)
attr source packetDropReasonIsQueueOverflow(packetDropped)
attr title "packet drops: queue overflow, sum(packetBytes)"
scalar DYMONetwork.host[1].wlan[0].mac packetDropRetryLimitReached:count 2
attr interpolationmode none
attr recordingmode count
attr source packetDropReasonIsRetryLimitReached(packetDropped)
attr title "packet drops: retry limit reached, count"
scalar DYMONetwork.host[1].wlan[0].mac packetDropRetryLimitReached:sum(packetBytes) 164
attr interpolationmode none
attr recordingmode sum(packetBytes)
attr source packetDropReasonIsRetryLimitReached(packetDropped)
attr title "packet drops: retry limit reached, sum(packetBytes)"
scalar DYMONetwork.host[1].wlan[0].mac packetDropDuplicateDetected:count 0
attr interpolationmode none
attr recordingmode count
attr source packetDropReasonIsDuplicateDetected(packetDropped)
attr title "packet drops: duplicate detected, count"
scalar DYMONetwork.host[1].wlan[0].mac packetDropDuplicateDetected:sum(packetBytes) 0
attr interpolationmode none
attr recordingmode sum(packetBytes)
attr source packetDropReasonIsDuplicateDetected(packetDropped)
attr title "packet drops: duplicate detected, sum(packetBytes)"
scalar DYMONetwork.host[1].wlan[0].mac packetDropOther:count 0
attr interpolationmode none
attr recordingmode count
attr source packetDropReasonIsOther(packetDropped)
attr title "packet drops: other, count"
scalar DYMONetwork.host[1].wlan[0].mac packetDropOther:sum(packetBytes) 0
attr interpolationmode none
attr recordingmode sum(packetBytes)
attr source packetDropReasonIsOther(packetDropped)
attr title "packet drops: other, sum(packetBytes)"
scalar DYMONetwork.host[1].wlan[0].mac linkBroken:count 2
attr interpolationmode none
attr recordingmode count
attr title "link breaks, count"
statistic DYMONetwork.host[1].wlan[0].radio radioChannel:histogram
field count 1
field mean 0
field stddev nan
field min 0
field max 0
field sum 0
field sqrsum 0
attr interpolationmode sample-hold
attr recordingmode histogram
attr source radioChannelChanged
attr title "Radio channel"
bin	-inf	0
bin	-0.5	0
bin	-0.48	0
bin	-0.46	0
bin	-0.44	0
bin	-0.42	0
bin	-0.4	0
bin	-0.38	0
bin	-0.36	0
bin	-0.34	0
bin	-0.32	0
bin	-0.3	0
bin	-0.28	0
bin	-0.26	0
bin	-0.24	0
bin	-0.22	0
bin	-0.2	0
bin	-0.18	0
bin	-0.16	0
bin	-0.14	0
bin	-0.12	0
bin	-0.1	0
bin	-0.08	0
bin	-0.06	0
bin	-0.04	0
bin	-0.02	0
bin	0	1
bin	0.02	0
bin	0.04	0
bin	0.06	0
bin	0.08	0
bin	0.1	0
bin	0.12	0
bin	0.14	0
bin	0.16	0
bin	0.18	0
bin	0.2	0
bin	0.22	0
bin	0.24	0
bin	0.26	0
bin	0.28	0
bin	0.3	0
bin	0.32	0
bin	0.34	0
bin	0.36	0
bin	0.38	0
bin	0.4	0
bin	0.42	0
bin	0.44	0
bin	0.46	0
bin	0.48	0
bin	0.5	0
scalar DYMONetwork.host[1].wlan[0].radio radioMode:count 847
attr interpolationmode sample-hold
attr recordingmode count
attr source radioModeChanged
attr title "Radio mode, count"
scalar DYMONetwork.host[1].wlan[0].radio receptionState:count 5520
attr interpolationmode sample-hold
attr recordingmode count
attr source receptionStateChanged
attr title "Radio reception state, count"
scalar DYMONetwork.host[1].wlan[0].radio transmissionState:count 1688
attr interpolationmode sample-hold
attr recordingmode count
attr source transmissionStateChanged
attr title "Radio transmission state, count"
statistic DYMONetwork.host[1].wlan[0].radio minSnir:histogram
field count 1951
field mean 3479.7974402675
field stddev 9140.71477451
field min 0.19360792284731
field max 31327.346258133
field sum 6789084.805962
field sqrsum 186552339777.99
attr recordingmode histogram
attr source minimumSnir(packetSentToUpper)
attr title "Min SNIR"
bin	-inf	0
bin	0	1296
bin	500	39
bin	1000	222
bin	1500	205
bin	2000	0
bin	2500	0
bin	3000	0
bin	3500	0
bin	4000	0
bin	4500	0
bin	5000	0
bin	5500	0
bin	6000	0
bin	6500	0
bin	7000	0
bin	7500	0
bin	8000	0
bin	8500	0
bin	9000	0
bin	9500	0
bin	10000	0
bin	10500	0
bin	11000	0
bin	11500	0
bin	12000	0
bin	12500	0
bin	13000	0
bin	13500	0
bin	14000	0
bin	14500	0
bin	15000	0
bin	15500	0
bin	16000	0
bin	16500	0
bin	17000	0
bin	17500	0
bin	18000	0
bin	18500	0
bin	19000	0
bin	19500	0
bin	20000	0
bin	20500	0
bin	21000	0
bin	21500	0
bin	22000	0
bin	22500	0
bin	23000	0
bin	23500	0
bin	24000	0
bin	24500	0
bin	25000	0
bin	25500	0
bin	26000	0
bin	26500	0
bin	27000	0
bin	27500	0
bin	28000	0
bin	28500	0
bin	29000	0
bin	29500	0
bin	30000	0
bin	30500	0
bin	31000	189
bin	31500	0
bin	32000	0
bin	32500	0
bin	33000	0
bin	33500	0
bin	34000	0
bin	34500	0
bin	35000	0
bin	35500	0
bin	36000	0
bin	36500	0
bin	37000	0
bin	37500	0
bin	38000	0
bin	38500	0
bin	39000	0
bin	39500	0
statistic DYMONetwork.host[1].wlan[0].radio packetErrorRate:histogram
field count 1951
field mean 0.16362653511651
field stddev 0.34512456330108
field min 0
field max 1
field sum 319.23537001232
field sqrsum 284.50175765958
attr recordingmode histogram
attr source packetErrorRate(packetSentToUpper)
attr title "Packet error rate"
bin	-inf	0
bin	0	1486
bin	0.02	40
bin	0.04	11
bin	0.06	18
bin	0.08	8
bin	0.1	0
bin	0.12	1
bin	0.14	1
bin	0.16	1
bin	0.18	4
bin	0.2	8
bin	0.22	9
bin	0.24	3
bin	0.26	1
bin	0.28	1
bin	0.3	2
bin	0.32	16
bin	0.34	0
bin	0.36	7
bin	0.38	16
bin	0.4	2
bin	0.42	1
bin	0.44	1
bin	0.46	7
bin	0.48	1
bin	0.5	1
bin	0.52	0
bin	0.54	0
bin	0.56	0
bin	0.58	0
bin	0.6	0
bin	0.62	3
bin	0.64	0
bin	0.66	2
bin	0.68	5
bin	0.7	5
bin	0.72	6
bin	0.74	10
bin	0.76	12
bin	0.78	9
bin	0.8	0
bin	0.82	1
bin	0.84	2
bin	0.86	11
bin	0.88	6
bin	0.9	1
bin	0.92	3
bin	0.94	7
bin	0.96	8
bin	0.98	136
bin	1	78
bin	1.02	0
bin	1.04	0
bin	1.06	0
bin	1.08	0
bin	1.1	0
bin	1.12	0
bin	1.14	0
bin	1.16	0
bin	1.18	0
bin	1.2	0
bin	1.22	0
bin	1.24	0
bin	1.26	0
statistic DYMONetwork.host[1].wlan[0].radio bitErrorRate:histogram
field count 0
field mean -nan
field stddev nan
field min nan
field max nan
field sum 0
field sqrsum 0
attr recordingmode histogram
attr source bitErrorRate(packetSentToUpper)
attr title "Bit error rate"
bin	-inf	0
bin	0	0
bin	1	0
statistic DYMONetwork.host[1].wlan[0].radio symbolErrorRate:histogram
field count 0
field mean -nan
field stddev nan
field min nan
field max nan
field sum 0
field sqrsum 0
attr recordingmode histogram
attr source symbolErrorRate(packetSentToUpper)
attr title "Symbol error rate"
bin	-inf	0
bin	0	0
bin	1	0
scalar DYMONetwork.host[1].wlan[0] packetDropInterfaceDown:count 0
attr interpolationmode none
attr recordingmode count
attr source packetDropReasonIsInterfaceDown(packetDropped)
attr title "packet drops: interface down, count"
scalar DYMONetwork.host[1].wlan[0] packetDropInterfaceDown:sum(packetBytes) 0
attr interpolationmode none
attr recordingmode sum(packetBytes)
attr source packetDropReasonIsInterfaceDown(packetDropped)
attr title "packet drops: interface down, sum(packetBytes)"
scalar DYMONetwork.host[1].wlan[0] packetDropNoCarrier:count 0
attr interpolationmode none
attr recordingmode count
attr source packetDropReasonIsNoCarrier(packetDropped)
attr title "packet drops: no carrier, count"
scalar DYMONetwork.host[1].wlan[0] packetDropNoCarrier:sum(packetBytes) 0
attr interpolationmode none
attr recordingmode sum(packetBytes)
attr source packetDropReasonIsNoCarrier(packetDropped)
attr title "packet drops: no carrier, sum(packetBytes)"
scalar DYMONetwork.host[1].ipv4.ip packetDropAddressResolutionFailed:count 0
attr interpolationmode none
attr recordingmode count
attr source packetDropReasonIsAddressResolutionFailed(packetDropped)
attr title "packet drop: address resolution failed, count"
scalar DYMONetwork.host[1].ipv4.ip packetDropAddressResolutionFailed:sum(packetBytes) 0
attr interpolationmode none
attr recordingmode sum(packetBytes)
attr source packetDropReasonIsAddressResolutionFailed(packetDropped)
attr title "packet drop: address resolution failed, sum(packetBytes)"
scalar DYMONetwork.host[1].ipv4.ip packetDropHopLimitReached:count 0
attr interpolationmode none
attr recordingmode count
attr source packetDropReasonIsHopLimitReached(packetDropped)
attr title "packet drop: hop limit reached, count"
scalar DYMONetwork.host[1].ipv4.ip packetDropHopLimitReached:sum(packetBytes) 0
attr interpolationmode none
attr recordingmode sum(packetBytes)
attr source packetDropReasonIsHopLimitReached(packetDropped)
attr title "packet drop: hop limit reached, sum(packetBytes)"
scalar DYMONetwork.host[1].ipv4.ip packetDropForwardingDisabled:count 0
attr interpolationmode none
attr recordingmode count
attr source packetDropReasonIsForwardingDisabled(packetDropped)
attr title "packet drop: forwarding disabled, count"
scalar DYMONetwork.host[1].ipv4.ip packetDropForwardingDisabled:sum(packetBytes) 0
attr interpolationmode none
attr recordingmode sum(packetBytes)
attr source packetDropReasonIsForwardingDisabled(packetDropped)
attr title "packet drop: forwarding disabled, sum(packetBytes)"
scalar DYMONetwork.host[1].ipv4.ip packetDropNoInterfaceFound:count 0
attr interpolationmode none
attr recordingmode count
attr source packetDropReasonIsNoInterfaceFound(packetDropped)
attr title "packet drop: no interface found, count"
scalar DYMONetwork.host[1].ipv4.ip packetDropNoInterfaceFound:sum(packetBytes) 0
attr interpolationmode none
attr recordingmode sum(packetBytes)
attr source packetDropReasonIsNoInterfaceFound(packetDropped)
attr title "packet drop: no interface found, sum(packetBytes)"
scalar DYMONetwork.host[1].ipv4.ip packetDropNoRouteFound:count 0
attr interpolationmode none
attr recordingmode count
attr source packetDropReasonIsNoRouteFound(packetDropped)
attr title "packet drop: no route found, count"
scalar DYMONetwork.host[1].ipv4.ip packetDropNoRouteFound:sum(packetBytes) 0
attr interpolationmode none
[...]
attr title "packets sent: multicast, count"
scalar DYMONetwork.host[19].wlan[0].mac.dcf packetSentToPeerMulticast:sum(packetBytes) 27300
attr interpolationmode none
attr recordingmode sum(packetBytes)
attr source ieee80211Multicast(packetSentToPeer)
attr title "packets sent: multicast, sum(packetBytes)"
scalar DYMONetwork.host[19].wlan[0].mac.dcf packetSentToPeerBroadcast:count 202
attr interpolationmode none
attr recordingmode count
attr source ieee80211Broadcast(packetSentToPeer)
attr title "packets sent: broadcast , count"
scalar DYMONetwork.host[19].wlan[0].mac.dcf packetSentToPeerBroadcast:sum(packetBytes) 21808
attr interpolationmode none
attr recordingmode sum(packetBytes)
attr source ieee80211Broadcast(packetSentToPeer)
attr title "packets sent: broadcast , sum(packetBytes)"
scalar DYMONetwork.host[19].wlan[0].mac.dcf packetSentToPeerWithRetry:count 0
attr interpolationmode none
attr recordingmode count
attr source ieee80211Retry(packetSentToPeer)
attr title "packets sent: with retry, count"
scalar DYMONetwork.host[19].wlan[0].mac.dcf packetSentToPeerWithRetry:sum(packetBytes) 0
attr interpolationmode none
attr recordingmode sum(packetBytes)
attr source ieee80211Retry(packetSentToPeer)
attr title "packets sent: with retry, sum(packetBytes)"
scalar DYMONetwork.host[19].wlan[0].mac.dcf packetSentToPeerWithoutRetry:count 252
attr interpolationmode none
attr recordingmode count
attr source ieee80211NotRetry(packetSentToPeer)
attr title "packets sent: without retry, count"
scalar DYMONetwork.host[19].wlan[0].mac.dcf packetSentToPeerWithoutRetry:sum(packetBytes) 27300
attr interpolationmode none
attr recordingmode sum(packetBytes)
attr source ieee80211NotRetry(packetSentToPeer)
attr title "packets sent: without retry, sum(packetBytes)"
scalar DYMONetwork.host[19].wlan[0].mac.dcf packetDrop:count 133
attr interpolationmode none
attr recordingmode count
attr source packetDropped
attr title "packet drops, count"
scalar DYMONetwork.host[19].wlan[0].mac.dcf packetDrop:sum(packetBytes) 5900
attr interpolationmode none
attr recordingmode sum(packetBytes)
attr source packetDropped
attr title "packet drops, sum(packetBytes)"
scalar DYMONetwork.host[19].wlan[0].mac.dcf packetDropNotAddressedToUs:count 133
attr interpolationmode none
attr recordingmode count
attr source packetDropReasonIsNotAddressedToUs(packetDropped)
attr title "packet drops: not addressed to us, count"
scalar DYMONetwork.host[19].wlan[0].mac.dcf packetDropNotAddressedToUs:sum(packetBytes) 5900
attr interpolationmode none
attr recordingmode sum(packetBytes)
attr source packetDropReasonIsNotAddressedToUs(packetDropped)
attr title "packet drops: not addressed to us, sum(packetBytes)"
scalar DYMONetwork.host[19].wlan[0].mac.dcf packetDropQueueOverflow:count 0
attr interpolationmode none
attr recordingmode count
attr source packetDropReasonIsQueueOverflow(packetDropped)
attr title "packet drops: queue overflow, count"
scalar DYMONetwork.host[19].wlan[0].mac.dcf packetDropQueueOverflow:sum(packetBytes) 0
attr interpolationmode none
attr recordingmode sum(packetBytes)
attr source packetDropReasonIsQueueOverflow(packetDropped)
attr title "packet drops: queue overflow, sum(packetBytes)"
scalar DYMONetwork.host[19].wlan[0].mac.dcf packetDropRetryLimitReached:count 0
attr interpolationmode none
attr recordingmode count
attr source packetDropReasonIsRetryLimitReached(packetDropped)
attr title "packet drops: retry limit reached, count"
scalar DYMONetwork.host[19].wlan[0].mac.dcf packetDropRetryLimitReached:sum(packetBytes) 0
attr interpolationmode none
attr recordingmode sum(packetBytes)
attr source packetDropReasonIsRetryLimitReached(packetDropped)
attr title "packet drops: retry limit reached, sum(packetBytes)"
scalar DYMONetwork.host[19].wlan[0].mac.dcf linkBroken:count 0
attr interpolationmode none
attr recordingmode count
attr title "link breaks, count"
scalar DYMONetwork.host[19].wlan[0].mac packetReceivedFromLower:count 2311
attr interpolationmode none
attr recordingmode count
attr title "packets received from lower layer, count"
scalar DYMONetwork.host[19].wlan[0].mac packetReceivedFromLower:sum(packetBytes) 236362
attr interpolationmode none
attr recordingmode sum(packetBytes)
attr title "packets received from lower layer, sum(packetBytes)"
scalar DYMONetwork.host[19].wlan[0].mac packetSentToLower:count 252
attr interpolationmode none
attr recordingmode count
attr title "packets sent to lower layer, count"
scalar DYMONetwork.host[19].wlan[0].mac packetSentToLower:sum(packetBytes) 27300
attr interpolationmode none
attr recordingmode sum(packetBytes)
attr title "packets sent to lower layer, sum(packetBytes)"
scalar DYMONetwork.host[19].wlan[0].mac packetReceivedFromUpper:count 252
attr interpolationmode none
attr recordingmode count
attr title "packets received from upper layer, count"
scalar DYMONetwork.host[19].wlan[0].mac packetReceivedFromUpper:sum(packetBytes) 20244
attr interpolationmode none
attr recordingmode sum(packetBytes)
attr title "packets received from upper layer, sum(packetBytes)"
scalar DYMONetwork.host[19].wlan[0].mac packetSentToUpper:count 1325
attr interpolationmode none
attr recordingmode count
attr title "packets sent to upper layer, count"
scalar DYMONetwork.host[19].wlan[0].mac packetSentToUpper:sum(packetBytes) 106224
attr interpolationmode none
attr recordingmode sum(packetBytes)
attr title "packets sent to upper layer, sum(packetBytes)"
scalar DYMONetwork.host[19].wlan[0].mac packetDrop:count 986
attr interpolationmode none
attr recordingmode count
attr source packetDropped
attr title "packet drops, count"
scalar DYMONetwork.host[19].wlan[0].mac packetDrop:sum(packetBytes) 93038
attr interpolationmode none
attr recordingmode sum(packetBytes)
attr source packetDropped
attr title "packet drops, sum(packetBytes)"
scalar DYMONetwork.host[19].wlan[0].mac packetDropIncorrectlyReceived:count 853
attr interpolationmode none
attr recordingmode count
attr source packetDropReasonIsIncorrectlyReceived(packetDropped)
attr title "packet drops: incorrectly received, count"
scalar DYMONetwork.host[19].wlan[0].mac packetDropIncorrectlyReceived:sum(packetBytes) 87138
attr interpolationmode none
attr recordingmode sum(packetBytes)
attr source packetDropReasonIsIncorrectlyReceived(packetDropped)
attr title "packet drops: incorrectly received, sum(packetBytes)"
scalar DYMONetwork.host[19].wlan[0].mac packetDropNotAddressedToUs:count 133
attr interpolationmode none
attr recordingmode count
attr source packetDropReasonIsNotAddressedToUs(packetDropped)
attr title "packet drops: not addressed to us, count"
scalar DYMONetwork.host[19].wlan[0].mac packetDropNotAddressedToUs:sum(packetBytes) 5900
attr interpolationmode none
attr recordingmode sum(packetBytes)
attr source packetDropReasonIsNotAddressedToUs(packetDropped)
attr title "packet drops: not addressed to us, sum(packetBytes)"
scalar DYMONetwork.host[19].wlan[0].mac packetDropQueueOverflow:count 0
attr interpolationmode none
attr recordingmode count
attr source packetDropReasonIsQueueOverflow(packetDropped)
attr title "packet drops: queue overflow, count"
scalar DYMONetwork.host[19].wlan[0].mac packetDropQueueOverflow:sum(packetBytes) 0
attr interpolationmode none
attr recordingmode sum(packetBytes)
attr source packetDropReasonIsQueueOverflow(packetDropped)
attr title "packet drops: queue overflow, sum(packetBytes)"
scalar DYMONetwork.host[19].wlan[0].mac packetDropRetryLimitReached:count 0
attr interpolationmode none
attr recordingmode count
attr source packetDropReasonIsRetryLimitReached(packetDropped)
attr title "packet drops: retry limit reached, count"
scalar DYMONetwork.host[19].wlan[0].mac packetDropRetryLimitReached:sum(packetBytes) 0
attr interpolationmode none
attr recordingmode sum(packetBytes)
attr source packetDropReasonIsRetryLimitReached(packetDropped)
attr title "packet drops: retry limit reached, sum(packetBytes)"
scalar DYMONetwork.host[19].wlan[0].mac packetDropDuplicateDetected:count 0
attr interpolationmode none
attr recordingmode count
attr source packetDropReasonIsDuplicateDetected(packetDropped)
attr title "packet drops: duplicate detected, count"
scalar DYMONetwork.host[19].wlan[0].mac packetDropDuplicateDetected:sum(packetBytes) 0
attr interpolationmode none
attr recordingmode sum(packetBytes)
attr source packetDropReasonIsDuplicateDetected(packetDropped)
attr title "packet drops: duplicate detected, sum(packetBytes)"
scalar DYMONetwork.host[19].wlan[0].mac packetDropOther:count 0
attr interpolationmode none
attr recordingmode count
attr source packetDropReasonIsOther(packetDropped)
attr title "packet drops: other, count"
scalar DYMONetwork.host[19].wlan[0].mac packetDropOther:sum(packetBytes) 0
attr interpolationmode none
attr recordingmode sum(packetBytes)
attr source packetDropReasonIsOther(packetDropped)
attr title "packet drops: other, sum(packetBytes)"
scalar DYMONetwork.host[19].wlan[0].mac linkBroken:count 0
attr interpolationmode none
attr recordingmode count
attr title "link breaks, count"
statistic DYMONetwork.host[19].wlan[0].radio radioChannel:histogram
field count 1
field mean 0
field stddev nan
field min 0
field max 0
field sum 0
field sqrsum 0
attr interpolationmode sample-hold
attr recordingmode histogram
attr source radioChannelChanged
attr title "Radio channel"
bin	-inf	0
bin	-0.5	0
bin	-0.48	0
bin	-0.46	0
bin	-0.44	0
bin	-0.42	0
bin	-0.4	0
bin	-0.38	0
bin	-0.36	0
bin	-0.34	0
bin	-0.32	0
bin	-0.3	0
bin	-0.28	0
bin	-0.26	0
bin	-0.24	0
bin	-0.22	0
bin	-0.2	0
bin	-0.18	0
bin	-0.16	0
bin	-0.14	0
bin	-0.12	0
bin	-0.1	0
bin	-0.08	0
bin	-0.06	0
bin	-0.04	0
bin	-0.02	0
bin	0	1
bin	0.02	0
bin	0.04	0
bin	0.06	0
bin	0.08	0
bin	0.1	0
bin	0.12	0
bin	0.14	0
bin	0.16	0
bin	0.18	0
bin	0.2	0
bin	0.22	0
bin	0.24	0
bin	0.26	0
bin	0.28	0
bin	0.3	0
bin	0.32	0
bin	0.34	0
bin	0.36	0
bin	0.38	0
bin	0.4	0
bin	0.42	0
bin	0.44	0
bin	0.46	0
bin	0.48	0
bin	0.5	0
scalar DYMONetwork.host[19].wlan[0].radio radioMode:count 507
attr interpolationmode sample-hold
attr recordingmode count
attr source radioModeChanged
attr title "Radio mode, count"
scalar DYMONetwork.host[19].wlan[0].radio receptionState:count 6363
attr interpolationmode sample-hold
attr recordingmode count
attr source receptionStateChanged
attr title "Radio reception state, count"
scalar DYMONetwork.host[19].wlan[0].radio transmissionState:count 1008
attr interpolationmode sample-hold
attr recordingmode count
attr source transmissionStateChanged
attr title "Radio transmission state, count"
statistic DYMONetwork.host[19].wlan[0].radio minSnir:histogram
field count 2311
field mean 420.08878416033
field stddev 411.97968351081
field min 0.19422529202622
field max 1436.5760870586
field sum 970825.18019452
field sqrsum 799902739.31544
attr recordingmode histogram
attr source minimumSnir(packetSentToUpper)
attr title "Min SNIR"
bin	-inf	0
bin	0	885
bin	20	0
bin	40	0
bin	60	0
bin	80	0
bin	100	0
bin	120	0
bin	140	0
bin	160	0
bin	180	0
bin	200	0
bin	220	0
bin	240	0
bin	260	0
bin	280	0
bin	300	0
bin	320	222
bin	340	0
bin	360	159
bin	380	0
bin	400	0
bin	420	0
bin	440	0
bin	460	0
bin	480	190
bin	500	0
bin	520	0
bin	540	0
bin	560	0
bin	580	0
bin	600	192
bin	620	0
bin	640	0
bin	660	0
bin	680	123
bin	700	0
bin	720	0
bin	740	0
bin	760	0
bin	780	0
bin	800	229
bin	820	162
bin	840	0
bin	860	0
bin	880	0
bin	900	0
bin	920	0
bin	940	0
bin	960	0
bin	980	0
bin	1000	0
bin	1020	0
bin	1040	0
bin	1060	0
bin	1080	0
bin	1100	0
bin	1120	0
bin	1140	0
bin	1160	0
bin	1180	0
bin	1200	0
bin	1220	0
bin	1240	0
bin	1260	0
bin	1280	0
bin	1300	0
bin	1320	0
bin	1340	0
bin	1360	0
bin	1380	0
bin	1400	0
bin	1420	149
bin	1440	0
bin	1460	0
bin	1480	0
bin	1500	0
bin	1520	0
bin	1540	0
bin	1560	0
bin	1580	0
bin	1600	0
bin	1620	0
bin	1640	0
bin	1660	0
bin	1680	0
bin	1700	0
bin	1720	0
bin	1740	0
bin	1760	0
bin	1780	0
bin	1800	0
statistic DYMONetwork.host[19].wlan[0].radio packetErrorRate:histogram
field count 2311
field mean 0.3670422128249
field stddev 0.47529828509384
field min 0
field max 1
field sum 848.23455383835
field sqrsum 833.18642980374
attr recordingmode histogram
attr source packetErrorRate(packetSentToUpper)
attr title "Packet error rate"
bin	-inf	0
bin	0	1428
bin	0.02	4
bin	0.04	5
bin	0.06	0
bin	0.08	0
bin	0.1	0
bin	0.12	0
bin	0.14	0
bin	0.16	0
bin	0.18	0
bin	0.2	0
bin	0.22	0
bin	0.24	0
bin	0.26	0
bin	0.28	1
bin	0.3	0
bin	0.32	1
bin	0.34	0
bin	0.36	8
bin	0.38	2
bin	0.4	0
bin	0.42	5
bin	0.44	4
bin	0.46	1
bin	0.48	1
bin	0.5	0
bin	0.52	0
bin	0.54	6
bin	0.56	0
bin	0.58	0
bin	0.6	0
bin	0.62	0
bin	0.64	5
bin	0.66	0
bin	0.68	5
bin	0.7	1
bin	0.72	2
bin	0.74	0
bin	0.76	2
bin	0.78	1
bin	0.8	5
bin	0.82	1
bin	0.84	10
bin	0.86	1
bin	0.88	0
bin	0.9	9
bin	0.92	3
bin	0.94	12
bin	0.96	10
bin	0.98	280
bin	1	498
bin	1.02	0
bin	1.04	0
bin	1.06	0
bin	1.08	0
bin	1.1	0
bin	1.12	0
bin	1.14	0
bin	1.16	0
bin	1.18	0
bin	1.2	0
bin	1.22	0
bin	1.24	0
bin	1.26	0
statistic DYMONetwork.host[19].wlan[0].radio bitErrorRate:histogram
field count 0
field mean -nan
field stddev nan
field min nan
field max nan
field sum 0
field sqrsum 0
attr recordingmode histogram
attr source bitErrorRate(packetSentToUpper)
attr title "Bit error rate"
bin	-inf	0
bin	0	0
bin	1	0
statistic DYMONetwork.host[19].wlan[0].radio symbolErrorRate:histogram
field count 0
field mean -nan
field stddev nan
field min nan
field max nan
field sum 0
field sqrsum 0
attr recordingmode histogram
attr source symbolErrorRate(packetSentToUpper)
attr title "Symbol error rate"
bin	-inf	0
bin	0	0
bin	1	0
scalar DYMONetwork.host[19].wlan[0] packetDropInterfaceDown:count 0
attr interpolationmode none
attr recordingmode count
attr source packetDropReasonIsInterfaceDown(packetDropped)
attr title "packet drops: interface down, count"
scalar DYMONetwork.host[19].wlan[0] packetDropInterfaceDown:sum(packetBytes) 0
attr interpolationmode none
attr recordingmode sum(packetBytes)
attr source packetDropReasonIsInterfaceDown(packetDropped)
attr title "packet drops: interface down, sum(packetBytes)"
scalar DYMONetwork.host[19].wlan[0] packetDropNoCarrier:count 0
attr interpolationmode none
attr recordingmode count
attr source packetDropReasonIsNoCarrier(packetDropped)
attr title "packet drops: no carrier, count"
scalar DYMONetwork.host[19].wlan[0] packetDropNoCarrier:sum(packetBytes) 0
attr interpolationmode none
attr recordingmode sum(packetBytes)
attr source packetDropReasonIsNoCarrier(packetDropped)
attr title "packet drops: no carrier, sum(packetBytes)"
scalar DYMONetwork.host[19].ipv4.ip packetDropAddressResolutionFailed:count 0
attr interpolationmode none
attr recordingmode count
attr source packetDropReasonIsAddressResolutionFailed(packetDropped)
attr title "packet drop: address resolution failed, count"
scalar DYMONetwork.host[19].ipv4.ip packetDropAddressResolutionFailed:sum(packetBytes) 0
attr interpolationmode none
attr recordingmode sum(packetBytes)
attr source packetDropReasonIsAddressResolutionFailed(packetDropped)
attr title "packet drop: address resolution failed, sum(packetBytes)"
scalar DYMONetwork.host[19].ipv4.ip packetDropHopLimitReached:count 0
attr interpolationmode none
attr recordingmode count
attr source packetDropReasonIsHopLimitReached(packetDropped)
attr title "packet drop: hop limit reached, count"
scalar DYMONetwork.host[19].ipv4.ip packetDropHopLimitReached:sum(packetBytes) 0
attr interpolationmode none
attr recordingmode sum(packetBytes)
attr source packetDropReasonIsHopLimitReached(packetDropped)
attr title "packet drop: hop limit reached, sum(packetBytes)"
scalar DYMONetwork.host[19].ipv4.ip packetDropForwardingDisabled:count 0
attr interpolationmode none
attr recordingmode count
attr source packetDropReasonIsForwardingDisabled(packetDropped)
attr title "packet drop: forwarding disabled, count"
scalar DYMONetwork.host[19].ipv4.ip packetDropForwardingDisabled:sum(packetBytes) 0
attr interpolationmode none
attr recordingmode sum(packetBytes)
attr source packetDropReasonIsForwardingDisabled(packetDropped)
attr title "packet drop: forwarding disabled, sum(packetBytes)"
scalar DYMONetwork.host[19].ipv4.ip packetDropNoInterfaceFound:count 0
attr interpolationmode none
attr recordingmode count
attr source packetDropReasonIsNoInterfaceFound(packetDropped)
attr title "packet drop: no interface found, count"
scalar DYMONetwork.host[19].ipv4.ip packetDropNoInterfaceFound:sum(packetBytes) 0
attr interpolationmode none
attr recordingmode sum(packetBytes)
attr source packetDropReasonIsNoInterfaceFound(packetDropped)
attr title "packet drop: no interface found, sum(packetBytes)"
scalar DYMONetwork.host[19].ipv4.ip packetDropNoRouteFound:count 0
attr interpolationmode none
attr recordingmode count
attr source packetDropReasonIsNoRouteFound(packetDropped)
attr title "packet drop: no route found, count"
scalar DYMONetwork.host[19].ipv4.ip packetDropNoRouteFound:sum(packetBytes) 0
attr interpolationmode none
attr recordingmode sum(packetBytes)
attr source packetDropReasonIsNoRouteFound(packetDropped)
attr title "packet drop: no route found, sum(packetBytes)"
scalar DYMONetwork.host[19].ipv4.ip packetDropUndefined:count 0
attr interpolationmode none
attr recordingmode count
attr source packetDropReasonIsUndefined(packetDropped)
attr title "packet drop: undefined, count"
scalar DYMONetwork.host[19].ipv4.ip packetDropUndefined:sum(packetBytes) 0
attr interpolationmode none
attr recordingmode sum(packetBytes)
attr source packetDropReasonIsUndefined(packetDropped)
attr title "packet drop: undefined, sum(packetBytes)"
scalar DYMONetwork.host[19].ipv4.arp arpResolutionFailed:count 0
attr recordingmode count
attr title "ARP failed resolutions, count"
scalar DYMONetwork.host[19].ipv4.arp arpResolutionCompleted:count 0
attr recordingmode count
attr title "ARP completed resolutions, count"
scalar DYMONetwork.host[19].ipv4.arp arpResolutionInitiated:count 0
attr recordingmode count
attr title "ARP initiated resolutions, count"
scalar DYMONetwork.host[19].ipv4.arp arpReplySent:count 0
attr recordingmode count
attr source arpReplySent
attr title "ARP replies sent, count"
scalar DYMONetwork.host[19].ipv4.arp arpReplySent:sum(packetBytes) 0
attr recordingmode sum(packetBytes)
attr source arpReplySent
attr title "ARP replies sent, sum(packetBytes)"
scalar DYMONetwork.host[19].ipv4.arp arpRequestSent:count 0
attr recordingmode count
attr source arpRequestSent
attr title "ARP request sent, count"
scalar DYMONetwork.host[19].ipv4.arp arpRequestSent:sum(packetBytes) 0
attr recordingmode sum(packetBytes)
attr source arpRequestSent
attr title "ARP request sent, sum(packetBytes)"
scalar DYMONetwork.host[19].ipv6.neighbourDiscovery startDad:count 1
attr recordingmode count
attr title "DAD started, count"
scalar DYMONetwork.host[19].udp packetReceived:count 0
attr interpolationmode none
attr recordingmode count
attr source packetReceived
attr title "packets received, count"
scalar DYMONetwork.host[19].udp packetReceived:sum(packetBytes) 0
attr interpolationmode none
attr recordingmode sum(packetBytes)
attr source packetReceived
attr title "packets received, sum(packetBytes)"
scalar DYMONetwork.host[19].udp packetSent:count 0
attr interpolationmode none
attr recordingmode count
attr source packetSent
attr title "packets sent, count"
scalar DYMONetwork.host[19].udp packetSent:sum(packetBytes) 0
attr interpolationmode none
attr recordingmode sum(packetBytes)
attr source packetSent
attr title "packets sent, sum(packetBytes)"
scalar DYMONetwork.host[19].udp passedUpPk:count 0
attr interpolationmode none
attr recordingmode count
attr source packetSentToUpper
attr title "packets passed up, count"
scalar DYMONetwork.host[19].udp droppedPkWrongPort:count 0
attr interpolationmode none
attr recordingmode count
attr source packetDropReasonIsNoPortFound(packetDropped)
attr title "packets dropped (wrong port), count"
scalar DYMONetwork.host[19].udp droppedPkBadChecksum:count 0
attr interpolationmode none
attr recordingmode count
attr source packetDropReasonIsIncorrectlyReceived(packetDropped)
attr title "packets dropped (checksum error), count"

