version 3
run lwip__inet-0-20240219-17:56:50-107650
attr configname lwip__inet
attr datetime 20240219-17:56:50
attr datetimef 20240219-175650
attr experiment lwip__inet
attr inifile omnetpp.ini
attr iterationvars ""
attr iterationvarsd ""
attr iterationvarsf ""
attr measurement ""
attr network BulkTransfer6
attr processid 107650
attr repetition 0
attr replication #0
attr resultdir results
attr runnumber 0
attr seedset 0
config **.param-recording false
config **.vector-recording false
config image-path /home/levy/workspace/inet/images
config output-scalar-file results/omnetpp.ini-lwip__inet-#0.sca
config sim-time-limit 50s
config description "TcpLwip <---> inet_TCP"
config **.server*.tcp.typename TcpLwip
config **.client*.tcp.typename Tcp
config network BulkTransfer6
config total-stack 7MiB
config sim-time-limit 50s
config **.client*.numApps 1
config **.client*.app[*].typename TcpSessionApp
config **.client*.app[0].active true
config **.client*.app[0].localAddress "\"\""
config **.client*.app[0].localPort -1
config **.client*.app[0].connectAddress "\"server\""
config **.client*.app[0].connectPort 1000
config **.client*.app[0].tOpen 5s
config **.client*.app[0].tSend 7s
config **.client*.app[0].sendBytes 1000000B
config **.client*.app[0].sendScript "\"\""
config **.client*.app[0].tClose 0s
config **.server.numApps 1
config **.server.app[*].typename TcpEchoApp
config **.server.app[0].localAddress "\"\""
config **.server.app[0].localPort 1000
config **.server.app[0].echoFactor 2.0
config **.server.app[0].echoDelay 0s
config **.eth[*].queue.typename EthernetQosQueue
config **.eth[*].queue.dataQueue.typename DropTailQueue
config **.eth[*].queue.dataQueue.packetCapacity 10
config **.eth[*].duplexMode true
config **.*.tcp*.advertisedWindow 65535
config **.router.hasTcp false
config **.router.hasUdp false

scalar BulkTransfer6.client1.ethernet pauseSent:count 0
attr recordingmode count
attr title "pause sent, count"
scalar BulkTransfer6.client1.ethernet pauseSent:sum 0
attr recordingmode sum
attr title "pause sent, sum"
scalar BulkTransfer6.client1.ethernet decapPk:count 5200
attr interpolationmode none
attr recordingmode count
attr source decapPk
attr title "packets decapsulated, count"
scalar BulkTransfer6.client1.ethernet decapPk:sum(packetBytes) 2312604
attr interpolationmode none
attr recordingmode sum(packetBytes)
attr source decapPk
attr title "packets decapsulated, sum(packetBytes)"
scalar BulkTransfer6.client1.ethernet encapPk:count 5205
attr interpolationmode none
attr recordingmode count
attr source encapPk
attr title "packets encapsulated, count"
scalar BulkTransfer6.client1.ethernet encapPk:sum(packetBytes) 1313920
attr interpolationmode none
attr recordingmode sum(packetBytes)
attr source encapPk
attr title "packets encapsulated, sum(packetBytes)"
scalar BulkTransfer6.client1.lo[0].lo rcvdPkFromHl:count 0
attr interpolationmode none
attr recordingmode count
attr source packetReceivedFromUpper
attr title "packets received from higher layer, count"
scalar BulkTransfer6.client1.lo[0].lo rcvdPkFromHl:sum(packetBytes) 0
attr interpolationmode none
attr recordingmode sum(packetBytes)
attr source packetReceivedFromUpper
attr title "packets received from higher layer, sum(packetBytes)"
scalar BulkTransfer6.client1.lo[0].lo passedUpPk:count 0
attr interpolationmode none
attr recordingmode count
attr source packetSentToUpper
attr title "packets passed to higher layer, count"
scalar BulkTransfer6.client1.lo[0].lo passedUpPk:sum(packetBytes) 0
attr interpolationmode none
attr recordingmode sum(packetBytes)
attr source packetSentToUpper
attr title "packets passed to higher layer, sum(packetBytes)"
scalar BulkTransfer6.client1.lo[0] packetDropInterfaceDown:count 0
attr interpolationmode none
attr recordingmode count
attr source packetDropReasonIsInterfaceDown(packetDropped)
attr title "packet drops: interface down, count"
scalar BulkTransfer6.client1.lo[0] packetDropInterfaceDown:sum(packetBytes) 0
attr interpolationmode none
attr recordingmode sum(packetBytes)
attr source packetDropReasonIsInterfaceDown(packetDropped)
attr title "packet drops: interface down, sum(packetBytes)"
scalar BulkTransfer6.client1.lo[0] packetDropNoCarrier:count 0
attr interpolationmode none
attr recordingmode count
attr source packetDropReasonIsNoCarrier(packetDropped)
attr title "packet drops: no carrier, count"
scalar BulkTransfer6.client1.lo[0] packetDropNoCarrier:sum(packetBytes) 0
attr interpolationmode none
attr recordingmode sum(packetBytes)
attr source packetDropReasonIsNoCarrier(packetDropped)
attr title "packet drops: no carrier, sum(packetBytes)"
scalar BulkTransfer6.client1.eth[0].queue.classifier packets:count 5201
attr recordingmode count
attr source packetPushed
attr title "packets, count"
attr unit pk
scalar BulkTransfer6.client1.eth[0].queue.classifier packetLengths:sum 11258448
attr interpolationmode none
attr recordingmode sum
attr source packetLength(packetPushed)
attr title "packet lengths, sum"
attr unit b
statistic BulkTransfer6.client1.eth[0].queue.classifier packetLengths:histogram
field count 5201
field mean 2164.6698711786
field stddev 2057.3365179546
field min 592
field max 4912
field sum 11258448
field sqrsum 46380517632
attr interpolationmode none
attr recordingmode histogram
attr source packetLength(packetPushed)
attr title "packet lengths"
attr unit b
bin	-inf	0
bin	0	0
bin	100	0
bin	200	0
bin	300	0
bin	400	0
bin	500	1
bin	600	3330
bin	700	1
bin	800	0
bin	900	0
bin	1000	0
bin	1100	0
bin	1200	0
bin	1300	0
bin	1400	0
bin	1500	0
bin	1600	0
bin	1700	0
bin	1800	0
bin	1900	0
bin	2000	0
bin	2100	0
bin	2200	0
bin	2300	0
bin	2400	0
bin	2500	0
bin	2600	0
bin	2700	0
bin	2800	0
bin	2900	0
bin	3000	0
bin	3100	0
bin	3200	0
bin	3300	0
bin	3400	0
bin	3500	1
bin	3600	0
bin	3700	0
bin	3800	0
bin	3900	0
bin	4000	0
bin	4100	0
bin	4200	0
bin	4300	0
bin	4400	0
bin	4500	0
bin	4600	0
bin	4700	0
bin	4800	0
bin	4900	1868
bin	5000	0
bin	5100	0
bin	5200	0
bin	5300	0
bin	5400	0
bin	5500	0
bin	5600	0
bin	5700	0
bin	5800	0
bin	5900	0
bin	6000	0
scalar BulkTransfer6.client1.eth[0].queue.pauseQueue queueLength:last 0
attr autoWarmupFilter false
attr interpolationmode sample-hold
attr recordingmode last
attr source "warmup(atomic(constant0(packetPushEnded) + count(packetPushStarted) - count(packetPulled) - count(packetRemoved) - count(packetDropped)))"
attr title "queue length, last"
attr unit pk
scalar BulkTransfer6.client1.eth[0].queue.pauseQueue queueLength:max 0
attr autoWarmupFilter false
attr interpolationmode sample-hold
attr recordingmode max
attr source "warmup(atomic(constant0(packetPushEnded) + count(packetPushStarted) - count(packetPulled) - count(packetRemoved) - count(packetDropped)))"
attr title "queue length, max"
attr unit pk
scalar BulkTransfer6.client1.eth[0].queue.pauseQueue queueLength:timeavg 0
attr autoWarmupFilter false
attr interpolationmode sample-hold
attr recordingmode timeavg
attr source "warmup(atomic(constant0(packetPushEnded) + count(packetPushStarted) - count(packetPulled) - count(packetRemoved) - count(packetDropped)))"
attr title "queue length, timeavg"
attr unit pk
scalar BulkTransfer6.client1.eth[0].queue.pauseQueue queueBitLength:last 0
attr autoWarmupFilter false
attr interpolationmode sample-hold
attr recordingmode last
attr source "warmup(atomic(constant0(packetPushEnded) + sum(packetLength(packetPushStarted)) - sum(packetLength(packetPulled)) - sum(packetLength(packetRemoved)) - sum(packetLength(packetDropped))))"
attr title "queue bit length, last"
attr unit b
scalar BulkTransfer6.client1.eth[0].queue.pauseQueue queueBitLength:max 0
attr autoWarmupFilter false
attr interpolationmode sample-hold
attr recordingmode max
attr source "warmup(atomic(constant0(packetPushEnded) + sum(packetLength(packetPushStarted)) - sum(packetLength(packetPulled)) - sum(packetLength(packetRemoved)) - sum(packetLength(packetDropped))))"
attr title "queue bit length, max"
attr unit b
scalar BulkTransfer6.client1.eth[0].queue.pauseQueue queueBitLength:timeavg 0
attr autoWarmupFilter false
attr interpolationmode sample-hold
attr recordingmode timeavg
attr source "warmup(atomic(constant0(packetPushEnded) + sum(packetLength(packetPushStarted)) - sum(packetLength(packetPulled)) - sum(packetLength(packetRemoved)) - sum(packetLength(packetDropped))))"
attr title "queue bit length, timeavg"
attr unit b
statistic BulkTransfer6.client1.eth[0].queue.pauseQueue queueingTime:histogram
field count 0
field mean -nan
field stddev nan
field min nan
field max nan
field sum 0
field sqrsum 0
attr interpolationmode none
attr recordingmode histogram
attr source queueingTime(packetPulled)
attr title "queueing times"
attr unit s
bin	-inf	0
bin	0	0
bin	1	0
scalar BulkTransfer6.client1.eth[0].queue.pauseQueue outgoingPackets:count 0
attr recordingmode count
attr source packetPulled
attr title "outgoing packets, count"
attr unit pk
scalar BulkTransfer6.client1.eth[0].queue.pauseQueue outgoingPacketLengths:sum 0
attr interpolationmode none
attr recordingmode sum
attr source packetLength(packetPulled)
attr title "outgoing packet lengths, sum"
attr unit b
statistic BulkTransfer6.client1.eth[0].queue.pauseQueue outgoingPacketLengths:histogram
field count 0
field mean -nan
field stddev nan
field min nan
field max nan
field sum 0
field sqrsum 0
attr interpolationmode none
attr recordingmode histogram
attr source packetLength(packetPulled)
attr title "outgoing packet lengths"
attr unit b
bin	-inf	0
bin	0	0
bin	1	0
statistic BulkTransfer6.client1.eth[0].queue.pauseQueue flowQueueingTime:histogram
field count 0
field mean -nan
field stddev nan
field min nan
field max nan
field sum 0
field sqrsum 0
attr interpolationmode none
attr recordingmode histogram
attr source queueingTime(demuxFlow(packetPulled))
attr title "flow queueing times"
attr unit s
bin	-inf	0
bin	0	0
bin	1	0
scalar BulkTransfer6.client1.eth[0].queue.pauseQueue incomingPackets:count 0
attr recordingmode count
attr source packetPushStarted
attr title "incoming packets, count"
attr unit pk
scalar BulkTransfer6.client1.eth[0].queue.pauseQueue incomingPacketLengths:sum 0
attr interpolationmode none
attr recordingmode sum
attr source packetLength(packetPushStarted)
attr title "incoming packet lengths, sum"
attr unit b
statistic BulkTransfer6.client1.eth[0].queue.pauseQueue incomingPacketLengths:histogram
field count 0
field mean -nan
field stddev nan
field min nan
field max nan
field sum 0
field sqrsum 0
attr interpolationmode none
attr recordingmode histogram
attr source packetLength(packetPushStarted)
attr title "incoming packet lengths"
attr unit b
bin	-inf	0
bin	0	0
bin	1	0
scalar BulkTransfer6.client1.eth[0].queue.pauseQueue droppedPacketsQueueOverflow:count 0
attr interpolationmode none
attr recordingmode count
attr source packetDropReasonIsQueueOverflow(packetDropped)
attr title "dropped packets: queue overflow, count"
attr unit pk
scalar BulkTransfer6.client1.eth[0].queue.pauseQueue droppedPacketLengthsQueueOverflow:sum 0
attr interpolationmode none
attr recordingmode sum
attr source packetLength(packetDropReasonIsQueueOverflow(packetDropped))
attr title "dropped packet lengths: queue overflow, sum"
attr unit b
scalar BulkTransfer6.client1.eth[0].queue.dataQueue queueLength:last 0
attr autoWarmupFilter false
attr interpolationmode sample-hold
attr recordingmode last
attr source "warmup(atomic(constant0(packetPushEnded) + count(packetPushStarted) - count(packetPulled) - count(packetRemoved) - count(packetDropped)))"
attr title "queue length, last"
attr unit pk
scalar BulkTransfer6.client1.eth[0].queue.dataQueue queueLength:max 3
attr autoWarmupFilter false
attr interpolationmode sample-hold
attr recordingmode max
attr source "warmup(atomic(constant0(packetPushEnded) + count(packetPushStarted) - count(packetPulled) - count(packetRemoved) - count(packetDropped)))"
attr title "queue length, max"
attr unit pk
scalar BulkTransfer6.client1.eth[0].queue.dataQueue queueLength:timeavg 0.0065019520000001
attr autoWarmupFilter false
attr interpolationmode sample-hold
attr recordingmode timeavg
attr source "warmup(atomic(constant0(packetPushEnded) + count(packetPushStarted) - count(packetPulled) - count(packetRemoved) - count(packetDropped)))"
attr title "queue length, timeavg"
attr unit pk
scalar BulkTransfer6.client1.eth[0].queue.dataQueue queueBitLength:last 0
attr autoWarmupFilter false
attr interpolationmode sample-hold
attr recordingmode last
attr source "warmup(atomic(constant0(packetPushEnded) + sum(packetLength(packetPushStarted)) - sum(packetLength(packetPulled)) - sum(packetLength(packetRemoved)) - sum(packetLength(packetDropped))))"
attr title "queue bit length, last"
attr unit b
scalar BulkTransfer6.client1.eth[0].queue.dataQueue queueBitLength:max 10448
attr autoWarmupFilter false
attr interpolationmode sample-hold
attr recordingmode max
attr source "warmup(atomic(constant0(packetPushEnded) + sum(packetLength(packetPushStarted)) - sum(packetLength(packetPulled)) - sum(packetLength(packetRemoved)) - sum(packetLength(packetDropped))))"
attr title "queue bit length, max"
attr unit b
scalar BulkTransfer6.client1.eth[0].queue.dataQueue queueBitLength:timeavg 17.760490496
attr autoWarmupFilter false
attr interpolationmode sample-hold
attr recordingmode timeavg
attr source "warmup(atomic(constant0(packetPushEnded) + sum(packetLength(packetPushStarted)) - sum(packetLength(packetPulled)) - sum(packetLength(packetRemoved)) - sum(packetLength(packetDropped))))"
attr title "queue bit length, timeavg"
attr unit b
statistic BulkTransfer6.client1.eth[0].queue.dataQueue queueingTime:histogram
field count 5201
field mean 6.2506748702173e-05
field stddev 0.00013306729328045
field min 0
field max 0.0010144
field sum 0.3250976
field sqrsum 0.0001123966976
attr interpolationmode none
attr recordingmode histogram
attr source queueingTime(packetPulled)
attr title "queueing times"
attr unit s
bin	-inf	0
bin	0	4221
bin	2e-05	3
bin	4e-05	0
bin	6e-05	3
bin	8e-05	1
bin	0.0001	0
bin	0.00012	0
bin	0.00014	1
bin	0.00016	0
bin	0.00018	0
bin	0.0002	0
bin	0.00022	1
bin	0.00024	0
bin	0.00026	1
bin	0.00028	0
bin	0.0003	781
bin	0.00032	0
bin	0.00034	1
bin	0.00036	0
bin	0.00038	0
bin	0.0004	0
bin	0.00042	171
bin	0.00044	0
bin	0.00046	0
bin	0.00048	0
bin	0.0005	12
bin	0.00052	0
bin	0.00054	0
bin	0.00056	0
bin	0.00058	1
bin	0.0006	0
bin	0.00062	0
bin	0.00064	0
bin	0.00066	0
bin	0.00068	0
bin	0.0007	0
bin	0.00072	0
bin	0.00074	0
bin	0.00076	0
bin	0.00078	0
bin	0.0008	0
bin	0.00082	0
bin	0.00084	1
bin	0.00086	0
bin	0.00088	0
bin	0.0009	0
bin	0.00092	2
bin	0.00094	0
bin	0.00096	0
bin	0.00098	0
bin	0.001	1
bin	0.00102	0
bin	0.00104	0
bin	0.00106	0
bin	0.00108	0
bin	0.0011	0
bin	0.00112	0
bin	0.00114	0
bin	0.00116	0
bin	0.00118	0
bin	0.0012	0
bin	0.00122	0
bin	0.00124	0
bin	0.00126	0
bin	0.00128	0
scalar BulkTransfer6.client1.eth[0].queue.dataQueue outgoingPackets:count 5201
attr recordingmode count
attr source packetPulled
attr title "outgoing packets, count"
attr unit pk
scalar BulkTransfer6.client1.eth[0].queue.dataQueue outgoingPacketLengths:sum 11258448
attr interpolationmode none
attr recordingmode sum
attr source packetLength(packetPulled)
attr title "outgoing packet lengths, sum"
attr unit b
statistic BulkTransfer6.client1.eth[0].queue.dataQueue outgoingPacketLengths:histogram
field count 5201
field mean 2164.6698711786
field stddev 2057.3365179546
field min 592
field max 4912
field sum 11258448
field sqrsum 46380517632
attr interpolationmode none
attr recordingmode histogram
attr source packetLength(packetPulled)
attr title "outgoing packet lengths"
attr unit b
bin	-inf	0
bin	0	0
bin	100	0
bin	200	0
bin	300	0
bin	400	0
bin	500	1
bin	600	3330
bin	700	1
bin	800	0
bin	900	0
bin	1000	0
bin	1100	0
bin	1200	0
bin	1300	0
bin	1400	0
bin	1500	0
bin	1600	0
bin	1700	0
bin	1800	0
bin	1900	0
bin	2000	0
bin	2100	0
bin	2200	0
bin	2300	0
bin	2400	0
bin	2500	0
bin	2600	0
bin	2700	0
bin	2800	0
bin	2900	0
bin	3000	0
bin	3100	0
bin	3200	0
bin	3300	0
bin	3400	0
bin	3500	1
bin	3600	0
bin	3700	0
bin	3800	0
bin	3900	0
bin	4000	0
bin	4100	0
bin	4200	0
bin	4300	0
bin	4400	0
bin	4500	0
bin	4600	0
bin	4700	0
bin	4800	0
bin	4900	1868
bin	5000	0
bin	5100	0
bin	5200	0
bin	5300	0
bin	5400	0
bin	5500	0
bin	5600	0
bin	5700	0
bin	5800	0
bin	5900	0
bin	6000	0
statistic BulkTransfer6.client1.eth[0].queue.dataQueue flowQueueingTime:histogram
field count 0
field mean -nan
field stddev nan
field min nan
field max nan
field sum 0
field sqrsum 0
attr interpolationmode none
attr recordingmode histogram
attr source queueingTime(demuxFlow(packetPulled))
attr title "flow queueing times"
attr unit s
bin	-inf	0
bin	0	0
bin	1	0
scalar BulkTransfer6.client1.eth[0].queue.dataQueue incomingPackets:count 5201
attr recordingmode count
attr source packetPushStarted
attr title "incoming packets, count"
attr unit pk
scalar BulkTransfer6.client1.eth[0].queue.dataQueue incomingPacketLengths:sum 11258448
attr interpolationmode none
attr recordingmode sum
attr source packetLength(packetPushStarted)
attr title "incoming packet lengths, sum"
attr unit b
statistic BulkTransfer6.client1.eth[0].queue.dataQueue incomingPacketLengths:histogram
field count 5201
field mean 2164.6698711786
field stddev 2057.3365179546
field min 592
field max 4912
field sum 11258448
field sqrsum 46380517632
attr interpolationmode none
attr recordingmode histogram
attr source packetLength(packetPushStarted)
attr title "incoming packet lengths"
attr unit b
bin	-inf	0
bin	0	0
bin	100	0
bin	200	0
bin	300	0
bin	400	0
bin	500	1
bin	600	3330
bin	700	1
bin	800	0
bin	900	0
bin	1000	0
bin	1100	0
bin	1200	0
bin	1300	0
bin	1400	0
bin	1500	0
bin	1600	0
bin	1700	0
bin	1800	0
bin	1900	0
bin	2000	0
bin	2100	0
bin	2200	0
bin	2300	0
bin	2400	0
bin	2500	0
bin	2600	0
bin	2700	0
bin	2800	0
bin	2900	0
bin	3000	0
bin	3100	0
bin	3200	0
bin	3300	0
bin	3400	0
bin	3500	1
bin	3600	0
bin	3700	0
bin	3800	0
bin	3900	0
bin	4000	0
bin	4100	0
bin	4200	0
bin	4300	0
bin	4400	0
bin	4500	0
bin	4600	0
bin	4700	0
bin	4800	0
bin	4900	1868
bin	5000	0
bin	5100	0
bin	5200	0
bin	5300	0
bin	5400	0
bin	5500	0
bin	5600	0
bin	5700	0
bin	5800	0
bin	5900	0
bin	6000	0
scalar BulkTransfer6.client1.eth[0].queue.dataQueue droppedPacketsQueueOverflow:count 0
attr interpolationmode none
attr recordingmode count
attr source packetDropReasonIsQueueOverflow(packetDropped)
attr title "dropped packets: queue overflow, count"
attr unit pk
scalar BulkTransfer6.client1.eth[0].queue.dataQueue droppedPacketLengthsQueueOverflow:sum 0
attr interpolationmode none
attr recordingmode sum
attr source packetLength(packetDropReasonIsQueueOverflow(packetDropped))
attr title "dropped packet lengths: queue overflow, sum"
attr unit b
scalar BulkTransfer6.client1.eth[0].queue.scheduler packets:count 5201
attr recordingmode count
attr source packetPulled
attr title "packets, count"
attr unit pk
scalar BulkTransfer6.client1.eth[0].queue.scheduler packetLengths:sum 11258448
attr interpolationmode none
attr recordingmode sum
attr source packetLength(packetPulled)
attr title "packet lengths, sum"
attr unit b
statistic BulkTransfer6.client1.eth[0].queue.scheduler packetLengths:histogram
field count 5201
field mean 2164.6698711786
field stddev 2057.3365179546
field min 592
field max 4912
field sum 11258448
field sqrsum 46380517632
attr interpolationmode none
attr recordingmode histogram
attr source packetLength(packetPulled)
attr title "packet lengths"
attr unit b
bin	-inf	0
bin	0	0
bin	100	0
bin	200	0
bin	300	0
bin	400	0
bin	500	1
bin	600	3330
bin	700	1
bin	800	0
bin	900	0
bin	1000	0
bin	1100	0
bin	1200	0
bin	1300	0
bin	1400	0
bin	1500	0
bin	1600	0
bin	1700	0
bin	1800	0
bin	1900	0
bin	2000	0
bin	2100	0
bin	2200	0
bin	2300	0
bin	2400	0
bin	2500	0
bin	2600	0
bin	2700	0
bin	2800	0
bin	2900	0
bin	3000	0
bin	3100	0
bin	3200	0
bin	3300	0
bin	3400	0
bin	3500	1
bin	3600	0
bin	3700	0
bin	3800	0
bin	3900	0
bin	4000	0
bin	4100	0
bin	4200	0
bin	4300	0
bin	4400	0
bin	4500	0
bin	4600	0
bin	4700	0
bin	4800	0
bin	4900	1868
bin	5000	0
bin	5100	0
bin	5200	0
bin	5300	0
bin	5400	0
bin	5500	0
bin	5600	0
bin	5700	0
bin	5800	0
bin	5900	0
bin	6000	0
scalar BulkTransfer6.client1.eth[0].queue queueLength:last -5201
attr autoWarmupFilter false
attr interpolationmode sample-hold
attr recordingmode last
attr source "warmup(atomic(constant0(localSignal(packetPushEnded)) + count(localSignal(packetPushStarted)) - count(localSignal(packetPulled)) - count(localSignal(packetRemoved)) - count(localSignal(packetDropped))))"
attr title "queue length, last"
attr unit pk
scalar BulkTransfer6.client1.eth[0].queue queueLength:max 0
attr autoWarmupFilter false
attr interpolationmode sample-hold
attr recordingmode max
attr source "warmup(atomic(constant0(localSignal(packetPushEnded)) + count(localSignal(packetPushStarted)) - count(localSignal(packetPulled)) - count(localSignal(packetRemoved)) - count(localSignal(packetDropped))))"
attr title "queue length, max"
attr unit pk
scalar BulkTransfer6.client1.eth[0].queue queueLength:timeavg -4089.5380446835
attr autoWarmupFilter false
attr interpolationmode sample-hold
attr recordingmode timeavg
attr source "warmup(atomic(constant0(localSignal(packetPushEnded)) + count(localSignal(packetPushStarted)) - count(localSignal(packetPulled)) - count(localSignal(packetRemoved)) - count(localSignal(packetDropped))))"
attr title "queue length, timeavg"
attr unit pk
scalar BulkTransfer6.client1.eth[0].queue queueBitLength:last -11258448
attr autoWarmupFilter false
attr interpolationmode sample-hold
attr recordingmode last
attr source "warmup(atomic(constant0(localSignal(packetPushEnded)) + sum(packetLength(localSignal(packetPushStarted))) - sum(packetLength(localSignal(packetPulled))) - sum(packetLength(localSignal(packetRemoved))) - sum(packetLength(localSignal(packetDropped)))))"
attr title "queue bit length, last"
attr unit b
scalar BulkTransfer6.client1.eth[0].queue queueBitLength:max 0
attr autoWarmupFilter false
attr interpolationmode sample-hold
attr recordingmode max
attr source "warmup(atomic(constant0(localSignal(packetPushEnded)) + sum(packetLength(localSignal(packetPushStarted))) - sum(packetLength(localSignal(packetPulled))) - sum(packetLength(localSignal(packetRemoved))) - sum(packetLength(localSignal(packetDropped)))))"
attr title "queue bit length, max"
attr unit b
scalar BulkTransfer6.client1.eth[0].queue queueBitLength:timeavg -9005178.9303302
attr autoWarmupFilter false
attr interpolationmode sample-hold
attr recordingmode timeavg
attr source "warmup(atomic(constant0(localSignal(packetPushEnded)) + sum(packetLength(localSignal(packetPushStarted))) - sum(packetLength(localSignal(packetPulled))) - sum(packetLength(localSignal(packetRemoved))) - sum(packetLength(localSignal(packetDropped)))))"
attr title "queue bit length, timeavg"
attr unit b
statistic BulkTransfer6.client1.eth[0].queue queueingTime:histogram
field count 5201
field mean 0
field stddev 0
field min 0
field max 0
field sum 0
field sqrsum 0
attr interpolationmode none
attr recordingmode histogram
attr source queueingTime(localSignal(packetPulled))
attr title "queueing times"
attr unit s
bin	-inf	0
bin	-0.5	0
bin	-0.48	0
bin	-0.46	0
bin	-0.44	0
bin	-0.42	0
bin	-0.4	0
bin	-0.38	0
bin	-0.36	0
bin	-0.34	0
bin	-0.32	0
bin	-0.3	0
bin	-0.28	0
bin	-0.26	0
bin	-0.24	0
bin	-0.22	0
bin	-0.2	0
bin	-0.18	0
bin	-0.16	0
bin	-0.14	0
bin	-0.12	0
bin	-0.1	0
bin	-0.08	0
bin	-0.06	0
bin	-0.04	0
bin	-0.02	0
bin	0	5201
bin	0.02	0
bin	0.04	0
bin	0.06	0
bin	0.08	0
bin	0.1	0
bin	0.12	0
bin	0.14	0
bin	0.16	0
bin	0.18	0
bin	0.2	0
bin	0.22	0
bin	0.24	0
bin	0.26	0
bin	0.28	0
bin	0.3	0
bin	0.32	0
bin	0.34	0
bin	0.36	0
bin	0.38	0
bin	0.4	0
bin	0.42	0
bin	0.44	0
bin	0.46	0
bin	0.48	0
bin	0.5	0
scalar BulkTransfer6.client1.eth[0].queue outgoingPackets:count 5201
attr recordingmode count
attr source localSignal(packetPulled)
attr title "outgoing packets, count"
attr unit pk
scalar BulkTransfer6.client1.eth[0].queue outgoingPacketLengths:sum 11258448
attr interpolationmode none
attr recordingmode sum
attr source packetLength(localSignal(packetPulled))
attr title "outgoing packet lengths, sum"
attr unit b
statistic BulkTransfer6.client1.eth[0].queue outgoingPacketLengths:histogram
field count 5201
field mean 2164.6698711786
field stddev 2057.3365179546
field min 592
field max 4912
field sum 11258448
field sqrsum 46380517632
attr interpolationmode none
attr recordingmode histogram
attr source packetLength(localSignal(packetPulled))
attr title "outgoing packet lengths"
attr unit b
bin	-inf	0
bin	0	0
bin	100	0
bin	200	0
bin	300	0
bin	400	0
bin	500	1
bin	600	3330
bin	700	1
bin	800	0
bin	900	0
bin	1000	0
bin	1100	0
bin	1200	0
bin	1300	0
bin	1400	0
bin	1500	0
bin	1600	0
bin	1700	0
bin	1800	0
bin	1900	0
bin	2000	0
bin	2100	0
bin	2200	0
bin	2300	0
bin	2400	0
bin	2500	0
bin	2600	0
bin	2700	0
bin	2800	0
bin	2900	0
bin	3000	0
bin	3100	0
bin	3200	0
bin	3300	0
bin	3400	0
bin	3500	1
bin	3600	0
bin	3700	0
bin	3800	0
bin	3900	0
bin	4000	0
bin	4100	0
bin	4200	0
bin	4300	0
bin	4400	0
bin	4500	0
bin	4600	0
bin	4700	0
bin	4800	0
bin	4900	1868
bin	5000	0
bin	5100	0
bin	5200	0
bin	5300	0
bin	5400	0
bin	5500	0
bin	5600	0
bin	5700	0
bin	5800	0
bin	5900	0
bin	6000	0
statistic BulkTransfer6.client1.eth[0].queue flowQueueingTime:histogram
field count 0
field mean -nan
field stddev nan
field min nan
field max nan
field sum 0
field sqrsum 0
attr interpolationmode none
attr recordingmode histogram
attr source queueingTime(demuxFlow(localSignal(packetPulled)))
attr title "flow queueing times"
attr unit s
bin	-inf	0
bin	0	0
bin	1	0
scalar BulkTransfer6.client1.eth[0].queue incomingPackets:count 0
attr recordingmode count
attr source localSignal(packetPushStarted)
attr title "incoming packets, count"
attr unit pk
scalar BulkTransfer6.client1.eth[0].queue incomingPacketLengths:sum 0
attr interpolationmode none
attr recordingmode sum
attr source packetLength(localSignal(packetPushStarted))
attr title "incoming packet lengths, sum"
attr unit b
statistic BulkTransfer6.client1.eth[0].queue incomingPacketLengths:histogram
field count 0
field mean -nan
field stddev nan
field min nan
field max nan
field sum 0
field sqrsum 0
attr interpolationmode none
attr recordingmode histogram
attr source packetLength(localSignal(packetPushStarted))
attr title "incoming packet lengths"
attr unit b
bin	-inf	0
bin	0	0
bin	1	0
scalar BulkTransfer6.client1.eth[0].queue droppedPacketsQueueOverflow:count 0
attr interpolationmode none
attr recordingmode count
attr source packetDropReasonIsQueueOverflow(localSignal(packetDropped))
attr title "dropped packets: queue overflow, count"
attr unit pk
scalar BulkTransfer6.client1.eth[0].queue droppedPacketLengthsQueueOverflow:sum 0
attr interpolationmode none
attr recordingmode sum
attr source packetLength(packetDropReasonIsQueueOverflow(localSignal(packetDropped)))
attr title "dropped packet lengths: queue overflow, sum"
attr unit b
scalar BulkTransfer6.client1.eth[0].mac "simulated time" 50
scalar BulkTransfer6.client1.eth[0].mac full-duplex 1
scalar BulkTransfer6.client1.eth[0].mac "frames/sec sent" 104.02
scalar BulkTransfer6.client1.eth[0].mac "frames/sec rcvd" 103.92
scalar BulkTransfer6.client1.eth[0].mac "bits/sec sent" 225168.96
scalar BulkTransfer6.client1.eth[0].mac "bits/sec rcvd" 384944
scalar BulkTransfer6.client1.eth[0].mac "rx channel idle (%)" 96.0840512
scalar BulkTransfer6.client1.eth[0].mac "rx channel utilization (%)" 3.9159488
scalar BulkTransfer6.client1.eth[0].mac rxPausePkUnits:count 0
attr interpolationmode none
attr recordingmode count
attr title "pause units received, count"
scalar BulkTransfer6.client1.eth[0].mac rxPausePkUnits:sum 0
attr interpolationmode none
attr recordingmode sum
attr title "pause units received, sum"
scalar BulkTransfer6.client1.eth[0].mac txPausePkUnits:count 0
attr interpolationmode none
attr recordingmode count
attr title "pause units sent, count"
scalar BulkTransfer6.client1.eth[0].mac txPausePkUnits:sum 0
attr interpolationmode none
attr recordingmode sum
attr title "pause units sent, sum"
scalar BulkTransfer6.client1.eth[0].mac rxPkOk:count 5196
attr interpolationmode none
attr recordingmode count
attr source rxPkOk
attr title "packets received OK, count"
scalar BulkTransfer6.client1.eth[0].mac rxPkOk:sum(packetBytes) 2405900
attr interpolationmode none
attr recordingmode sum(packetBytes)
attr source rxPkOk
attr title "packets received OK, sum(packetBytes)"
statistic BulkTransfer6.client1.eth[0].mac throughput:histogram
field count 525
field mean 432401.32675873
field stddev 1438539.745085
field min 0
field max 5918045.7052797
field sum 227010696.54833
field sqrsum 1.1825235438271e+15
attr interpolationmode linear
attr recordingmode histogram
attr source throughput(transmissionEnded)
attr title throughput
attr unit bps
bin	-inf	0
bin	0	470
bin	100000	0
bin	200000	0
bin	300000	1
bin	400000	1
bin	500000	1
bin	600000	1
bin	700000	0
bin	800000	0
bin	900000	0
bin	1000000	0
bin	1100000	0
bin	1200000	0
bin	1300000	0
bin	1400000	14
bin	1500000	0
bin	1600000	0
bin	1700000	0
bin	1800000	0
bin	1900000	0
bin	2000000	0
bin	2100000	0
bin	2200000	0
bin	2300000	0
bin	2400000	1
bin	2500000	0
bin	2600000	0
bin	2700000	0
bin	2800000	0
bin	2900000	0
bin	3000000	0
bin	3100000	0
bin	3200000	0
bin	3300000	0
bin	3400000	0
bin	3500000	0
bin	3600000	0
bin	3700000	0
bin	3800000	0
bin	3900000	0
bin	4000000	0
bin	4100000	0
bin	4200000	0
bin	4300000	0
bin	4400000	0
bin	4500000	0
bin	4600000	3
bin	4700000	3
bin	4800000	0
bin	4900000	0
bin	5000000	0
bin	5100000	0
bin	5200000	1
bin	5300000	1
bin	5400000	3
bin	5500000	0
bin	5600000	2
bin	5700000	1
bin	5800000	0
bin	5900000	22
bin	6000000	0
bin	6100000	0
bin	6200000	0
bin	6300000	0
bin	6400000	0
bin	6500000	0
bin	6600000	0
bin	6700000	0
bin	6800000	0
bin	6900000	0
bin	7000000	0
bin	7100000	0
bin	7200000	0
bin	7300000	0
bin	7400000	0
statistic BulkTransfer6.client1.eth[0].mac utilization:histogram
field count 525
field mean 4.323105935269
field stddev 14.380384604343
field min 0
field max 59.180457052798
field sum 2269.6306160162
field sqrsum 118172.67534424
attr interpolationmode linear
attr recordingmode histogram
attr source "100 * utilization(count(transmissionStarted) - count(transmissionEnded))"
attr title utilization
attr unit %
bin	-inf	0
bin	0	470
bin	1	0
bin	2	0
bin	3	0
bin	4	2
bin	5	0
bin	6	2
bin	7	0
bin	8	0
bin	9	0
bin	10	0
bin	11	0
bin	12	0
bin	13	0
bin	14	14
bin	15	0
bin	16	0
bin	17	0
bin	18	0
bin	19	0
bin	20	0
bin	21	0
bin	22	0
bin	23	0
bin	24	1
bin	25	0
bin	26	0
bin	27	0
bin	28	0
bin	29	0
bin	30	0
bin	31	0
bin	32	0
bin	33	0
bin	34	0
bin	35	0
bin	36	0
bin	37	0
bin	38	0
bin	39	0
bin	40	0
bin	41	0
bin	42	0
bin	43	0
bin	44	0
bin	45	0
bin	46	2
bin	47	4
bin	48	0
bin	49	0
bin	50	0
bin	51	0
bin	52	1
bin	53	2
bin	54	2
bin	55	0
bin	56	2
bin	57	1
bin	58	0
bin	59	22
bin	60	0
bin	61	0
bin	62	0
bin	63	0
bin	64	0
bin	65	0
bin	66	0
bin	67	0
bin	68	0
bin	69	0
bin	70	0
bin	71	0
bin	72	0
bin	73	0
bin	74	0
scalar BulkTransfer6.client1.eth[0].mac txPk:count 5201
attr interpolationmode none
attr recordingmode count
attr source packetSentToLower
attr title "packets transmitted, count"
scalar BulkTransfer6.client1.eth[0].mac txPk:sum(packetBytes) 1407306
attr interpolationmode none
attr recordingmode sum(packetBytes)
attr source packetSentToLower
attr title "packets transmitted, sum(packetBytes)"
scalar BulkTransfer6.client1.eth[0].mac packetReceivedFromUpper:count 5201
attr interpolationmode none
attr recordingmode count
attr source packetReceivedFromUpper
attr title "packet bytes from higher layer, count"
scalar BulkTransfer6.client1.eth[0].mac packetReceivedFromUpper:sum(packetBytes) 1407306
attr interpolationmode none
attr recordingmode sum(packetBytes)
attr source packetReceivedFromUpper
attr title "packet bytes from higher layer, sum(packetBytes)"
scalar BulkTransfer6.client1.eth[0].mac passedUpPk:count 5196
attr interpolationmode none
attr recordingmode count
attr source packetSentToUpper
attr title "packets passed to higher layer, count"
scalar BulkTransfer6.client1.eth[0].mac passedUpPk:sum(packetBytes) 2405900
attr interpolationmode none
attr recordingmode sum(packetBytes)
attr source packetSentToUpper
attr title "packets passed to higher layer, sum(packetBytes)"
scalar BulkTransfer6.client1.eth[0].mac packetDropIncorrectlyReceived:count 0
attr interpolationmode none
attr recordingmode count
attr source packetDropReasonIsIncorrectlyReceived(packetDropped)
attr title "packet drop: incorrectly received, count"
scalar BulkTransfer6.client1.eth[0].mac packetDropIncorrectlyReceived:sum(packetBytes) 0
attr interpolationmode none
attr recordingmode sum(packetBytes)
attr source packetDropReasonIsIncorrectlyReceived(packetDropped)
attr title "packet drop: incorrectly received, sum(packetBytes)"
scalar BulkTransfer6.client1.eth[0].mac packetDropInterfaceDown:count 0
attr interpolationmode none
attr recordingmode count
attr source packetDropReasonIsInterfaceDown(packetDropped)
attr title "packet drop: interface down, count"
scalar BulkTransfer6.client1.eth[0].mac packetDropInterfaceDown:sum(packetBytes) 0
attr interpolationmode none
attr recordingmode sum(packetBytes)
attr source packetDropReasonIsInterfaceDown(packetDropped)
attr title "packet drop: interface down, sum(packetBytes)"
scalar BulkTransfer6.client1.eth[0].mac packetDropNotAddressedToUs:count 0
attr interpolationmode none
attr recordingmode count
attr source packetDropReasonIsNotAddressedToUs(packetDropped)
attr title "packet drop: not addressed to us, count"
scalar BulkTransfer6.client1.eth[0].mac packetDropNotAddressedToUs:sum(packetBytes) 0
attr interpolationmode none
attr recordingmode sum(packetBytes)
attr source packetDropReasonIsNotAddressedToUs(packetDropped)
attr title "packet drop: not addressed to us, sum(packetBytes)"
scalar BulkTransfer6.client1.eth[0] packetDropInterfaceDown:count 0
attr interpolationmode none
attr recordingmode count
attr source packetDropReasonIsInterfaceDown(packetDropped)
attr title "packet drops: interface down, count"
scalar BulkTransfer6.client1.eth[0] packetDropInterfaceDown:sum(packetBytes) 0
attr interpolationmode none
attr recordingmode sum(packetBytes)
attr source packetDropReasonIsInterfaceDown(packetDropped)
attr title "packet drops: interface down, sum(packetBytes)"
scalar BulkTransfer6.client1.eth[0] packetDropNoCarrier:count 0
attr interpolationmode none
attr recordingmode count
attr source packetDropReasonIsNoCarrier(packetDropped)
attr title "packet drops: no carrier, count"
scalar BulkTransfer6.client1.eth[0] packetDropNoCarrier:sum(packetBytes) 0
attr interpolationmode none
attr recordingmode sum(packetBytes)
attr source packetDropReasonIsNoCarrier(packetDropped)
attr title "packet drops: no carrier, sum(packetBytes)"
scalar BulkTransfer6.client1.eth[1].queue.classifier packets:count 4
attr recordingmode count
attr source packetPushed
attr title "packets, count"
attr unit pk
scalar BulkTransfer6.client1.eth[1].queue.classifier packetLengths:sum 2432
attr interpolationmode none
attr recordingmode sum
attr source packetLength(packetPushed)
attr title "packet lengths, sum"
attr unit b
statistic BulkTransfer6.client1.eth[1].queue.classifier packetLengths:histogram
field count 4
field mean 608
field stddev 32
field min 592
field max 656
field sum 2432
field sqrsum 1481728
attr interpolationmode none
attr recordingmode histogram
attr source packetLength(packetPushed)
attr title "packet lengths"
attr unit b
bin	-inf	0
bin	576	0
bin	578	0
bin	580	0
bin	582	0
bin	584	0
bin	586	0
bin	588	0
bin	590	0
bin	592	3
bin	594	0
bin	596	0
bin	598	0
bin	600	0
bin	602	0
bin	604	0
bin	606	0
bin	608	0
bin	610	0
bin	612	0
bin	614	0
bin	616	0
bin	618	0
bin	620	0
bin	622	0
bin	624	0
bin	626	0
bin	628	0
bin	630	0
bin	632	0
bin	634	0
bin	636	0
bin	638	0
bin	640	0
bin	642	0
bin	644	0
bin	646	0
bin	648	0
bin	650	0
bin	652	0
bin	654	0
bin	656	1
bin	658	0
bin	660	0
bin	662	0
bin	664	0
bin	666	0
bin	668	0
bin	670	0
bin	672	0
scalar BulkTransfer6.client1.eth[1].queue.pauseQueue queueLength:last 0
attr autoWarmupFilter false
attr interpolationmode sample-hold
attr recordingmode last
attr source "warmup(atomic(constant0(packetPushEnded) + count(packetPushStarted) - count(packetPulled) - count(packetRemoved) - count(packetDropped)))"
attr title "queue length, last"
attr unit pk
scalar BulkTransfer6.client1.eth[1].queue.pauseQueue queueLength:max 0
attr autoWarmupFilter false
attr interpolationmode sample-hold
attr recordingmode max
attr source "warmup(atomic(constant0(packetPushEnded) + count(packetPushStarted) - count(packetPulled) - count(packetRemoved) - count(packetDropped)))"
attr title "queue length, max"
attr unit pk
scalar BulkTransfer6.client1.eth[1].queue.pauseQueue queueLength:timeavg 0
attr autoWarmupFilter false
attr interpolationmode sample-hold
attr recordingmode timeavg
attr source "warmup(atomic(constant0(packetPushEnded) + count(packetPushStarted) - count(packetPulled) - count(packetRemoved) - count(packetDropped)))"
attr title "queue length, timeavg"
attr unit pk
scalar BulkTransfer6.client1.eth[1].queue.pauseQueue queueBitLength:last 0
attr autoWarmupFilter false
attr interpolationmode sample-hold
attr recordingmode last
attr source "warmup(atomic(constant0(packetPushEnded) + sum(packetLength(packetPushStarted)) - sum(packetLength(packetPulled)) - sum(packetLength(packetRemoved)) - sum(packetLength(packetDropped))))"
attr title "queue bit length, last"
attr unit b
scalar BulkTransfer6.client1.eth[1].queue.pauseQueue queueBitLength:max 0
attr autoWarmupFilter false
attr interpolationmode sample-hold
attr recordingmode max
attr source "warmup(atomic(constant0(packetPushEnded) + sum(packetLength(packetPushStarted)) - sum(packetLength(packetPulled)) - sum(packetLength(packetRemoved)) - sum(packetLength(packetDropped))))"
attr title "queue bit length, max"
attr unit b
scalar BulkTransfer6.client1.eth[1].queue.pauseQueue queueBitLength:timeavg 0
attr autoWarmupFilter false
attr interpolationmode sample-hold
attr recordingmode timeavg
attr source "warmup(atomic(constant0(packetPushEnded) + sum(packetLength(packetPushStarted)) - sum(packetLength(packetPulled)) - sum(packetLength(packetRemoved)) - sum(packetLength(packetDropped))))"
attr title "queue bit length, timeavg"
attr unit b
statistic BulkTransfer6.client1.eth[1].queue.pauseQueue queueingTime:histogram
field count 0
field mean -nan
field stddev nan
field min nan
field max nan
field sum 0
field sqrsum 0
attr interpolationmode none
attr recordingmode histogram
attr source queueingTime(packetPulled)
attr title "queueing times"
attr unit s
bin	-inf	0
bin	0	0
bin	1	0
scalar BulkTransfer6.client1.eth[1].queue.pauseQueue outgoingPackets:count 0
attr recordingmode count
attr source packetPulled
attr title "outgoing packets, count"
attr unit pk
scalar BulkTransfer6.client1.eth[1].queue.pauseQueue outgoingPacketLengths:sum 0
attr interpolationmode none
attr recordingmode sum
attr source packetLength(packetPulled)
attr title "outgoing packet lengths, sum"
attr unit b
statistic BulkTransfer6.client1.eth[1].queue.pauseQueue outgoingPacketLengths:histogram
field count 0
field mean -nan
field stddev nan
field min nan
field max nan
field sum 0
field sqrsum 0
attr interpolationmode none
attr recordingmode histogram
attr source packetLength(packetPulled)
attr title "outgoing packet lengths"
attr unit b
bin	-inf	0
bin	0	0
bin	1	0
statistic BulkTransfer6.client1.eth[1].queue.pauseQueue flowQueueingTime:histogram
field count 0
field mean -nan
field stddev nan
field min nan
field max nan
field sum 0
field sqrsum 0
attr interpolationmode none
attr recordingmode histogram
attr source queueingTime(demuxFlow(packetPulled))
attr title "flow queueing times"
attr unit s
bin	-inf	0
bin	0	0
bin	1	0
scalar BulkTransfer6.client1.eth[1].queue.pauseQueue incomingPackets:count 0
attr recordingmode count
attr source packetPushStarted
attr title "incoming packets, count"
attr unit pk
scalar BulkTransfer6.client1.eth[1].queue.pauseQueue incomingPacketLengths:sum 0
attr interpolationmode none
attr recordingmode sum
attr source packetLength(packetPushStarted)
attr title "incoming packet lengths, sum"
attr unit b
statistic BulkTransfer6.client1.eth[1].queue.pauseQueue incomingPacketLengths:histogram
field count 0
field mean -nan
field stddev nan
field min nan
field max nan
field sum 0
field sqrsum 0
attr interpolationmode none
attr recordingmode histogram
attr source packetLength(packetPushStarted)
attr title "incoming packet lengths"
attr unit b
bin	-inf	0
bin	0	0
bin	1	0
scalar BulkTransfer6.client1.eth[1].queue.pauseQueue droppedPacketsQueueOverflow:count 0
attr interpolationmode none
attr recordingmode count
attr source packetDropReasonIsQueueOverflow(packetDropped)
attr title "dropped packets: queue overflow, count"
attr unit pk
scalar BulkTransfer6.client1.eth[1].queue.pauseQueue droppedPacketLengthsQueueOverflow:sum 0
attr interpolationmode none
attr recordingmode sum
attr source packetLength(packetDropReasonIsQueueOverflow(packetDropped))
attr title "dropped packet lengths: queue overflow, sum"
attr unit b
scalar BulkTransfer6.client1.eth[1].queue.dataQueue queueLength:last 0
attr autoWarmupFilter false
attr interpolationmode sample-hold
attr recordingmode last
attr source "warmup(atomic(constant0(packetPushEnded) + count(packetPushStarted) - count(packetPulled) - count(packetRemoved) - count(packetDropped)))"
attr title "queue length, last"
attr unit pk
scalar BulkTransfer6.client1.eth[1].queue.dataQueue queueLength:max 0
attr autoWarmupFilter false
attr interpolationmode sample-hold
attr recordingmode max
attr source "warmup(atomic(constant0(packetPushEnded) + count(packetPushStarted) - count(packetPulled) - count(packetRemoved) - count(packetDropped)))"
attr title "queue length, max"
attr unit pk
scalar BulkTransfer6.client1.eth[1].queue.dataQueue queueLength:timeavg 0
attr autoWarmupFilter false
attr interpolationmode sample-hold
attr recordingmode timeavg
attr source "warmup(atomic(constant0(packetPushEnded) + count(packetPushStarted) - count(packetPulled) - count(packetRemoved) - count(packetDropped)))"
attr title "queue length, timeavg"
attr unit pk
scalar BulkTransfer6.client1.eth[1].queue.dataQueue queueBitLength:last 0
attr autoWarmupFilter false
attr interpolationmode sample-hold
attr recordingmode last
attr source "warmup(atomic(constant0(packetPushEnded) + sum(packetLength(packetPushStarted)) - sum(packetLength(packetPulled)) - sum(packetLength(packetRemoved)) - sum(packetLength(packetDropped))))"
attr title "queue bit length, last"
attr unit b
scalar BulkTransfer6.client1.eth[1].queue.dataQueue queueBitLength:max 0
attr autoWarmupFilter false
attr interpolationmode sample-hold
attr recordingmode max
attr source "warmup(atomic(constant0(packetPushEnded) + sum(packetLength(packetPushStarted)) - sum(packetLength(packetPulled)) - sum(packetLength(packetRemoved)) - sum(packetLength(packetDropped))))"
attr title "queue bit length, max"
attr unit b
scalar BulkTransfer6.client1.eth[1].queue.dataQueue queueBitLength:timeavg 0
attr autoWarmupFilter false
attr interpolationmode sample-hold
attr recordingmode timeavg
attr source "warmup(atomic(constant0(packetPushEnded) + sum(packetLength(packetPushStarted)) - sum(packetLength(packetPulled)) - sum(packetLength(packetRemoved)) - sum(packetLength(packetDropped))))"
attr title "queue bit length, timeavg"
attr unit b
statistic BulkTransfer6.client1.eth[1].queue.dataQueue queueingTime:histogram
field count 4
field mean 0
field stddev 0
field min 0
field max 0
field sum 0
field sqrsum 0
attr interpolationmode none
attr recordingmode histogram
attr source queueingTime(packetPulled)
attr title "queueing times"
attr unit s
bin	-inf	0
bin	-0.5	0
bin	-0.48	0
bin	-0.46	0
bin	-0.44	0
bin	-0.42	0
bin	-0.4	0
bin	-0.38	0
bin	-0.36	0
bin	-0.34	0
bin	-0.32	0
bin	-0.3	0
bin	-0.28	0
bin	-0.26	0
bin	-0.24	0
bin	-0.22	0
bin	-0.2	0
bin	-0.18	0
bin	-0.16	0
bin	-0.14	0
bin	-0.12	0
bin	-0.1	0
bin	-0.08	0
bin	-0.06	0
bin	-0.04	0
bin	-0.02	0
bin	0	4
bin	0.02	0
bin	0.04	0
bin	0.06	0
bin	0.08	0
bin	0.1	0
bin	0.12	0
bin	0.14	0
bin	0.16	0
bin	0.18	0
bin	0.2	0
bin	0.22	0
bin	0.24	0
bin	0.26	0
bin	0.28	0
bin	0.3	0
bin	0.32	0
bin	0.34	0
bin	0.36	0
bin	0.38	0
bin	0.4	0
bin	0.42	0
bin	0.44	0
bin	0.46	0
bin	0.48	0
bin	0.5	0
scalar BulkTransfer6.client1.eth[1].queue.dataQueue outgoingPackets:count 4
attr recordingmode count
attr source packetPulled
attr title "outgoing packets, count"
attr unit pk
scalar BulkTransfer6.client1.eth[1].queue.dataQueue outgoingPacketLengths:sum 2432
attr interpolationmode none
attr recordingmode sum
attr source packetLength(packetPulled)
attr title "outgoing packet lengths, sum"
attr unit b
statistic BulkTransfer6.client1.eth[1].queue.dataQueue outgoingPacketLengths:histogram
field count 4
field mean 608
field stddev 32
field min 592
field max 656
field sum 2432
field sqrsum 1481728
attr interpolationmode none
attr recordingmode histogram
attr source packetLength(packetPulled)
attr title "outgoing packet lengths"
attr unit b
bin	-inf	0
bin	576	0
bin	578	0
bin	580	0
bin	582	0
bin	584	0
bin	586	0
bin	588	0
bin	590	0
bin	592	3
bin	594	0
bin	596	0
bin	598	0
bin	600	0
bin	602	0
bin	604	0
bin	606	0
bin	608	0
bin	610	0
bin	612	0
bin	614	0
bin	616	0
bin	618	0
bin	620	0
bin	622	0
bin	624	0
bin	626	0
bin	628	0
bin	630	0
bin	632	0
bin	634	0
bin	636	0
bin	638	0
bin	640	0
bin	642	0
bin	644	0
bin	646	0
bin	648	0
bin	650	0
bin	652	0
bin	654	0
bin	656	1
bin	658	0
bin	660	0
bin	662	0
bin	664	0
bin	666	0
bin	668	0
bin	670	0
bin	672	0
statistic BulkTransfer6.client1.eth[1].queue.dataQueue flowQueueingTime:histogram
field count 0
field mean -nan
field stddev nan
field min nan
field max nan
field sum 0
field sqrsum 0
attr interpolationmode none
attr recordingmode histogram
attr source queueingTime(demuxFlow(packetPulled))
attr title "flow queueing times"
attr unit s
bin	-inf	0
bin	0	0
bin	1	0
scalar BulkTransfer6.client1.eth[1].queue.dataQueue incomingPackets:count 4
attr recordingmode count
attr source packetPushStarted
attr title "incoming packets, count"
attr unit pk
scalar BulkTransfer6.client1.eth[1].queue.dataQueue incomingPacketLengths:sum 2432
attr interpolationmode none
attr recordingmode sum
attr source packetLength(packetPushStarted)
attr title "incoming packet lengths, sum"
attr unit b
statistic BulkTransfer6.client1.eth[1].queue.dataQueue incomingPacketLengths:histogram
field count 4
field mean 608
field stddev 32
field min 592
field max 656
field sum 2432
field sqrsum 1481728
attr interpolationmode none
attr recordingmode histogram
attr source packetLength(packetPushStarted)
attr title "incoming packet lengths"
attr unit b
bin	-inf	0
bin	576	0
bin	578	0
bin	580	0
bin	582	0
bin	584	0
bin	586	0
bin	588	0
bin	590	0
bin	592	3
bin	594	0
bin	596	0
bin	598	0
bin	600	0
bin	602	0
bin	604	0
bin	606	0
bin	608	0
bin	610	0
bin	612	0
bin	614	0
bin	616	0
bin	618	0
bin	620	0
bin	622	0
bin	624	0
bin	626	0
bin	628	0
bin	630	0
bin	632	0
bin	634	0
bin	636	0
bin	638	0
bin	640	0
bin	642	0
bin	644	0
bin	646	0
bin	648	0
bin	650	0
bin	652	0
bin	654	0
bin	656	1
bin	658	0
bin	660	0
bin	662	0
bin	664	0
bin	666	0
bin	668	0
bin	670	0
bin	672	0
scalar BulkTransfer6.client1.eth[1].queue.dataQueue droppedPacketsQueueOverflow:count 0
attr interpolationmode none
attr recordingmode count
attr source packetDropReasonIsQueueOverflow(packetDropped)
attr title "dropped packets: queue overflow, count"
attr unit pk
scalar BulkTransfer6.client1.eth[1].queue.dataQueue droppedPacketLengthsQueueOverflow:sum 0
attr interpolationmode none
attr recordingmode sum
attr source packetLength(packetDropReasonIsQueueOverflow(packetDropped))
attr title "dropped packet lengths: queue overflow, sum"
attr unit b
scalar BulkTransfer6.client1.eth[1].queue.scheduler packets:count 4
attr recordingmode count
attr source packetPulled
attr title "packets, count"
attr unit pk
scalar BulkTransfer6.client1.eth[1].queue.scheduler packetLengths:sum 2432
attr interpolationmode none
attr recordingmode sum
attr source packetLength(packetPulled)
attr title "packet lengths, sum"
attr unit b
statistic BulkTransfer6.client1.eth[1].queue.scheduler packetLengths:histogram
field count 4
field mean 608
field stddev 32
field min 592
field max 656
field sum 2432
field sqrsum 1481728
attr interpolationmode none
attr recordingmode histogram
attr source packetLength(packetPulled)
attr title "packet lengths"
attr unit b
bin	-inf	0
bin	576	0
bin	578	0
bin	580	0
bin	582	0
bin	584	0
bin	586	0
bin	588	0
bin	590	0
bin	592	3
bin	594	0
bin	596	0
bin	598	0
bin	600	0
bin	602	0
bin	604	0
bin	606	0
bin	608	0
bin	610	0
bin	612	0
bin	614	0
bin	616	0
bin	618	0
bin	620	0
bin	622	0
bin	624	0
bin	626	0
bin	628	0
bin	630	0
bin	632	0
bin	634	0
bin	636	0
bin	638	0
bin	640	0
bin	642	0
bin	644	0
bin	646	0
bin	648	0
bin	650	0
bin	652	0
bin	654	0
bin	656	1
bin	658	0
bin	660	0
bin	662	0
bin	664	0
bin	666	0
bin	668	0
bin	670	0
bin	672	0
scalar BulkTransfer6.client1.eth[1].queue queueLength:last -4
attr autoWarmupFilter false
attr interpolationmode sample-hold
attr recordingmode last
attr source "warmup(atomic(constant0(localSignal(packetPushEnded)) + count(localSignal(packetPushStarted)) - count(localSignal(packetPulled)) - count(localSignal(packetRemoved)) - count(localSignal(packetDropped))))"
attr title "queue length, last"
attr unit pk
scalar BulkTransfer6.client1.eth[1].queue queueLength:max 0
attr autoWarmupFilter false
attr interpolationmode sample-hold
attr recordingmode max
attr source "warmup(atomic(constant0(localSignal(packetPushEnded)) + count(localSignal(packetPushStarted)) - count(localSignal(packetPulled)) - count(localSignal(packetRemoved)) - count(localSignal(packetDropped))))"
attr title "queue length, max"
attr unit pk
scalar BulkTransfer6.client1.eth[1].queue queueLength:timeavg -3.636612960822
attr autoWarmupFilter false
attr interpolationmode sample-hold
attr recordingmode timeavg
attr source "warmup(atomic(constant0(localSignal(packetPushEnded)) + count(localSignal(packetPushStarted)) - count(localSignal(packetPulled)) - count(localSignal(packetRemoved)) - count(localSignal(packetDropped))))"
attr title "queue length, timeavg"
attr unit pk
scalar BulkTransfer6.client1.eth[1].queue queueBitLength:last -2432
attr autoWarmupFilter false
attr interpolationmode sample-hold
attr recordingmode last
attr source "warmup(atomic(constant0(localSignal(packetPushEnded)) + sum(packetLength(localSignal(packetPushStarted))) - sum(packetLength(localSignal(packetPulled))) - sum(packetLength(localSignal(packetRemoved))) - sum(packetLength(localSignal(packetDropped)))))"
attr title "queue bit length, last"
attr unit b
scalar BulkTransfer6.client1.eth[1].queue queueBitLength:max 0
attr autoWarmupFilter false
attr interpolationmode sample-hold
attr recordingmode max
attr source "warmup(atomic(constant0(localSignal(packetPushEnded)) + sum(packetLength(localSignal(packetPushStarted))) - sum(packetLength(localSignal(packetPulled))) - sum(packetLength(localSignal(packetRemoved))) - sum(packetLength(localSignal(packetDropped)))))"
attr title "queue bit length, max"
attr unit b
scalar BulkTransfer6.client1.eth[1].queue queueBitLength:timeavg -2216.3193172412
attr autoWarmupFilter false
attr interpolationmode sample-hold
attr recordingmode timeavg
attr source "warmup(atomic(constant0(localSignal(packetPushEnded)) + sum(packetLength(localSignal(packetPushStarted))) - sum(packetLength(localSignal(packetPulled))) - sum(packetLength(localSignal(packetRemoved))) - sum(packetLength(localSignal(packetDropped)))))"
attr title "queue bit length, timeavg"
attr unit b
statistic BulkTransfer6.client1.eth[1].queue queueingTime:histogram
field count 4
field mean 0
field stddev 0
field min 0
field max 0
field sum 0
field sqrsum 0
attr interpolationmode none
attr recordingmode histogram
attr source queueingTime(localSignal(packetPulled))
attr title "queueing times"
attr unit s
bin	-inf	0
bin	-0.5	0
bin	-0.48	0
bin	-0.46	0
bin	-0.44	0
bin	-0.42	0
bin	-0.4	0
bin	-0.38	0
bin	-0.36	0
bin	-0.34	0
bin	-0.32	0
bin	-0.3	0
bin	-0.28	0
bin	-0.26	0
bin	-0.24	0
bin	-0.22	0
bin	-0.2	0
bin	-0.18	0
bin	-0.16	0
bin	-0.14	0
bin	-0.12	0
bin	-0.1	0
bin	-0.08	0
bin	-0.06	0
bin	-0.04	0
bin	-0.02	0
bin	0	4
bin	0.02	0
bin	0.04	0
bin	0.06	0
bin	0.08	0
bin	0.1	0
bin	0.12	0
bin	0.14	0
bin	0.16	0
bin	0.18	0
bin	0.2	0
bin	0.22	0
bin	0.24	0
bin	0.26	0
bin	0.28	0
bin	0.3	0
bin	0.32	0
bin	0.34	0
bin	0.36	0
bin	0.38	0
bin	0.4	0
bin	0.42	0
bin	0.44	0
bin	0.46	0
bin	0.48	0
bin	0.5	0
scalar BulkTransfer6.client1.eth[1].queue outgoingPackets:count 4
attr recordingmode count
attr source localSignal(packetPulled)
attr title "outgoing packets, count"
attr unit pk
scalar BulkTransfer6.client1.eth[1].queue outgoingPacketLengths:sum 2432
attr interpolationmode none
attr recordingmode sum
attr source packetLength(localSignal(packetPulled))
attr title "outgoing packet lengths, sum"
attr unit b
statistic BulkTransfer6.client1.eth[1].queue outgoingPacketLengths:histogram
field count 4
field mean 608
field stddev 32
field min 592
field max 656
field sum 2432
field sqrsum 1481728
attr interpolationmode none
attr recordingmode histogram
attr source packetLength(localSignal(packetPulled))
attr title "outgoing packet lengths"
attr unit b
bin	-inf	0
bin	576	0
bin	578	0
bin	580	0
bin	582	0
bin	584	0
bin	586	0
bin	588	0
bin	590	0
bin	592	3
bin	594	0
bin	596	0
bin	598	0
bin	600	0
bin	602	0
bin	604	0
bin	606	0
bin	608	0
bin	610	0
bin	612	0
bin	614	0
bin	616	0
bin	618	0
bin	620	0
bin	622	0
bin	624	0
bin	626	0
bin	628	0
bin	630	0
bin	632	0
bin	634	0
bin	636	0
bin	638	0
bin	640	0
bin	642	0
bin	644	0
bin	646	0
bin	648	0
bin	650	0
bin	652	0
bin	654	0
bin	656	1
bin	658	0
bin	660	0
bin	662	0
bin	664	0
bin	666	0
bin	668	0
bin	670	0
bin	672	0
statistic BulkTransfer6.client1.eth[1].queue flowQueueingTime:histogram
field count 0
field mean -nan
field stddev nan
field min nan
field max nan
field sum 0
field sqrsum 0
attr interpolationmode none
attr recordingmode histogram
attr source queueingTime(demuxFlow(localSignal(packetPulled)))
attr title "flow queueing times"
attr unit s
bin	-inf	0
bin	0	0
bin	1	0
scalar BulkTransfer6.client1.eth[1].queue incomingPackets:count 0
attr recordingmode count
attr source localSignal(packetPushStarted)
attr title "incoming packets, count"
attr unit pk
scalar BulkTransfer6.client1.eth[1].queue incomingPacketLengths:sum 0
attr interpolationmode none
attr recordingmode sum
attr source packetLength(localSignal(packetPushStarted))
attr title "incoming packet lengths, sum"
attr unit b
statistic BulkTransfer6.client1.eth[1].queue incomingPacketLengths:histogram
field count 0
field mean -nan
field stddev nan
field min nan
field max nan
field sum 0
field sqrsum 0
attr interpolationmode none
attr recordingmode histogram
attr source packetLength(localSignal(packetPushStarted))
attr title "incoming packet lengths"
attr unit b
bin	-inf	0
bin	0	0
bin	1	0
scalar BulkTransfer6.client1.eth[1].queue droppedPacketsQueueOverflow:count 0
attr interpolationmode none
attr recordingmode count
attr source packetDropReasonIsQueueOverflow(localSignal(packetDropped))
attr title "dropped packets: queue overflow, count"
attr unit pk
scalar BulkTransfer6.client1.eth[1].queue droppedPacketLengthsQueueOverflow:sum 0
attr interpolationmode none
attr recordingmode sum
attr source packetLength(packetDropReasonIsQueueOverflow(localSignal(packetDropped)))
attr title "dropped packet lengths: queue overflow, sum"
attr unit b
scalar BulkTransfer6.client1.eth[1].mac "simulated time" 50
scalar BulkTransfer6.client1.eth[1].mac full-duplex 1
scalar BulkTransfer6.client1.eth[1].mac "frames/sec sent" 0.08
scalar BulkTransfer6.client1.eth[1].mac "frames/sec rcvd" 0.08
scalar BulkTransfer6.client1.eth[1].mac "bits/sec sent" 48.64
scalar BulkTransfer6.client1.eth[1].mac "bits/sec rcvd" 48.64
scalar BulkTransfer6.client1.eth[1].mac "rx channel idle (%)" 99.9994624
scalar BulkTransfer6.client1.eth[1].mac "rx channel utilization (%)" 0.0005376
scalar BulkTransfer6.client1.eth[1].mac rxPausePkUnits:count 0
attr interpolationmode none
attr recordingmode count
attr title "pause units received, count"
scalar BulkTransfer6.client1.eth[1].mac rxPausePkUnits:sum 0
attr interpolationmode none
attr recordingmode sum
attr title "pause units received, sum"
scalar BulkTransfer6.client1.eth[1].mac txPausePkUnits:count 0
attr interpolationmode none
attr recordingmode count
attr title "pause units sent, count"
scalar BulkTransfer6.client1.eth[1].mac txPausePkUnits:sum 0
attr interpolationmode none
attr recordingmode sum
attr title "pause units sent, sum"
scalar BulkTransfer6.client1.eth[1].mac rxPkOk:count 4
attr interpolationmode none
attr recordingmode count
attr source rxPkOk
attr title "packets received OK, count"
scalar BulkTransfer6.client1.eth[1].mac rxPkOk:sum(packetBytes) 304
attr interpolationmode none
attr recordingmode sum(packetBytes)
attr source rxPkOk
attr title "packets received OK, sum(packetBytes)"
statistic BulkTransfer6.client1.eth[1].mac throughput:histogram
field count 500
field mean 53.76
field stddev 599.75902174818
field min 0
field max 7200
field sum 26880
field sqrsum 180940800
attr interpolationmode linear
attr recordingmode histogram
attr source throughput(transmissionEnded)
attr title throughput
attr unit bps
bin	-inf	0
bin	0	496
bin	200	0
bin	400	0
bin	600	0
bin	800	0
bin	1000	0
bin	1200	0
bin	1400	0
bin	1600	0
bin	1800	0
bin	2000	0
bin	2200	0
bin	2400	0
bin	2600	0
bin	2800	0
bin	3000	0
bin	3200	0
bin	3400	0
bin	3600	0
bin	3800	0
bin	4000	0
bin	4200	0
bin	4400	0
bin	4600	0
bin	4800	0
bin	5000	0
bin	5200	0
bin	5400	0
bin	5600	0
bin	5800	0
bin	6000	0
bin	6200	0
bin	6400	3
bin	6600	0
bin	6800	0
bin	7000	0
bin	7200	1
bin	7400	0
bin	7600	0
bin	7800	0
bin	8000	0
bin	8200	0
bin	8400	0
bin	8600	0
bin	8800	0
bin	9000	0
bin	9200	0
statistic BulkTransfer6.client1.eth[1].mac utilization:histogram
field count 500
field mean 0.0005376
field stddev 0.0059975902174818
field min 0
field max 0.072
field sum 0.2688
field sqrsum 0.01809408
attr interpolationmode linear
attr recordingmode histogram
attr source "100 * utilization(count(transmissionStarted) - count(transmissionEnded))"
attr title utilization
attr unit %
bin	-inf	0
bin	0	496
bin	0.002	0
bin	0.004	0
bin	0.006	0
bin	0.008	0
bin	0.01	0
bin	0.012	0
bin	0.014	0
bin	0.016	0
bin	0.018	0
bin	0.02	0
bin	0.022	0
bin	0.024	0
bin	0.026	0
bin	0.028	0
bin	0.03	0
bin	0.032	0
bin	0.034	0
bin	0.036	0
bin	0.038	0
bin	0.04	0
bin	0.042	0
bin	0.044	0
bin	0.046	0
bin	0.048	0
bin	0.05	0
bin	0.052	0
bin	0.054	0
bin	0.056	0
bin	0.058	0
bin	0.06	0
bin	0.062	0
bin	0.064	3
bin	0.066	0
bin	0.068	0
bin	0.07	0
bin	0.072	1
bin	0.074	0
bin	0.076	0
bin	0.078	0
bin	0.08	0
bin	0.082	0
bin	0.084	0
bin	0.086	0
bin	0.088	0
bin	0.09	0
bin	0.092	0
scalar BulkTransfer6.client1.eth[1].mac txPk:count 4
attr interpolationmode none
attr recordingmode count
attr source packetSentToLower
attr title "packets transmitted, count"
scalar BulkTransfer6.client1.eth[1].mac txPk:sum(packetBytes) 304
attr interpolationmode none
attr recordingmode sum(packetBytes)
attr source packetSentToLower
attr title "packets transmitted, sum(packetBytes)"
scalar BulkTransfer6.client1.eth[1].mac packetReceivedFromUpper:count 4
attr interpolationmode none
attr recordingmode count
attr source packetReceivedFromUpper
attr title "packet bytes from higher layer, count"
scalar BulkTransfer6.client1.eth[1].mac packetReceivedFromUpper:sum(packetBytes) 304
attr interpolationmode none
attr recordingmode sum(packetBytes)
attr source packetReceivedFromUpper
attr title "packet bytes from higher layer, sum(packetBytes)"
scalar BulkTransfer6.client1.eth[1].mac passedUpPk:count 4
attr interpolationmode none
attr recordingmode count
attr source packetSentToUpper
attr title "packets passed to higher layer, count"
scalar BulkTransfer6.client1.eth[1].mac passedUpPk:sum(packetBytes) 304
attr interpolationmode none
attr recordingmode sum(packetBytes)
attr source packetSentToUpper
attr title "packets passed to higher layer, sum(packetBytes)"
scalar BulkTransfer6.client1.eth[1].mac packetDropIncorrectlyReceived:count 0
attr interpolationmode none
attr recordingmode count
attr source packetDropReasonIsIncorrectlyReceived(packetDropped)
attr title "packet drop: incorrectly received, count"
scalar BulkTransfer6.client1.eth[1].mac packetDropIncorrectlyReceived:sum(packetBytes) 0
attr interpolationmode none
attr recordingmode sum(packetBytes)
attr source packetDropReasonIsIncorrectlyReceived(packetDropped)
attr title "packet drop: incorrectly received, sum(packetBytes)"
scalar BulkTransfer6.client1.eth[1].mac packetDropInterfaceDown:count 0
attr interpolationmode none
attr recordingmode count
attr source packetDropReasonIsInterfaceDown(packetDropped)
attr title "packet drop: interface down, count"
scalar BulkTransfer6.client1.eth[1].mac packetDropInterfaceDown:sum(packetBytes) 0
attr interpolationmode none
attr recordingmode sum(packetBytes)
attr source packetDropReasonIsInterfaceDown(packetDropped)
attr title "packet drop: interface down, sum(packetBytes)"
scalar BulkTransfer6.client1.eth[1].mac packetDropNotAddressedToUs:count 0
attr interpolationmode none
attr recordingmode count
attr source packetDropReasonIsNotAddressedToUs(packetDropped)
attr title "packet drop: not addressed to us, count"
scalar BulkTransfer6.client1.eth[1].mac packetDropNotAddressedToUs:sum(packetBytes) 0
attr interpolationmode none
attr recordingmode sum(packetBytes)
attr source packetDropReasonIsNotAddressedToUs(packetDropped)
attr title "packet drop: not addressed to us, sum(packetBytes)"
scalar BulkTransfer6.client1.eth[1] packetDropInterfaceDown:count 0
attr interpolationmode none
attr recordingmode count
attr source packetDropReasonIsInterfaceDown(packetDropped)
attr title "packet drops: interface down, count"
scalar BulkTransfer6.client1.eth[1] packetDropInterfaceDown:sum(packetBytes) 0
attr interpolationmode none
attr recordingmode sum(packetBytes)
attr source packetDropReasonIsInterfaceDown(packetDropped)
attr title "packet drops: interface down, sum(packetBytes)"
scalar BulkTransfer6.client1.eth[1] packetDropNoCarrier:count 0
attr interpolationmode none
attr recordingmode count
attr source packetDropReasonIsNoCarrier(packetDropped)
attr title "packet drops: no carrier, count"
scalar BulkTransfer6.client1.eth[1] packetDropNoCarrier:sum(packetBytes) 0
attr interpolationmode none
attr recordingmode sum(packetBytes)
attr source packetDropReasonIsNoCarrier(packetDropped)
attr title "packet drops: no carrier, sum(packetBytes)"
scalar BulkTransfer6.client1.ipv6.neighbourDiscovery startDad:count 2
attr recordingmode count
attr title "DAD started, count"
scalar BulkTransfer6.client1.udp packetReceived:count 0
attr interpolationmode none
attr recordingmode count
attr source packetReceived
attr title "packets received, count"
scalar BulkTransfer6.client1.udp packetReceived:sum(packetBytes) 0
attr interpolationmode none
attr recordingmode sum(packetBytes)
attr source packetReceived
attr title "packets received, sum(packetBytes)"
scalar BulkTransfer6.client1.udp packetSent:count 0
attr interpolationmode none
attr recordingmode count
attr source packetSent
attr title "packets sent, count"
scalar BulkTransfer6.client1.udp packetSent:sum(packetBytes) 0
attr interpolationmode none
attr recordingmode sum(packetBytes)
attr source packetSent
attr title "packets sent, sum(packetBytes)"
scalar BulkTransfer6.client1.udp passedUpPk:count 0
attr interpolationmode none
attr recordingmode count
attr source packetSentToUpper
attr title "packets passed up, count"
scalar BulkTransfer6.client1.udp droppedPkWrongPort:count 0
attr interpolationmode none
attr recordingmode count
attr source packetDropReasonIsNoPortFound(packetDropped)
attr title "packets dropped (wrong port), count"
scalar BulkTransfer6.client1.udp droppedPkBadChecksum:count 0
attr interpolationmode none
attr recordingmode count
attr source packetDropReasonIsIncorrectlyReceived(packetDropped)
attr title "packets dropped (checksum error), count"
scalar BulkTransfer6.client1.app[0] bytesRcvd 2000000
scalar BulkTransfer6.client1.app[0] bytesSent 1000000
scalar BulkTransfer6.client1.app[0] packetReceived:count 4174
attr interpolationmode none
attr recordingmode count
attr source packetReceived
attr title "packets received, count"
scalar BulkTransfer6.client1.app[0] packetReceived:sum(packetBytes) 2000000
attr interpolationmode none
attr recordingmode sum(packetBytes)
attr source packetReceived
attr title "packets received, sum(packetBytes)"
statistic BulkTransfer6.client1.app[0] endToEndDelay:histogram
field count 0
field mean -nan
field stddev nan
field min nan
field max nan
field sum 0
field sqrsum 0
attr interpolationmode none
attr recordingmode histogram
attr source dataAge(packetReceived)
attr title "end-to-end delay"
attr unit s
bin	-inf	0
bin	0	0
bin	1	0
statistic BulkTransfer6.client1.app[0] endToEndDelay:weightedHistogram
field count 0
field mean -nan
field stddev nan
field min nan
field max nan
field weights 0
field weightedSum 0
field sqrSumWeights 0
field weightedSqrSum 0
attr interpolationmode none
attr recordingmode weightedHistogram
attr source dataAge(packetReceived)
attr title "end-to-end delay, weightedHistogram"
attr unit s
bin	-inf	0
bin	0	0
bin	1	0
scalar BulkTransfer6.client1.app[0] packetSent:count 1
attr interpolationmode none
attr recordingmode count
attr source packetSent
attr title "packets sent, count"
scalar BulkTransfer6.client1.app[0] packetSent:sum(packetBytes) 1000000
attr interpolationmode none
attr recordingmode sum(packetBytes)
attr source packetSent
attr title "packets sent, sum(packetBytes)"
scalar BulkTransfer6.client2.ethernet pauseSent:count 0
attr recordingmode count
attr title "pause sent, count"
scalar BulkTransfer6.client2.ethernet pauseSent:sum 0
attr recordingmode sum
attr title "pause sent, sum"
scalar BulkTransfer6.client2.ethernet decapPk:count 5775
attr interpolationmode none
attr recordingmode count
attr source decapPk
attr title "packets decapsulated, count"
scalar BulkTransfer6.client2.ethernet decapPk:sum(packetBytes) 2347648
attr interpolationmode none
attr recordingmode sum(packetBytes)
attr source decapPk
attr title "packets decapsulated, sum(packetBytes)"
scalar BulkTransfer6.client2.ethernet encapPk:count 5777
attr interpolationmode none
attr recordingmode count
attr source encapPk
attr title "packets encapsulated, count"
scalar BulkTransfer6.client2.ethernet encapPk:sum(packetBytes) 1346640
attr interpolationmode none
attr recordingmode sum(packetBytes)
attr source encapPk
attr title "packets encapsulated, sum(packetBytes)"
scalar BulkTransfer6.client2.lo[0].lo rcvdPkFromHl:count 0
attr interpolationmode none
attr recordingmode count
attr source packetReceivedFromUpper
attr title "packets received from higher layer, count"
scalar BulkTransfer6.client2.lo[0].lo rcvdPkFromHl:sum(packetBytes) 0
attr interpolationmode none
attr recordingmode sum(packetBytes)
attr source packetReceivedFromUpper
attr title "packets received from higher layer, sum(packetBytes)"
scalar BulkTransfer6.client2.lo[0].lo passedUpPk:count 0
attr interpolationmode none
attr recordingmode count
attr source packetSentToUpper
attr title "packets passed to higher layer, count"
scalar BulkTransfer6.client2.lo[0].lo passedUpPk:sum(packetBytes) 0
attr interpolationmode none
attr recordingmode sum(packetBytes)
attr source packetSentToUpper
attr title "packets passed to higher layer, sum(packetBytes)"
scalar BulkTransfer6.client2.lo[0] packetDropInterfaceDown:count 0
attr interpolationmode none
attr recordingmode count
attr source packetDropReasonIsInterfaceDown(packetDropped)
attr title "packet drops: interface down, count"
scalar BulkTransfer6.client2.lo[0] packetDropInterfaceDown:sum(packetBytes) 0
attr interpolationmode none
attr recordingmode sum(packetBytes)
attr source packetDropReasonIsInterfaceDown(packetDropped)
attr title "packet drops: interface down, sum(packetBytes)"
scalar BulkTransfer6.client2.lo[0] packetDropNoCarrier:count 0
attr interpolationmode none
attr recordingmode count
attr source packetDropReasonIsNoCarrier(packetDropped)
attr title "packet drops: no carrier, count"
scalar BulkTransfer6.client2.lo[0] packetDropNoCarrier:sum(packetBytes) 0
attr interpolationmode none
attr recordingmode sum(packetBytes)
attr source packetDropReasonIsNoCarrier(packetDropped)
attr title "packet drops: no carrier, sum(packetBytes)"
scalar BulkTransfer6.client2.eth[0].queue.classifier packets:count 5777
attr recordingmode count
attr source packetPushed
attr title "packets, count"
attr unit pk
scalar BulkTransfer6.client2.eth[0].queue.classifier packetLengths:sum 11605008
attr interpolationmode none
attr recordingmode sum
attr source packetLength(packetPushed)
attr title "packet lengths, sum"
attr unit b
statistic BulkTransfer6.client2.eth[0].queue.classifier packetLengths:histogram
field count 5777
field mean 2008.8294962783
field stddev 2005.0620119906
field min 592
field max 4912
field sum 11605008
field sqrsum 46533583104
attr interpolationmode none
attr recordingmode histogram
attr source packetLength(packetPushed)
attr title "packet lengths"
attr unit b
bin	-inf	0
bin	0	0
bin	100	0
bin	200	0
bin	300	0
bin	400	0
bin	500	1
bin	600	3909
bin	700	1
bin	800	0
bin	900	0
bin	1000	0
bin	1100	0
bin	1200	0
bin	1300	0
bin	1400	0
bin	1500	0
bin	1600	0
bin	1700	0
bin	1800	0
bin	1900	0
bin	2000	0
bin	2100	0
bin	2200	0
bin	2300	0
bin	2400	0
bin	2500	0
bin	2600	0
bin	2700	0
bin	2800	0
bin	2900	0
bin	3000	0
bin	3100	0
bin	3200	0
bin	3300	0
bin	3400	0
bin	3500	1
bin	3600	0
bin	3700	0
bin	3800	0
bin	3900	0
bin	4000	0
bin	4100	0
bin	4200	0
bin	4300	0
bin	4400	0
bin	4500	0
bin	4600	0
bin	4700	0
bin	4800	0
bin	4900	1865
bin	5000	0
bin	5100	0
bin	5200	0
bin	5300	0
bin	5400	0
bin	5500	0
bin	5600	0
bin	5700	0
bin	5800	0
bin	5900	0
bin	6000	0
scalar BulkTransfer6.client2.eth[0].queue.pauseQueue queueLength:last 0
attr autoWarmupFilter false
attr interpolationmode sample-hold
attr recordingmode last
attr source "warmup(atomic(constant0(packetPushEnded) + count(packetPushStarted) - count(packetPulled) - count(packetRemoved) - count(packetDropped)))"
attr title "queue length, last"
attr unit pk
scalar BulkTransfer6.client2.eth[0].queue.pauseQueue queueLength:max 0
attr autoWarmupFilter false
attr interpolationmode sample-hold
attr recordingmode max
attr source "warmup(atomic(constant0(packetPushEnded) + count(packetPushStarted) - count(packetPulled) - count(packetRemoved) - count(packetDropped)))"
attr title "queue length, max"
attr unit pk
scalar BulkTransfer6.client2.eth[0].queue.pauseQueue queueLength:timeavg 0
attr autoWarmupFilter false
attr interpolationmode sample-hold
attr recordingmode timeavg
attr source "warmup(atomic(constant0(packetPushEnded) + count(packetPushStarted) - count(packetPulled) - count(packetRemoved) - count(packetDropped)))"
attr title "queue length, timeavg"
attr unit pk
scalar BulkTransfer6.client2.eth[0].queue.pauseQueue queueBitLength:last 0
attr autoWarmupFilter false
attr interpolationmode sample-hold
attr recordingmode last
attr source "warmup(atomic(constant0(packetPushEnded) + sum(packetLength(packetPushStarted)) - sum(packetLength(packetPulled)) - sum(packetLength(packetRemoved)) - sum(packetLength(packetDropped))))"
attr title "queue bit length, last"
attr unit b
scalar BulkTransfer6.client2.eth[0].queue.pauseQueue queueBitLength:max 0
attr autoWarmupFilter false
attr interpolationmode sample-hold
attr recordingmode max
attr source "warmup(atomic(constant0(packetPushEnded) + sum(packetLength(packetPushStarted)) - sum(packetLength(packetPulled)) - sum(packetLength(packetRemoved)) - sum(packetLength(packetDropped))))"
attr title "queue bit length, max"
attr unit b
scalar BulkTransfer6.client2.eth[0].queue.pauseQueue queueBitLength:timeavg 0
attr autoWarmupFilter false
attr interpolationmode sample-hold
attr recordingmode timeavg
attr source "warmup(atomic(constant0(packetPushEnded) + sum(packetLength(packetPushStarted)) - sum(packetLength(packetPulled)) - sum(packetLength(packetRemoved)) - sum(packetLength(packetDropped))))"
attr title "queue bit length, timeavg"
attr unit b
statistic BulkTransfer6.client2.eth[0].queue.pauseQueue queueingTime:histogram
field count 0
field mean -nan
field stddev nan
field min nan
field max nan
field sum 0
field sqrsum 0
attr interpolationmode none
attr recordingmode histogram
attr source queueingTime(packetPulled)
attr title "queueing times"
attr unit s
bin	-inf	0
bin	0	0
bin	1	0
scalar BulkTransfer6.client2.eth[0].queue.pauseQueue outgoingPackets:count 0
attr recordingmode count
attr source packetPulled
attr title "outgoing packets, count"
attr unit pk
scalar BulkTransfer6.client2.eth[0].queue.pauseQueue outgoingPacketLengths:sum 0
attr interpolationmode none
attr recordingmode sum
attr source packetLength(packetPulled)
attr title "outgoing packet lengths, sum"
attr unit b
statistic BulkTransfer6.client2.eth[0].queue.pauseQueue outgoingPacketLengths:histogram
field count 0
field mean -nan
field stddev nan
field min nan
field max nan
field sum 0
field sqrsum 0
attr interpolationmode none
attr recordingmode histogram
attr source packetLength(packetPulled)
attr title "outgoing packet lengths"
attr unit b
bin	-inf	0
bin	0	0
bin	1	0
statistic BulkTransfer6.client2.eth[0].queue.pauseQueue flowQueueingTime:histogram
field count 0
field mean -nan
field stddev nan
field min nan
field max nan
field sum 0
field sqrsum 0
attr interpolationmode none
attr recordingmode histogram
attr source queueingTime(demuxFlow(packetPulled))
attr title "flow queueing times"
attr unit s
bin	-inf	0
bin	0	0
bin	1	0
scalar BulkTransfer6.client2.eth[0].queue.pauseQueue incomingPackets:count 0
attr recordingmode count
attr source packetPushStarted
attr title "incoming packets, count"
attr unit pk
scalar BulkTransfer6.client2.eth[0].queue.pauseQueue incomingPacketLengths:sum 0
attr interpolationmode none
attr recordingmode sum
attr source packetLength(packetPushStarted)
attr title "incoming packet lengths, sum"
attr unit b
statistic BulkTransfer6.client2.eth[0].queue.pauseQueue incomingPacketLengths:histogram
field count 0
field mean -nan
field stddev nan
field min nan
field max nan
field sum 0
field sqrsum 0
attr interpolationmode none
attr recordingmode histogram
attr source packetLength(packetPushStarted)
attr title "incoming packet lengths"
attr unit b
bin	-inf	0
bin	0	0
bin	1	0
scalar BulkTransfer6.client2.eth[0].queue.pauseQueue droppedPacketsQueueOverflow:count 0
attr interpolationmode none
attr recordingmode count
attr source packetDropReasonIsQueueOverflow(packetDropped)
attr title "dropped packets: queue overflow, count"
attr unit pk
scalar BulkTransfer6.client2.eth[0].queue.pauseQueue droppedPacketLengthsQueueOverflow:sum 0
attr interpolationmode none
attr recordingmode sum
attr source packetLength(packetDropReasonIsQueueOverflow(packetDropped))
attr title "dropped packet lengths: queue overflow, sum"
attr unit b
scalar BulkTransfer6.client2.eth[0].queue.dataQueue queueLength:last 0
attr autoWarmupFilter false
attr interpolationmode sample-hold
attr recordingmode last
attr source "warmup(atomic(constant0(packetPushEnded) + count(packetPushStarted) - count(packetPulled) - count(packetRemoved) - count(packetDropped)))"
attr title "queue length, last"
attr unit pk
scalar BulkTransfer6.client2.eth[0].queue.dataQueue queueLength:max 3
attr autoWarmupFilter false
attr interpolationmode sample-hold
attr recordingmode max
attr source "warmup(atomic(constant0(packetPushEnded) + count(packetPushStarted) - count(packetPulled) - count(packetRemoved) - count(packetDropped)))"
attr title "queue length, max"
attr unit pk
scalar BulkTransfer6.client2.eth[0].queue.dataQueue queueLength:timeavg 0.001242076
attr autoWarmupFilter false
attr interpolationmode sample-hold
attr recordingmode timeavg
attr source "warmup(atomic(constant0(packetPushEnded) + count(packetPushStarted) - count(packetPulled) - count(packetRemoved) - count(packetDropped)))"
attr title "queue length, timeavg"
attr unit pk
scalar BulkTransfer6.client2.eth[0].queue.dataQueue queueBitLength:last 0
attr autoWarmupFilter false
attr interpolationmode sample-hold
attr recordingmode last
attr source "warmup(atomic(constant0(packetPushEnded) + sum(packetLength(packetPushStarted)) - sum(packetLength(packetPulled)) - sum(packetLength(packetRemoved)) - sum(packetLength(packetDropped))))"
attr title "queue bit length, last"
attr unit b
scalar BulkTransfer6.client2.eth[0].queue.dataQueue queueBitLength:max 14736
attr autoWarmupFilter false
attr interpolationmode sample-hold
attr recordingmode max
attr source "warmup(atomic(constant0(packetPushEnded) + sum(packetLength(packetPushStarted)) - sum(packetLength(packetPulled)) - sum(packetLength(packetRemoved)) - sum(packetLength(packetDropped))))"
attr title "queue bit length, max"
attr unit b
scalar BulkTransfer6.client2.eth[0].queue.dataQueue queueBitLength:timeavg 5.905837376
attr autoWarmupFilter false
attr interpolationmode sample-hold
attr recordingmode timeavg
attr source "warmup(atomic(constant0(packetPushEnded) + sum(packetLength(packetPushStarted)) - sum(packetLength(packetPulled)) - sum(packetLength(packetRemoved)) - sum(packetLength(packetDropped))))"
attr title "queue bit length, timeavg"
attr unit b
statistic BulkTransfer6.client2.eth[0].queue.dataQueue queueingTime:histogram
field count 5777
field mean 1.0750181755236e-05
field stddev 8.3991522398914e-05
field min 0
field max 0.0012864
field sum 0.0621038
field sqrsum 4.141485716e-05
attr interpolationmode none
attr recordingmode histogram
attr source queueingTime(packetPulled)
attr title "queueing times"
attr unit s
bin	-inf	0
bin	0	5667
bin	2e-05	0
bin	4e-05	0
bin	6e-05	2
bin	8e-05	0
bin	0.0001	0
bin	0.00012	1
bin	0.00014	0
bin	0.00016	0
bin	0.00018	1
bin	0.0002	0
bin	0.00022	0
bin	0.00024	0
bin	0.00026	2
bin	0.00028	0
bin	0.0003	0
bin	0.00032	0
bin	0.00034	6
bin	0.00036	0
bin	0.00038	3
bin	0.0004	0
bin	0.00042	29
bin	0.00044	0
bin	0.00046	26
bin	0.00048	0
bin	0.0005	5
bin	0.00052	0
bin	0.00054	3
bin	0.00056	0
bin	0.00058	0
bin	0.0006	0
bin	0.00062	1
bin	0.00064	0
bin	0.00066	0
bin	0.00068	0
bin	0.0007	1
bin	0.00072	0
bin	0.00074	2
bin	0.00076	1
bin	0.00078	0
bin	0.0008	0
bin	0.00082	0
bin	0.00084	4
bin	0.00086	0
bin	0.00088	0
bin	0.0009	18
bin	0.00092	0
bin	0.00094	0
bin	0.00096	1
bin	0.00098	0
bin	0.001	1
bin	0.00102	0
bin	0.00104	0
bin	0.00106	0
bin	0.00108	0
bin	0.0011	0
bin	0.00112	1
bin	0.00114	0
bin	0.00116	0
bin	0.00118	0
bin	0.0012	0
bin	0.00122	0
bin	0.00124	0
bin	0.00126	0
bin	0.00128	2
bin	0.0013	0
scalar BulkTransfer6.client2.eth[0].queue.dataQueue outgoingPackets:count 5777
attr recordingmode count
attr source packetPulled
attr title "outgoing packets, count"
attr unit pk
scalar BulkTransfer6.client2.eth[0].queue.dataQueue outgoingPacketLengths:sum 11605008
attr interpolationmode none
attr recordingmode sum
attr source packetLength(packetPulled)
attr title "outgoing packet lengths, sum"
attr unit b
statistic BulkTransfer6.client2.eth[0].queue.dataQueue outgoingPacketLengths:histogram
field count 5777
field mean 2008.8294962783
field stddev 2005.0620119906
field min 592
field max 4912
field sum 11605008
field sqrsum 46533583104
attr interpolationmode none
attr recordingmode histogram
attr source packetLength(packetPulled)
attr title "outgoing packet lengths"
attr unit b
bin	-inf	0
bin	0	0
bin	100	0
bin	200	0
bin	300	0
bin	400	0
bin	500	1
bin	600	3909
bin	700	1
bin	800	0
bin	900	0
bin	1000	0
bin	1100	0
bin	1200	0
bin	1300	0
bin	1400	0
bin	1500	0
bin	1600	0
bin	1700	0
bin	1800	0
bin	1900	0
bin	2000	0
bin	2100	0
bin	2200	0
bin	2300	0
bin	2400	0
bin	2500	0
bin	2600	0
bin	2700	0
bin	2800	0
bin	2900	0
bin	3000	0
bin	3100	0
bin	3200	0
bin	3300	0
bin	3400	0
bin	3500	1
bin	3600	0
bin	3700	0
bin	3800	0
bin	3900	0
bin	4000	0
bin	4100	0
bin	4200	0
bin	4300	0
bin	4400	0
bin	4500	0
bin	4600	0
bin	4700	0
bin	4800	0
bin	4900	1865
bin	5000	0
bin	5100	0
bin	5200	0
bin	5300	0
bin	5400	0
bin	5500	0
bin	5600	0
bin	5700	0
bin	5800	0
bin	5900	0
bin	6000	0
statistic BulkTransfer6.client2.eth[0].queue.dataQueue flowQueueingTime:histogram
field count 0
field mean -nan
field stddev nan
field min nan
field max nan
field sum 0
field sqrsum 0
attr interpolationmode none
[...]
bin	0.003	19
bin	0.0031	5
bin	0.0032	3
bin	0.0033	2
bin	0.0034	11
bin	0.0035	9
bin	0.0036	4
bin	0.0037	0
bin	0.0038	0
bin	0.0039	8
bin	0.004	1
bin	0.0041	0
bin	0.0042	0
bin	0.0043	0
bin	0.0044	0
bin	0.0045	0
bin	0.0046	0
bin	0.0047	0
bin	0.0048	0
bin	0.0049	0
bin	0.005	0
bin	0.0051	0
scalar BulkTransfer6.router.eth[3].queue.dataQueue outgoingPackets:count 16740
attr recordingmode count
attr source packetPulled
attr title "outgoing packets, count"
attr unit pk
scalar BulkTransfer6.router.eth[3].queue.dataQueue outgoingPacketLengths:sum 34450720
attr interpolationmode none
attr recordingmode sum
attr source packetLength(packetPulled)
attr title "outgoing packet lengths, sum"
attr unit b
statistic BulkTransfer6.router.eth[3].queue.dataQueue outgoingPacketLengths:histogram
field count 16740
field mean 2057.9880525687
field stddev 2022.8626696704
field min 624
field max 4912
field sum 34450720
field sqrsum 139394712576
attr interpolationmode none
attr recordingmode histogram
attr source packetLength(packetPulled)
attr title "outgoing packet lengths"
attr unit b
bin	-inf	0
bin	0	0
bin	100	0
bin	200	0
bin	300	0
bin	400	0
bin	500	0
bin	600	11138
bin	700	2
bin	800	0
bin	900	1
bin	1000	0
bin	1100	0
bin	1200	0
bin	1300	0
bin	1400	0
bin	1500	0
bin	1600	0
bin	1700	0
bin	1800	0
bin	1900	0
bin	2000	0
bin	2100	0
bin	2200	0
bin	2300	0
bin	2400	0
bin	2500	0
bin	2600	0
bin	2700	0
bin	2800	0
bin	2900	0
bin	3000	0
bin	3100	0
bin	3200	0
bin	3300	0
bin	3400	0
bin	3500	3
bin	3600	0
bin	3700	0
bin	3800	0
bin	3900	0
bin	4000	0
bin	4100	0
bin	4200	0
bin	4300	0
bin	4400	0
bin	4500	0
bin	4600	0
bin	4700	0
bin	4800	0
bin	4900	5596
bin	5000	0
bin	5100	0
bin	5200	0
bin	5300	0
bin	5400	0
bin	5500	0
bin	5600	0
bin	5700	0
bin	5800	0
bin	5900	0
bin	6000	0
statistic BulkTransfer6.router.eth[3].queue.dataQueue flowQueueingTime:histogram
field count 0
field mean -nan
field stddev nan
field min nan
field max nan
field sum 0
field sqrsum 0
attr interpolationmode none
attr recordingmode histogram
attr source queueingTime(demuxFlow(packetPulled))
attr title "flow queueing times"
attr unit s
bin	-inf	0
bin	0	0
bin	1	0
scalar BulkTransfer6.router.eth[3].queue.dataQueue incomingPackets:count 16751
attr recordingmode count
attr source packetPushStarted
attr title "incoming packets, count"
attr unit pk
scalar BulkTransfer6.router.eth[3].queue.dataQueue incomingPacketLengths:sum 34479024
attr interpolationmode none
attr recordingmode sum
attr source packetLength(packetPushStarted)
attr title "incoming packet lengths, sum"
attr unit b
statistic BulkTransfer6.router.eth[3].queue.dataQueue incomingPacketLengths:histogram
field count 16751
field mean 2058.3263088771
field stddev 2022.9814756073
field min 624
field max 4912
field sum 34479024
field sqrsum 139517687552
attr interpolationmode none
attr recordingmode histogram
attr source packetLength(packetPushStarted)
attr title "incoming packet lengths"
attr unit b
bin	-inf	0
bin	0	0
bin	100	0
bin	200	0
bin	300	0
bin	400	0
bin	500	0
bin	600	11144
bin	700	2
bin	800	0
bin	900	1
bin	1000	0
bin	1100	0
bin	1200	0
bin	1300	0
bin	1400	0
bin	1500	0
bin	1600	0
bin	1700	0
bin	1800	0
bin	1900	0
bin	2000	0
bin	2100	0
bin	2200	0
bin	2300	0
bin	2400	0
bin	2500	0
bin	2600	0
bin	2700	0
bin	2800	0
bin	2900	0
bin	3000	0
bin	3100	0
bin	3200	0
bin	3300	0
bin	3400	0
bin	3500	3
bin	3600	0
bin	3700	0
bin	3800	0
bin	3900	0
bin	4000	0
bin	4100	0
bin	4200	0
bin	4300	0
bin	4400	0
bin	4500	0
bin	4600	0
bin	4700	0
bin	4800	0
bin	4900	5601
bin	5000	0
bin	5100	0
bin	5200	0
bin	5300	0
bin	5400	0
bin	5500	0
bin	5600	0
bin	5700	0
bin	5800	0
bin	5900	0
bin	6000	0
scalar BulkTransfer6.router.eth[3].queue.dataQueue droppedPacketsQueueOverflow:count 11
attr interpolationmode none
attr recordingmode count
attr source packetDropReasonIsQueueOverflow(packetDropped)
attr title "dropped packets: queue overflow, count"
attr unit pk
scalar BulkTransfer6.router.eth[3].queue.dataQueue droppedPacketLengthsQueueOverflow:sum 28304
attr interpolationmode none
attr recordingmode sum
attr source packetLength(packetDropReasonIsQueueOverflow(packetDropped))
attr title "dropped packet lengths: queue overflow, sum"
attr unit b
scalar BulkTransfer6.router.eth[3].queue.scheduler packets:count 16740
attr recordingmode count
attr source packetPulled
attr title "packets, count"
attr unit pk
scalar BulkTransfer6.router.eth[3].queue.scheduler packetLengths:sum 34450720
attr interpolationmode none
attr recordingmode sum
attr source packetLength(packetPulled)
attr title "packet lengths, sum"
attr unit b
statistic BulkTransfer6.router.eth[3].queue.scheduler packetLengths:histogram
field count 16740
field mean 2057.9880525687
field stddev 2022.8626696704
field min 624
field max 4912
field sum 34450720
field sqrsum 139394712576
attr interpolationmode none
attr recordingmode histogram
attr source packetLength(packetPulled)
attr title "packet lengths"
attr unit b
bin	-inf	0
bin	0	0
bin	100	0
bin	200	0
bin	300	0
bin	400	0
bin	500	0
bin	600	11138
bin	700	2
bin	800	0
bin	900	1
bin	1000	0
bin	1100	0
bin	1200	0
bin	1300	0
bin	1400	0
bin	1500	0
bin	1600	0
bin	1700	0
bin	1800	0
bin	1900	0
bin	2000	0
bin	2100	0
bin	2200	0
bin	2300	0
bin	2400	0
bin	2500	0
bin	2600	0
bin	2700	0
bin	2800	0
bin	2900	0
bin	3000	0
bin	3100	0
bin	3200	0
bin	3300	0
bin	3400	0
bin	3500	3
bin	3600	0
bin	3700	0
bin	3800	0
bin	3900	0
bin	4000	0
bin	4100	0
bin	4200	0
bin	4300	0
bin	4400	0
bin	4500	0
bin	4600	0
bin	4700	0
bin	4800	0
bin	4900	5596
bin	5000	0
bin	5100	0
bin	5200	0
bin	5300	0
bin	5400	0
bin	5500	0
bin	5600	0
bin	5700	0
bin	5800	0
bin	5900	0
bin	6000	0
scalar BulkTransfer6.router.eth[3].queue queueLength:last -16740
attr autoWarmupFilter false
attr interpolationmode sample-hold
attr recordingmode last
attr source "warmup(atomic(constant0(localSignal(packetPushEnded)) + count(localSignal(packetPushStarted)) - count(localSignal(packetPulled)) - count(localSignal(packetRemoved)) - count(localSignal(packetDropped))))"
attr title "queue length, last"
attr unit pk
scalar BulkTransfer6.router.eth[3].queue queueLength:max 0
attr autoWarmupFilter false
attr interpolationmode sample-hold
attr recordingmode max
attr source "warmup(atomic(constant0(localSignal(packetPushEnded)) + count(localSignal(packetPushStarted)) - count(localSignal(packetPulled)) - count(localSignal(packetRemoved)) - count(localSignal(packetDropped))))"
attr title "queue length, max"
attr unit pk
scalar BulkTransfer6.router.eth[3].queue queueLength:timeavg -12982.179053904
attr autoWarmupFilter false
attr interpolationmode sample-hold
attr recordingmode timeavg
attr source "warmup(atomic(constant0(localSignal(packetPushEnded)) + count(localSignal(packetPushStarted)) - count(localSignal(packetPulled)) - count(localSignal(packetRemoved)) - count(localSignal(packetDropped))))"
attr title "queue length, timeavg"
attr unit pk
scalar BulkTransfer6.router.eth[3].queue queueBitLength:last -34450720
attr autoWarmupFilter false
attr interpolationmode sample-hold
attr recordingmode last
attr source "warmup(atomic(constant0(localSignal(packetPushEnded)) + sum(packetLength(localSignal(packetPushStarted))) - sum(packetLength(localSignal(packetPulled))) - sum(packetLength(localSignal(packetRemoved))) - sum(packetLength(localSignal(packetDropped)))))"
attr title "queue bit length, last"
attr unit b
scalar BulkTransfer6.router.eth[3].queue queueBitLength:max 0
attr autoWarmupFilter false
attr interpolationmode sample-hold
attr recordingmode max
attr source "warmup(atomic(constant0(localSignal(packetPushEnded)) + sum(packetLength(localSignal(packetPushStarted))) - sum(packetLength(localSignal(packetPulled))) - sum(packetLength(localSignal(packetRemoved))) - sum(packetLength(localSignal(packetDropped)))))"
attr title "queue bit length, max"
attr unit b
scalar BulkTransfer6.router.eth[3].queue queueBitLength:timeavg -27992078.51174
attr autoWarmupFilter false
attr interpolationmode sample-hold
attr recordingmode timeavg
attr source "warmup(atomic(constant0(localSignal(packetPushEnded)) + sum(packetLength(localSignal(packetPushStarted))) - sum(packetLength(localSignal(packetPulled))) - sum(packetLength(localSignal(packetRemoved))) - sum(packetLength(localSignal(packetDropped)))))"
attr title "queue bit length, timeavg"
attr unit b
statistic BulkTransfer6.router.eth[3].queue queueingTime:histogram
field count 16740
field mean 0
field stddev 0
field min 0
field max 0
field sum 0
field sqrsum 0
attr interpolationmode none
attr recordingmode histogram
attr source queueingTime(localSignal(packetPulled))
attr title "queueing times"
attr unit s
bin	-inf	0
bin	-0.5	0
bin	-0.48	0
bin	-0.46	0
bin	-0.44	0
bin	-0.42	0
bin	-0.4	0
bin	-0.38	0
bin	-0.36	0
bin	-0.34	0
bin	-0.32	0
bin	-0.3	0
bin	-0.28	0
bin	-0.26	0
bin	-0.24	0
bin	-0.22	0
bin	-0.2	0
bin	-0.18	0
bin	-0.16	0
bin	-0.14	0
bin	-0.12	0
bin	-0.1	0
bin	-0.08	0
bin	-0.06	0
bin	-0.04	0
bin	-0.02	0
bin	0	16740
bin	0.02	0
bin	0.04	0
bin	0.06	0
bin	0.08	0
bin	0.1	0
bin	0.12	0
bin	0.14	0
bin	0.16	0
bin	0.18	0
bin	0.2	0
bin	0.22	0
bin	0.24	0
bin	0.26	0
bin	0.28	0
bin	0.3	0
bin	0.32	0
bin	0.34	0
bin	0.36	0
bin	0.38	0
bin	0.4	0
bin	0.42	0
bin	0.44	0
bin	0.46	0
bin	0.48	0
bin	0.5	0
scalar BulkTransfer6.router.eth[3].queue outgoingPackets:count 16740
attr recordingmode count
attr source localSignal(packetPulled)
attr title "outgoing packets, count"
attr unit pk
scalar BulkTransfer6.router.eth[3].queue outgoingPacketLengths:sum 34450720
attr interpolationmode none
attr recordingmode sum
attr source packetLength(localSignal(packetPulled))
attr title "outgoing packet lengths, sum"
attr unit b
statistic BulkTransfer6.router.eth[3].queue outgoingPacketLengths:histogram
field count 16740
field mean 2057.9880525687
field stddev 2022.8626696704
field min 624
field max 4912
field sum 34450720
field sqrsum 139394712576
attr interpolationmode none
attr recordingmode histogram
attr source packetLength(localSignal(packetPulled))
attr title "outgoing packet lengths"
attr unit b
bin	-inf	0
bin	0	0
bin	100	0
bin	200	0
bin	300	0
bin	400	0
bin	500	0
bin	600	11138
bin	700	2
bin	800	0
bin	900	1
bin	1000	0
bin	1100	0
bin	1200	0
bin	1300	0
bin	1400	0
bin	1500	0
bin	1600	0
bin	1700	0
bin	1800	0
bin	1900	0
bin	2000	0
bin	2100	0
bin	2200	0
bin	2300	0
bin	2400	0
bin	2500	0
bin	2600	0
bin	2700	0
bin	2800	0
bin	2900	0
bin	3000	0
bin	3100	0
bin	3200	0
bin	3300	0
bin	3400	0
bin	3500	3
bin	3600	0
bin	3700	0
bin	3800	0
bin	3900	0
bin	4000	0
bin	4100	0
bin	4200	0
bin	4300	0
bin	4400	0
bin	4500	0
bin	4600	0
bin	4700	0
bin	4800	0
bin	4900	5596
bin	5000	0
bin	5100	0
bin	5200	0
bin	5300	0
bin	5400	0
bin	5500	0
bin	5600	0
bin	5700	0
bin	5800	0
bin	5900	0
bin	6000	0
statistic BulkTransfer6.router.eth[3].queue flowQueueingTime:histogram
field count 0
field mean -nan
field stddev nan
field min nan
field max nan
field sum 0
field sqrsum 0
attr interpolationmode none
attr recordingmode histogram
attr source queueingTime(demuxFlow(localSignal(packetPulled)))
attr title "flow queueing times"
attr unit s
bin	-inf	0
bin	0	0
bin	1	0
scalar BulkTransfer6.router.eth[3].queue incomingPackets:count 0
attr recordingmode count
attr source localSignal(packetPushStarted)
attr title "incoming packets, count"
attr unit pk
scalar BulkTransfer6.router.eth[3].queue incomingPacketLengths:sum 0
attr interpolationmode none
attr recordingmode sum
attr source packetLength(localSignal(packetPushStarted))
attr title "incoming packet lengths, sum"
attr unit b
statistic BulkTransfer6.router.eth[3].queue incomingPacketLengths:histogram
field count 0
field mean -nan
field stddev nan
field min nan
field max nan
field sum 0
field sqrsum 0
attr interpolationmode none
attr recordingmode histogram
attr source packetLength(localSignal(packetPushStarted))
attr title "incoming packet lengths"
attr unit b
bin	-inf	0
bin	0	0
bin	1	0
scalar BulkTransfer6.router.eth[3].queue droppedPacketsQueueOverflow:count 0
attr interpolationmode none
attr recordingmode count
attr source packetDropReasonIsQueueOverflow(localSignal(packetDropped))
attr title "dropped packets: queue overflow, count"
attr unit pk
scalar BulkTransfer6.router.eth[3].queue droppedPacketLengthsQueueOverflow:sum 0
attr interpolationmode none
attr recordingmode sum
attr source packetLength(packetDropReasonIsQueueOverflow(localSignal(packetDropped)))
attr title "dropped packet lengths: queue overflow, sum"
attr unit b
scalar BulkTransfer6.router.eth[3].mac "simulated time" 50
scalar BulkTransfer6.router.eth[3].mac full-duplex 1
scalar BulkTransfer6.router.eth[3].mac "frames/sec sent" 334.8
scalar BulkTransfer6.router.eth[3].mac "frames/sec rcvd" 334.8
scalar BulkTransfer6.router.eth[3].mac "bits/sec sent" 689014.4
scalar BulkTransfer6.router.eth[3].mac "bits/sec rcvd" 1169434.24
scalar BulkTransfer6.router.eth[3].mac "rx channel idle (%)" 88.0913856
scalar BulkTransfer6.router.eth[3].mac "rx channel utilization (%)" 11.9086144
scalar BulkTransfer6.router.eth[3].mac rxPausePkUnits:count 0
attr interpolationmode none
attr recordingmode count
attr title "pause units received, count"
scalar BulkTransfer6.router.eth[3].mac rxPausePkUnits:sum 0
attr interpolationmode none
attr recordingmode sum
attr title "pause units received, sum"
scalar BulkTransfer6.router.eth[3].mac txPausePkUnits:count 0
attr interpolationmode none
attr recordingmode count
attr title "pause units sent, count"
scalar BulkTransfer6.router.eth[3].mac txPausePkUnits:sum 0
attr interpolationmode none
attr recordingmode sum
attr title "pause units sent, sum"
scalar BulkTransfer6.router.eth[3].mac rxPkOk:count 16740
attr interpolationmode none
attr recordingmode count
attr source rxPkOk
attr title "packets received OK, count"
scalar BulkTransfer6.router.eth[3].mac rxPkOk:sum(packetBytes) 7308964
attr interpolationmode none
attr recordingmode sum(packetBytes)
attr source rxPkOk
attr title "packets received OK, sum(packetBytes)"
statistic BulkTransfer6.router.eth[3].mac throughput:histogram
field count 581
field mean 1374840.5843978
field stddev 2871802.1010551
field min 0
field max 9810725.5520505
field sum 798782379.5351
field sqrsum 5.8816018719089e+15
attr interpolationmode linear
attr recordingmode histogram
attr source throughput(transmissionEnded)
attr title throughput
attr unit bps
bin	-inf	0
bin	0	414
bin	200000	0
bin	400000	3
bin	600000	0
bin	800000	0
bin	1000000	0
bin	1200000	1
bin	1400000	75
bin	1600000	0
bin	1800000	0
bin	2000000	0
bin	2200000	0
bin	2400000	0
bin	2600000	0
bin	2800000	0
bin	3000000	0
bin	3200000	0
bin	3400000	0
bin	3600000	1
bin	3800000	0
bin	4000000	0
bin	4200000	0
bin	4400000	0
bin	4600000	0
bin	4800000	0
bin	5000000	0
bin	5200000	0
bin	5400000	0
bin	5600000	0
bin	5800000	28
bin	6000000	13
bin	6200000	0
bin	6400000	0
bin	6600000	0
bin	6800000	1
bin	7000000	0
bin	7200000	0
bin	7400000	1
bin	7600000	1
bin	7800000	0
bin	8000000	0
bin	8200000	1
bin	8400000	0
bin	8600000	0
bin	8800000	0
bin	9000000	0
bin	9200000	0
bin	9400000	0
bin	9600000	9
bin	9800000	33
bin	10000000	0
bin	10200000	0
bin	10400000	0
bin	10600000	0
bin	10800000	0
bin	11000000	0
bin	11200000	0
bin	11400000	0
bin	11600000	0
bin	11800000	0
bin	12000000	0
bin	12200000	0
bin	12400000	0
statistic BulkTransfer6.router.eth[3].mac utilization:histogram
field count 581
field mean 13.748740484766
field stddev 28.717322447228
field min 0
field max 98.107255520505
field sum 7988.0182216488
field sqrsum 588142.26246912
attr interpolationmode linear
attr recordingmode histogram
attr source "100 * utilization(count(transmissionStarted) - count(transmissionEnded))"
attr title utilization
attr unit %
bin	-inf	0
bin	0	414
bin	2	0
bin	4	3
bin	6	0
bin	8	0
bin	10	0
bin	12	1
bin	14	75
bin	16	0
bin	18	0
bin	20	0
bin	22	0
bin	24	0
bin	26	0
bin	28	0
bin	30	0
bin	32	0
bin	34	0
bin	36	0
bin	38	1
bin	40	0
bin	42	0
bin	44	0
bin	46	0
bin	48	0
bin	50	0
bin	52	0
bin	54	0
bin	56	0
bin	58	28
bin	60	13
bin	62	0
bin	64	0
bin	66	0
bin	68	1
bin	70	0
bin	72	0
bin	74	1
bin	76	1
bin	78	0
bin	80	0
bin	82	1
bin	84	0
bin	86	0
bin	88	0
bin	90	0
bin	92	0
bin	94	0
bin	96	9
bin	98	33
bin	100	0
bin	102	0
bin	104	0
bin	106	0
bin	108	0
bin	110	0
bin	112	0
bin	114	0
bin	116	0
bin	118	0
bin	120	0
bin	122	0
bin	124	0
scalar BulkTransfer6.router.eth[3].mac txPk:count 16740
attr interpolationmode none
attr recordingmode count
attr source packetSentToLower
attr title "packets transmitted, count"
scalar BulkTransfer6.router.eth[3].mac txPk:sum(packetBytes) 4306340
attr interpolationmode none
attr recordingmode sum(packetBytes)
attr source packetSentToLower
attr title "packets transmitted, sum(packetBytes)"
scalar BulkTransfer6.router.eth[3].mac packetReceivedFromUpper:count 16740
attr interpolationmode none
attr recordingmode count
attr source packetReceivedFromUpper
attr title "packet bytes from higher layer, count"
scalar BulkTransfer6.router.eth[3].mac packetReceivedFromUpper:sum(packetBytes) 4306340
attr interpolationmode none
attr recordingmode sum(packetBytes)
attr source packetReceivedFromUpper
attr title "packet bytes from higher layer, sum(packetBytes)"
scalar BulkTransfer6.router.eth[3].mac passedUpPk:count 16740
attr interpolationmode none
attr recordingmode count
attr source packetSentToUpper
attr title "packets passed to higher layer, count"
scalar BulkTransfer6.router.eth[3].mac passedUpPk:sum(packetBytes) 7308964
attr interpolationmode none
attr recordingmode sum(packetBytes)
attr source packetSentToUpper
attr title "packets passed to higher layer, sum(packetBytes)"
scalar BulkTransfer6.router.eth[3].mac packetDropIncorrectlyReceived:count 0
attr interpolationmode none
attr recordingmode count
attr source packetDropReasonIsIncorrectlyReceived(packetDropped)
attr title "packet drop: incorrectly received, count"
scalar BulkTransfer6.router.eth[3].mac packetDropIncorrectlyReceived:sum(packetBytes) 0
attr interpolationmode none
attr recordingmode sum(packetBytes)
attr source packetDropReasonIsIncorrectlyReceived(packetDropped)
attr title "packet drop: incorrectly received, sum(packetBytes)"
scalar BulkTransfer6.router.eth[3].mac packetDropInterfaceDown:count 0
attr interpolationmode none
attr recordingmode count
attr source packetDropReasonIsInterfaceDown(packetDropped)
attr title "packet drop: interface down, count"
scalar BulkTransfer6.router.eth[3].mac packetDropInterfaceDown:sum(packetBytes) 0
attr interpolationmode none
attr recordingmode sum(packetBytes)
attr source packetDropReasonIsInterfaceDown(packetDropped)
attr title "packet drop: interface down, sum(packetBytes)"
scalar BulkTransfer6.router.eth[3].mac packetDropNotAddressedToUs:count 0
attr interpolationmode none
attr recordingmode count
attr source packetDropReasonIsNotAddressedToUs(packetDropped)
attr title "packet drop: not addressed to us, count"
scalar BulkTransfer6.router.eth[3].mac packetDropNotAddressedToUs:sum(packetBytes) 0
attr interpolationmode none
attr recordingmode sum(packetBytes)
attr source packetDropReasonIsNotAddressedToUs(packetDropped)
attr title "packet drop: not addressed to us, sum(packetBytes)"
scalar BulkTransfer6.router.eth[3] packetDropInterfaceDown:count 0
attr interpolationmode none
attr recordingmode count
attr source packetDropReasonIsInterfaceDown(packetDropped)
attr title "packet drops: interface down, count"
scalar BulkTransfer6.router.eth[3] packetDropInterfaceDown:sum(packetBytes) 0
attr interpolationmode none
attr recordingmode sum(packetBytes)
attr source packetDropReasonIsInterfaceDown(packetDropped)
attr title "packet drops: interface down, sum(packetBytes)"
scalar BulkTransfer6.router.eth[3] packetDropNoCarrier:count 0
attr interpolationmode none
attr recordingmode count
attr source packetDropReasonIsNoCarrier(packetDropped)
attr title "packet drops: no carrier, count"
scalar BulkTransfer6.router.eth[3] packetDropNoCarrier:sum(packetBytes) 0
attr interpolationmode none
attr recordingmode sum(packetBytes)
attr source packetDropReasonIsNoCarrier(packetDropped)
attr title "packet drops: no carrier, sum(packetBytes)"
scalar BulkTransfer6.router.ipv6.neighbourDiscovery startDad:count 4
attr recordingmode count
attr title "DAD started, count"

