version 3
run General-0-20251118-12:00:50-114867
attr configname General
attr datetime 20251118-12:00:50
attr datetimef 20251118-120050
attr experiment General
attr inifile ethernet-twohosts.ini
attr iterationvars "$datarate=10Mbps, $csmacd=true, $duplex=true, $burst=true, $queue=\"EthernetQosQueue\""
attr iterationvarsd datarate=10Mbps/csmacd=true/duplex=true/burst=true/queue=EthernetQosQueue
attr iterationvarsf datarate=10Mbps,csmacd=true,duplex=true,burst=true,queue=EthernetQosQueue-
attr measurement "$datarate=10Mbps, $csmacd=true, $duplex=true, $burst=true, $queue=\"EthernetQosQueue\""
attr network inet.tests.ethernet.TwoHosts
attr processid 114867
attr repetition 0
attr replication #0
attr resultdir results
attr runnumber 0
attr seedset 0
itervar burst true
itervar csmacd true
itervar datarate 10Mbps
itervar duplex true
itervar queue "\"EthernetQosQueue\""
config **.param-recording false
config image-path /home/zoli/Projects/OMNET/inet/images
config output-scalar-file results/ethernet-twohosts.ini-General-#0.sca
config output-scalar-precision 17
config output-vector-file results/ethernet-twohosts.ini-General-#0.vec
config output-vector-precision 17
config record-eventlog false
config sim-time-limit 1000s
config sim-time-limit 1000s
config seed-set 0
config network inet.tests.ethernet.TwoHosts
config **.channel.datarate 10Mbps
config **.channel.delay 10s/200000000
config **.csmacdSupport true
config **.duplexMode true
config **.frameBursting true
config **.queue.typename EthernetQosQueue
config **.queue.dataQueue.typename DropTailQueue
config **.queue.dataQueue.packetCapacity 100000
config **.queue.packetCapacity 100000
config **.hostA.app.destAddress "\"hostB\""
config **.hostB.app.destAddress "\"hostA\""
config **.app.packetLength "select(intuniform(0,2), intWithUnit(uniform(20B,70B)), intWithUnit(uniform(474B,514B)), intWithUnit(uniform(1200B,1497B)))"
config **.app.numPacketsPerBurst geometric(1/5)
config **.app.sendInterval 1s
config constraint "(true==true && 10Mbps <= 1Gbps) || true==true"

scalar TwoHosts.hostA.app packetReceived:count 3864
scalar TwoHosts.hostA.app packetReceived:sum(packetBytes) 2456403
scalar TwoHosts.hostA.app packetSent:count 4079
scalar TwoHosts.hostA.app packetSent:sum(packetBytes) 2535896
scalar TwoHosts.hostA.ethernet pauseSent:count 0
scalar TwoHosts.hostA.ethernet pauseSent:sum 0
scalar TwoHosts.hostA.ethernet decapPk:count 3864
scalar TwoHosts.hostA.ethernet decapPk:sum(packetBytes) 2467995
scalar TwoHosts.hostA.ethernet encapPk:count 4079
scalar TwoHosts.hostA.ethernet encapPk:sum(packetBytes) 2548133
scalar TwoHosts.hostA.eth.queue.classifier packets:count 4079
scalar TwoHosts.hostA.eth.queue.classifier packetLengths:sum 20972440
scalar TwoHosts.hostA.eth.queue.pauseQueue queueLength:last 0
scalar TwoHosts.hostA.eth.queue.pauseQueue queueLength:max 0
scalar TwoHosts.hostA.eth.queue.pauseQueue queueLength:timeavg 0
scalar TwoHosts.hostA.eth.queue.pauseQueue queueBitLength:last 0
scalar TwoHosts.hostA.eth.queue.pauseQueue queueBitLength:max 0
scalar TwoHosts.hostA.eth.queue.pauseQueue queueBitLength:timeavg 0
scalar TwoHosts.hostA.eth.queue.pauseQueue outgoingPackets:count 0
scalar TwoHosts.hostA.eth.queue.pauseQueue outgoingPacketLengths:sum 0
scalar TwoHosts.hostA.eth.queue.pauseQueue incomingPackets:count 0
scalar TwoHosts.hostA.eth.queue.pauseQueue incomingPacketLengths:sum 0
scalar TwoHosts.hostA.eth.queue.pauseQueue droppedPacketsQueueOverflow:count 0
scalar TwoHosts.hostA.eth.queue.pauseQueue droppedPacketLengthsQueueOverflow:sum 0
scalar TwoHosts.hostA.eth.queue.dataQueue queueLength:last 16
scalar TwoHosts.hostA.eth.queue.dataQueue queueLength:max 47
scalar TwoHosts.hostA.eth.queue.dataQueue queueLength:timeavg 0.0093141680000000029
scalar TwoHosts.hostA.eth.queue.dataQueue queueBitLength:last 55016
scalar TwoHosts.hostA.eth.queue.dataQueue queueBitLength:max 231720
scalar TwoHosts.hostA.eth.queue.dataQueue queueBitLength:timeavg 46.924859615999893
scalar TwoHosts.hostA.eth.queue.dataQueue outgoingPackets:count 4063
scalar TwoHosts.hostA.eth.queue.dataQueue outgoingPacketLengths:sum 20917424
scalar TwoHosts.hostA.eth.queue.dataQueue incomingPackets:count 4079
scalar TwoHosts.hostA.eth.queue.dataQueue incomingPacketLengths:sum 20972440
scalar TwoHosts.hostA.eth.queue.dataQueue droppedPacketsQueueOverflow:count 0
scalar TwoHosts.hostA.eth.queue.dataQueue droppedPacketLengthsQueueOverflow:sum 0
scalar TwoHosts.hostA.eth.queue.scheduler packets:count 4063
scalar TwoHosts.hostA.eth.queue.scheduler packetLengths:sum 20917424
scalar TwoHosts.hostA.eth.queue queueLength:last -4063
scalar TwoHosts.hostA.eth.queue queueLength:max 0
scalar TwoHosts.hostA.eth.queue queueLength:timeavg -2012.3816858319974
scalar TwoHosts.hostA.eth.queue queueBitLength:last -20917424
scalar TwoHosts.hostA.eth.queue queueBitLength:max 0
scalar TwoHosts.hostA.eth.queue queueBitLength:timeavg -10290501.235140374
scalar TwoHosts.hostA.eth.queue outgoingPackets:count 4063
scalar TwoHosts.hostA.eth.queue outgoingPacketLengths:sum 20917424
scalar TwoHosts.hostA.eth.queue incomingPackets:count 0
scalar TwoHosts.hostA.eth.queue incomingPacketLengths:sum 0
scalar TwoHosts.hostA.eth.queue droppedPacketsQueueOverflow:count 0
scalar TwoHosts.hostA.eth.queue droppedPacketLengthsQueueOverflow:sum 0
scalar TwoHosts.hostA.eth.mac "simulated time" 1000
scalar TwoHosts.hostA.eth.mac full-duplex 1
scalar TwoHosts.hostA.eth.mac "frames/sec sent" 4.0620000000000003
scalar TwoHosts.hostA.eth.mac "frames/sec rcvd" 3.8639999999999999
scalar TwoHosts.hostA.eth.mac "bits/sec sent" 20977.151999999998
scalar TwoHosts.hostA.eth.mac "bits/sec rcvd" 20358.464
scalar TwoHosts.hostA.eth.mac "rx channel idle (%)" 99.793942400000006
scalar TwoHosts.hostA.eth.mac "rx channel utilization (%)" 0.20605760000000001
scalar TwoHosts.hostA.eth.mac "rx channel collision (%)" 0
scalar TwoHosts.hostA.eth.mac collisions 0
scalar TwoHosts.hostA.eth.mac backoffs 0
scalar TwoHosts.hostA.eth.mac backoffSlotsGenerated:count 0
scalar TwoHosts.hostA.eth.mac collision:count 0
scalar TwoHosts.hostA.eth.mac rxPausePkUnits:count 0
scalar TwoHosts.hostA.eth.mac rxPausePkUnits:sum 0
scalar TwoHosts.hostA.eth.mac txPausePkUnits:count 0
scalar TwoHosts.hostA.eth.mac txPausePkUnits:sum 0
scalar TwoHosts.hostA.eth.mac rxPkOk:count 3864
scalar TwoHosts.hostA.eth.mac rxPkOk:sum(packetBytes) 2544808
scalar TwoHosts.hostA.eth.mac txPk:count 4062
scalar TwoHosts.hostA.eth.mac txPk:sum(packetBytes) 2622144
scalar TwoHosts.hostA.eth.mac packetReceivedFromUpper:count 4063
scalar TwoHosts.hostA.eth.mac packetReceivedFromUpper:sum(packetBytes) 2614678
scalar TwoHosts.hostA.eth.mac passedUpPk:count 3864
scalar TwoHosts.hostA.eth.mac passedUpPk:sum(packetBytes) 2544808
scalar TwoHosts.hostA.eth.mac packetDropIncorrectlyReceived:count 0
scalar TwoHosts.hostA.eth.mac packetDropIncorrectlyReceived:sum(packetBytes) 0
scalar TwoHosts.hostA.eth.mac packetDropInterfaceDown:count 0
scalar TwoHosts.hostA.eth.mac packetDropInterfaceDown:sum(packetBytes) 0
scalar TwoHosts.hostA.eth.mac packetDropNotAddressedToUs:count 0
scalar TwoHosts.hostA.eth.mac packetDropNotAddressedToUs:sum(packetBytes) 0
scalar TwoHosts.hostA.eth packetDropInterfaceDown:count 0
scalar TwoHosts.hostA.eth packetDropInterfaceDown:sum(packetBytes) 0
scalar TwoHosts.hostA.eth packetDropNoCarrier:count 0
scalar TwoHosts.hostA.eth packetDropNoCarrier:sum(packetBytes) 0
scalar TwoHosts.hostB.app packetReceived:count 4062
scalar TwoHosts.hostB.app packetReceived:sum(packetBytes) 2529332
scalar TwoHosts.hostB.app packetSent:count 3869
scalar TwoHosts.hostB.app packetSent:sum(packetBytes) 2459213
scalar TwoHosts.hostB.ethernet pauseSent:count 0
scalar TwoHosts.hostB.ethernet pauseSent:sum 0
scalar TwoHosts.hostB.ethernet decapPk:count 4062
scalar TwoHosts.hostB.ethernet decapPk:sum(packetBytes) 2541518
scalar TwoHosts.hostB.ethernet encapPk:count 3869
scalar TwoHosts.hostB.ethernet encapPk:sum(packetBytes) 2470820
scalar TwoHosts.hostB.eth.queue.classifier packets:count 3869
scalar TwoHosts.hostB.eth.queue.classifier packetLengths:sum 20323696
scalar TwoHosts.hostB.eth.queue.pauseQueue queueLength:last 0
scalar TwoHosts.hostB.eth.queue.pauseQueue queueLength:max 0
scalar TwoHosts.hostB.eth.queue.pauseQueue queueLength:timeavg 0
scalar TwoHosts.hostB.eth.queue.pauseQueue queueBitLength:last 0
scalar TwoHosts.hostB.eth.queue.pauseQueue queueBitLength:max 0
scalar TwoHosts.hostB.eth.queue.pauseQueue queueBitLength:timeavg 0
scalar TwoHosts.hostB.eth.queue.pauseQueue outgoingPackets:count 0
scalar TwoHosts.hostB.eth.queue.pauseQueue outgoingPacketLengths:sum 0
scalar TwoHosts.hostB.eth.queue.pauseQueue incomingPackets:count 0
scalar TwoHosts.hostB.eth.queue.pauseQueue incomingPacketLengths:sum 0
scalar TwoHosts.hostB.eth.queue.pauseQueue droppedPacketsQueueOverflow:count 0
scalar TwoHosts.hostB.eth.queue.pauseQueue droppedPacketLengthsQueueOverflow:sum 0
scalar TwoHosts.hostB.eth.queue.dataQueue queueLength:last 4
scalar TwoHosts.hostB.eth.queue.dataQueue queueLength:max 44
scalar TwoHosts.hostB.eth.queue.dataQueue queueLength:timeavg 0.0082285671999999966
scalar TwoHosts.hostB.eth.queue.dataQueue queueBitLength:last 22672
scalar TwoHosts.hostB.eth.queue.dataQueue queueBitLength:max 196856
scalar TwoHosts.hostB.eth.queue.dataQueue queueBitLength:timeavg 42.739527411200051
scalar TwoHosts.hostB.eth.queue.dataQueue outgoingPackets:count 3865
scalar TwoHosts.hostB.eth.queue.dataQueue outgoingPacketLengths:sum 20301024
scalar TwoHosts.hostB.eth.queue.dataQueue incomingPackets:count 3869
scalar TwoHosts.hostB.eth.queue.dataQueue incomingPacketLengths:sum 20323696
scalar TwoHosts.hostB.eth.queue.dataQueue droppedPacketsQueueOverflow:count 0
scalar TwoHosts.hostB.eth.queue.dataQueue droppedPacketLengthsQueueOverflow:sum 0
scalar TwoHosts.hostB.eth.queue.scheduler packets:count 3865
scalar TwoHosts.hostB.eth.queue.scheduler packetLengths:sum 20301024
scalar TwoHosts.hostB.eth.queue queueLength:last -3865
scalar TwoHosts.hostB.eth.queue queueLength:max 0
scalar TwoHosts.hostB.eth.queue queueLength:timeavg -1964.577771432804
scalar TwoHosts.hostB.eth.queue queueBitLength:last -20301024
scalar TwoHosts.hostB.eth.queue queueBitLength:max 0
scalar TwoHosts.hostB.eth.queue queueBitLength:timeavg -10407659.364472566
scalar TwoHosts.hostB.eth.queue outgoingPackets:count 3865
scalar TwoHosts.hostB.eth.queue outgoingPacketLengths:sum 20301024
scalar TwoHosts.hostB.eth.queue incomingPackets:count 0
scalar TwoHosts.hostB.eth.queue incomingPacketLengths:sum 0
scalar TwoHosts.hostB.eth.queue droppedPacketsQueueOverflow:count 0
scalar TwoHosts.hostB.eth.queue droppedPacketLengthsQueueOverflow:sum 0
scalar TwoHosts.hostB.eth.mac "simulated time" 1000
scalar TwoHosts.hostB.eth.mac full-duplex 1
scalar TwoHosts.hostB.eth.mac "frames/sec sent" 3.8639999999999999
scalar TwoHosts.hostB.eth.mac "frames/sec rcvd" 4.0620000000000003
scalar TwoHosts.hostB.eth.mac "bits/sec sent" 20358.464
scalar TwoHosts.hostB.eth.mac "bits/sec rcvd" 20977.151999999998
scalar TwoHosts.hostB.eth.mac "rx channel idle (%)" 99.787628799999993
scalar TwoHosts.hostB.eth.mac "rx channel utilization (%)" 0.21237119999999998
scalar TwoHosts.hostB.eth.mac "rx channel collision (%)" 0
scalar TwoHosts.hostB.eth.mac collisions 0
scalar TwoHosts.hostB.eth.mac backoffs 0
scalar TwoHosts.hostB.eth.mac backoffSlotsGenerated:count 0
scalar TwoHosts.hostB.eth.mac collision:count 0
scalar TwoHosts.hostB.eth.mac rxPausePkUnits:count 0
scalar TwoHosts.hostB.eth.mac rxPausePkUnits:sum 0
scalar TwoHosts.hostB.eth.mac txPausePkUnits:count 0
scalar TwoHosts.hostB.eth.mac txPausePkUnits:sum 0
scalar TwoHosts.hostB.eth.mac rxPkOk:count 4062
scalar TwoHosts.hostB.eth.mac rxPkOk:sum(packetBytes) 2622144
scalar TwoHosts.hostB.eth.mac txPk:count 3864
scalar TwoHosts.hostB.eth.mac txPk:sum(packetBytes) 2544808
scalar TwoHosts.hostB.eth.mac packetReceivedFromUpper:count 3865
scalar TwoHosts.hostB.eth.mac packetReceivedFromUpper:sum(packetBytes) 2537628
scalar TwoHosts.hostB.eth.mac passedUpPk:count 4062
scalar TwoHosts.hostB.eth.mac passedUpPk:sum(packetBytes) 2622144
scalar TwoHosts.hostB.eth.mac packetDropIncorrectlyReceived:count 0
scalar TwoHosts.hostB.eth.mac packetDropIncorrectlyReceived:sum(packetBytes) 0
scalar TwoHosts.hostB.eth.mac packetDropInterfaceDown:count 0
scalar TwoHosts.hostB.eth.mac packetDropInterfaceDown:sum(packetBytes) 0
scalar TwoHosts.hostB.eth.mac packetDropNotAddressedToUs:count 0
scalar TwoHosts.hostB.eth.mac packetDropNotAddressedToUs:sum(packetBytes) 0
scalar TwoHosts.hostB.eth packetDropInterfaceDown:count 0
scalar TwoHosts.hostB.eth packetDropInterfaceDown:sum(packetBytes) 0
scalar TwoHosts.hostB.eth packetDropNoCarrier:count 0
scalar TwoHosts.hostB.eth packetDropNoCarrier:sum(packetBytes) 0
scalar TwoHosts.hostA.app endToEndDelay:histogram:count 3864
scalar TwoHosts.hostA.app endToEndDelay:histogram:sumweights 3864
scalar TwoHosts.hostA.app endToEndDelay:histogram:mean 0.0026628717391304277
scalar TwoHosts.hostA.app endToEndDelay:histogram:stddev 0.0026798141140196032
scalar TwoHosts.hostA.app endToEndDelay:histogram:min 5.7649999999999999e-05
scalar TwoHosts.hostA.app endToEndDelay:histogram:max 0.020524850000000001
scalar TwoHosts.hostA.app endToEndDelay:histogram:numbins 52
scalar TwoHosts.hostA.app endToEndDelay:histogram:rangemin 0
scalar TwoHosts.hostA.app endToEndDelay:histogram:rangemax 0.020799999999999999
scalar TwoHosts.hostA.app endToEndDelay:histogram:underflows 0
scalar TwoHosts.hostA.app endToEndDelay:histogram:overflows 0
scalar TwoHosts.hostA.eth.queue.classifier packetLengths:histogram:count 4079
scalar TwoHosts.hostA.eth.queue.classifier packetLengths:histogram:sumweights 4079
scalar TwoHosts.hostA.eth.queue.classifier packetLengths:histogram:mean 5141.564108850208
scalar TwoHosts.hostA.eth.queue.classifier packetLengths:histogram:stddev 4338.8917058577008
scalar TwoHosts.hostA.eth.queue.classifier packetLengths:histogram:min 328
scalar TwoHosts.hostA.eth.queue.classifier packetLengths:histogram:max 12136
scalar TwoHosts.hostA.eth.queue.classifier packetLengths:histogram:numbins 76
scalar TwoHosts.hostA.eth.queue.classifier packetLengths:histogram:rangemin 0
scalar TwoHosts.hostA.eth.queue.classifier packetLengths:histogram:rangemax 15200
scalar TwoHosts.hostA.eth.queue.classifier packetLengths:histogram:underflows 0
scalar TwoHosts.hostA.eth.queue.classifier packetLengths:histogram:overflows 0
scalar TwoHosts.hostA.eth.queue.pauseQueue queueingTime:histogram:count 0
scalar TwoHosts.hostA.eth.queue.pauseQueue queueingTime:histogram:sumweights 0
scalar TwoHosts.hostA.eth.queue.pauseQueue queueingTime:histogram:mean -nan
scalar TwoHosts.hostA.eth.queue.pauseQueue queueingTime:histogram:stddev nan
scalar TwoHosts.hostA.eth.queue.pauseQueue queueingTime:histogram:min nan
scalar TwoHosts.hostA.eth.queue.pauseQueue queueingTime:histogram:max nan
scalar TwoHosts.hostA.eth.queue.pauseQueue queueingTime:histogram:numbins 1
scalar TwoHosts.hostA.eth.queue.pauseQueue queueingTime:histogram:rangemin 0
scalar TwoHosts.hostA.eth.queue.pauseQueue queueingTime:histogram:rangemax 1
scalar TwoHosts.hostA.eth.queue.pauseQueue queueingTime:histogram:underflows 0
scalar TwoHosts.hostA.eth.queue.pauseQueue queueingTime:histogram:overflows 0
scalar TwoHosts.hostA.eth.queue.pauseQueue outgoingPacketLengths:histogram:count 0
scalar TwoHosts.hostA.eth.queue.pauseQueue outgoingPacketLengths:histogram:sumweights 0
scalar TwoHosts.hostA.eth.queue.pauseQueue outgoingPacketLengths:histogram:mean -nan
scalar TwoHosts.hostA.eth.queue.pauseQueue outgoingPacketLengths:histogram:stddev nan
scalar TwoHosts.hostA.eth.queue.pauseQueue outgoingPacketLengths:histogram:min nan
scalar TwoHosts.hostA.eth.queue.pauseQueue outgoingPacketLengths:histogram:max nan
scalar TwoHosts.hostA.eth.queue.pauseQueue outgoingPacketLengths:histogram:numbins 1
scalar TwoHosts.hostA.eth.queue.pauseQueue outgoingPacketLengths:histogram:rangemin 0
scalar TwoHosts.hostA.eth.queue.pauseQueue outgoingPacketLengths:histogram:rangemax 1
scalar TwoHosts.hostA.eth.queue.pauseQueue outgoingPacketLengths:histogram:underflows 0
scalar TwoHosts.hostA.eth.queue.pauseQueue outgoingPacketLengths:histogram:overflows 0
scalar TwoHosts.hostA.eth.queue.pauseQueue flowQueueingTime:histogram:count 0
scalar TwoHosts.hostA.eth.queue.pauseQueue flowQueueingTime:histogram:sumweights 0
scalar TwoHosts.hostA.eth.queue.pauseQueue flowQueueingTime:histogram:mean -nan
scalar TwoHosts.hostA.eth.queue.pauseQueue flowQueueingTime:histogram:stddev nan
scalar TwoHosts.hostA.eth.queue.pauseQueue flowQueueingTime:histogram:min nan
scalar TwoHosts.hostA.eth.queue.pauseQueue flowQueueingTime:histogram:max nan
scalar TwoHosts.hostA.eth.queue.pauseQueue flowQueueingTime:histogram:numbins 1
scalar TwoHosts.hostA.eth.queue.pauseQueue flowQueueingTime:histogram:rangemin 0
scalar TwoHosts.hostA.eth.queue.pauseQueue flowQueueingTime:histogram:rangemax 1
scalar TwoHosts.hostA.eth.queue.pauseQueue flowQueueingTime:histogram:underflows 0
scalar TwoHosts.hostA.eth.queue.pauseQueue flowQueueingTime:histogram:overflows 0
scalar TwoHosts.hostA.eth.queue.pauseQueue incomingPacketLengths:histogram:count 0
scalar TwoHosts.hostA.eth.queue.pauseQueue incomingPacketLengths:histogram:sumweights 0
scalar TwoHosts.hostA.eth.queue.pauseQueue incomingPacketLengths:histogram:mean -nan
scalar TwoHosts.hostA.eth.queue.pauseQueue incomingPacketLengths:histogram:stddev nan
scalar TwoHosts.hostA.eth.queue.pauseQueue incomingPacketLengths:histogram:min nan
scalar TwoHosts.hostA.eth.queue.pauseQueue incomingPacketLengths:histogram:max nan
scalar TwoHosts.hostA.eth.queue.pauseQueue incomingPacketLengths:histogram:numbins 1
scalar TwoHosts.hostA.eth.queue.pauseQueue incomingPacketLengths:histogram:rangemin 0
scalar TwoHosts.hostA.eth.queue.pauseQueue incomingPacketLengths:histogram:rangemax 1
scalar TwoHosts.hostA.eth.queue.pauseQueue incomingPacketLengths:histogram:underflows 0
scalar TwoHosts.hostA.eth.queue.pauseQueue incomingPacketLengths:histogram:overflows 0
scalar TwoHosts.hostA.eth.queue.dataQueue queueingTime:histogram:count 4063
scalar TwoHosts.hostA.eth.queue.dataQueue queueingTime:histogram:sumweights 4063
scalar TwoHosts.hostA.eth.queue.dataQueue queueingTime:histogram:mean 0.0022924361309377386
scalar TwoHosts.hostA.eth.queue.dataQueue queueingTime:histogram:stddev 0.0029450421558825154
scalar TwoHosts.hostA.eth.queue.dataQueue queueingTime:histogram:min 0
scalar TwoHosts.hostA.eth.queue.dataQueue queueingTime:histogram:max 0.024057599999999998
scalar TwoHosts.hostA.eth.queue.dataQueue queueingTime:histogram:numbins 61
scalar TwoHosts.hostA.eth.queue.dataQueue queueingTime:histogram:rangemin 0
scalar TwoHosts.hostA.eth.queue.dataQueue queueingTime:histogram:rangemax 0.024400000000000002
scalar TwoHosts.hostA.eth.queue.dataQueue queueingTime:histogram:underflows 0
scalar TwoHosts.hostA.eth.queue.dataQueue queueingTime:histogram:overflows 0
scalar TwoHosts.hostA.eth.queue.dataQueue outgoingPacketLengths:histogram:count 4063
scalar TwoHosts.hostA.eth.queue.dataQueue outgoingPacketLengths:histogram:sumweights 4063
scalar TwoHosts.hostA.eth.queue.dataQueue outgoingPacketLengths:histogram:mean 5148.2707359094265
scalar TwoHosts.hostA.eth.queue.dataQueue outgoingPacketLengths:histogram:stddev 4338.6674869516664
scalar TwoHosts.hostA.eth.queue.dataQueue outgoingPacketLengths:histogram:min 328
scalar TwoHosts.hostA.eth.queue.dataQueue outgoingPacketLengths:histogram:max 12136
scalar TwoHosts.hostA.eth.queue.dataQueue outgoingPacketLengths:histogram:numbins 76
scalar TwoHosts.hostA.eth.queue.dataQueue outgoingPacketLengths:histogram:rangemin 0
scalar TwoHosts.hostA.eth.queue.dataQueue outgoingPacketLengths:histogram:rangemax 15200
scalar TwoHosts.hostA.eth.queue.dataQueue outgoingPacketLengths:histogram:underflows 0
scalar TwoHosts.hostA.eth.queue.dataQueue outgoingPacketLengths:histogram:overflows 0
scalar TwoHosts.hostA.eth.queue.dataQueue flowQueueingTime:histogram:count 0
scalar TwoHosts.hostA.eth.queue.dataQueue flowQueueingTime:histogram:sumweights 0
scalar TwoHosts.hostA.eth.queue.dataQueue flowQueueingTime:histogram:mean -nan
scalar TwoHosts.hostA.eth.queue.dataQueue flowQueueingTime:histogram:stddev nan
scalar TwoHosts.hostA.eth.queue.dataQueue flowQueueingTime:histogram:min nan
scalar TwoHosts.hostA.eth.queue.dataQueue flowQueueingTime:histogram:max nan
scalar TwoHosts.hostA.eth.queue.dataQueue flowQueueingTime:histogram:numbins 1
scalar TwoHosts.hostA.eth.queue.dataQueue flowQueueingTime:histogram:rangemin 0
scalar TwoHosts.hostA.eth.queue.dataQueue flowQueueingTime:histogram:rangemax 1
scalar TwoHosts.hostA.eth.queue.dataQueue flowQueueingTime:histogram:underflows 0
scalar TwoHosts.hostA.eth.queue.dataQueue flowQueueingTime:histogram:overflows 0
scalar TwoHosts.hostA.eth.queue.dataQueue incomingPacketLengths:histogram:count 4079
scalar TwoHosts.hostA.eth.queue.dataQueue incomingPacketLengths:histogram:sumweights 4079
scalar TwoHosts.hostA.eth.queue.dataQueue incomingPacketLengths:histogram:mean 5141.564108850208
scalar TwoHosts.hostA.eth.queue.dataQueue incomingPacketLengths:histogram:stddev 4338.8917058577008
scalar TwoHosts.hostA.eth.queue.dataQueue incomingPacketLengths:histogram:min 328
scalar TwoHosts.hostA.eth.queue.dataQueue incomingPacketLengths:histogram:max 12136
scalar TwoHosts.hostA.eth.queue.dataQueue incomingPacketLengths:histogram:numbins 76
scalar TwoHosts.hostA.eth.queue.dataQueue incomingPacketLengths:histogram:rangemin 0
scalar TwoHosts.hostA.eth.queue.dataQueue incomingPacketLengths:histogram:rangemax 15200
scalar TwoHosts.hostA.eth.queue.dataQueue incomingPacketLengths:histogram:underflows 0
scalar TwoHosts.hostA.eth.queue.dataQueue incomingPacketLengths:histogram:overflows 0
scalar TwoHosts.hostA.eth.queue.scheduler packetLengths:histogram:count 4063
scalar TwoHosts.hostA.eth.queue.scheduler packetLengths:histogram:sumweights 4063
scalar TwoHosts.hostA.eth.queue.scheduler packetLengths:histogram:mean 5148.2707359094265
scalar TwoHosts.hostA.eth.queue.scheduler packetLengths:histogram:stddev 4338.6674869516664
scalar TwoHosts.hostA.eth.queue.scheduler packetLengths:histogram:min 328
scalar TwoHosts.hostA.eth.queue.scheduler packetLengths:histogram:max 12136
scalar TwoHosts.hostA.eth.queue.scheduler packetLengths:histogram:numbins 76
scalar TwoHosts.hostA.eth.queue.scheduler packetLengths:histogram:rangemin 0
scalar TwoHosts.hostA.eth.queue.scheduler packetLengths:histogram:rangemax 15200
scalar TwoHosts.hostA.eth.queue.scheduler packetLengths:histogram:underflows 0
scalar TwoHosts.hostA.eth.queue.scheduler packetLengths:histogram:overflows 0
scalar TwoHosts.hostA.eth.queue queueingTime:histogram:count 4063
scalar TwoHosts.hostA.eth.queue queueingTime:histogram:sumweights 4063
scalar TwoHosts.hostA.eth.queue queueingTime:histogram:mean 0
scalar TwoHosts.hostA.eth.queue queueingTime:histogram:stddev 0
scalar TwoHosts.hostA.eth.queue queueingTime:histogram:min 0
scalar TwoHosts.hostA.eth.queue queueingTime:histogram:max 0
scalar TwoHosts.hostA.eth.queue queueingTime:histogram:numbins 50
scalar TwoHosts.hostA.eth.queue queueingTime:histogram:rangemin -0.5
scalar TwoHosts.hostA.eth.queue queueingTime:histogram:rangemax 0.5
scalar TwoHosts.hostA.eth.queue queueingTime:histogram:underflows 0
scalar TwoHosts.hostA.eth.queue queueingTime:histogram:overflows 0
scalar TwoHosts.hostA.eth.queue outgoingPacketLengths:histogram:count 4063
scalar TwoHosts.hostA.eth.queue outgoingPacketLengths:histogram:sumweights 4063
scalar TwoHosts.hostA.eth.queue outgoingPacketLengths:histogram:mean 5148.2707359094265
scalar TwoHosts.hostA.eth.queue outgoingPacketLengths:histogram:stddev 4338.6674869516664
scalar TwoHosts.hostA.eth.queue outgoingPacketLengths:histogram:min 328
scalar TwoHosts.hostA.eth.queue outgoingPacketLengths:histogram:max 12136
scalar TwoHosts.hostA.eth.queue outgoingPacketLengths:histogram:numbins 76
scalar TwoHosts.hostA.eth.queue outgoingPacketLengths:histogram:rangemin 0
scalar TwoHosts.hostA.eth.queue outgoingPacketLengths:histogram:rangemax 15200
scalar TwoHosts.hostA.eth.queue outgoingPacketLengths:histogram:underflows 0
scalar TwoHosts.hostA.eth.queue outgoingPacketLengths:histogram:overflows 0
scalar TwoHosts.hostA.eth.queue flowQueueingTime:histogram:count 0
scalar TwoHosts.hostA.eth.queue flowQueueingTime:histogram:sumweights 0
scalar TwoHosts.hostA.eth.queue flowQueueingTime:histogram:mean -nan
scalar TwoHosts.hostA.eth.queue flowQueueingTime:histogram:stddev nan
scalar TwoHosts.hostA.eth.queue flowQueueingTime:histogram:min nan
scalar TwoHosts.hostA.eth.queue flowQueueingTime:histogram:max nan
scalar TwoHosts.hostA.eth.queue flowQueueingTime:histogram:numbins 1
scalar TwoHosts.hostA.eth.queue flowQueueingTime:histogram:rangemin 0
scalar TwoHosts.hostA.eth.queue flowQueueingTime:histogram:rangemax 1
scalar TwoHosts.hostA.eth.queue flowQueueingTime:histogram:underflows 0
scalar TwoHosts.hostA.eth.queue flowQueueingTime:histogram:overflows 0
scalar TwoHosts.hostA.eth.queue incomingPacketLengths:histogram:count 0
scalar TwoHosts.hostA.eth.queue incomingPacketLengths:histogram:sumweights 0
scalar TwoHosts.hostA.eth.queue incomingPacketLengths:histogram:mean -nan
scalar TwoHosts.hostA.eth.queue incomingPacketLengths:histogram:stddev nan
scalar TwoHosts.hostA.eth.queue incomingPacketLengths:histogram:min nan
scalar TwoHosts.hostA.eth.queue incomingPacketLengths:histogram:max nan
scalar TwoHosts.hostA.eth.queue incomingPacketLengths:histogram:numbins 1
scalar TwoHosts.hostA.eth.queue incomingPacketLengths:histogram:rangemin 0
scalar TwoHosts.hostA.eth.queue incomingPacketLengths:histogram:rangemax 1
scalar TwoHosts.hostA.eth.queue incomingPacketLengths:histogram:underflows 0
scalar TwoHosts.hostA.eth.queue incomingPacketLengths:histogram:overflows 0
scalar TwoHosts.hostB.app endToEndDelay:histogram:count 4062
scalar TwoHosts.hostB.app endToEndDelay:histogram:sumweights 4062
scalar TwoHosts.hostB.app endToEndDelay:histogram:mean 0.0028158747168882323
scalar TwoHosts.hostB.app endToEndDelay:histogram:stddev 0.0029681134259778802
scalar TwoHosts.hostB.app endToEndDelay:histogram:min 5.7649999999999999e-05
scalar TwoHosts.hostB.app endToEndDelay:histogram:max 0.02520725
scalar TwoHosts.hostB.app endToEndDelay:histogram:numbins 64
scalar TwoHosts.hostB.app endToEndDelay:histogram:rangemin 0
scalar TwoHosts.hostB.app endToEndDelay:histogram:rangemax 0.025599999999999998
scalar TwoHosts.hostB.app endToEndDelay:histogram:underflows 0
scalar TwoHosts.hostB.app endToEndDelay:histogram:overflows 0
scalar TwoHosts.hostB.eth.queue.classifier packetLengths:histogram:count 3869
scalar TwoHosts.hostB.eth.queue.classifier packetLengths:histogram:sumweights 3869
scalar TwoHosts.hostB.eth.queue.classifier packetLengths:histogram:mean 5252.9583871801497
scalar TwoHosts.hostB.eth.queue.classifier packetLengths:histogram:stddev 4381.5840453196461
scalar TwoHosts.hostB.eth.queue.classifier packetLengths:histogram:min 328
scalar TwoHosts.hostB.eth.queue.classifier packetLengths:histogram:max 12136
scalar TwoHosts.hostB.eth.queue.classifier packetLengths:histogram:numbins 76
scalar TwoHosts.hostB.eth.queue.classifier packetLengths:histogram:rangemin 0
scalar TwoHosts.hostB.eth.queue.classifier packetLengths:histogram:rangemax 15200
scalar TwoHosts.hostB.eth.queue.classifier packetLengths:histogram:underflows 0
scalar TwoHosts.hostB.eth.queue.classifier packetLengths:histogram:overflows 0
scalar TwoHosts.hostB.eth.queue.pauseQueue queueingTime:histogram:count 0
scalar TwoHosts.hostB.eth.queue.pauseQueue queueingTime:histogram:sumweights 0
scalar TwoHosts.hostB.eth.queue.pauseQueue queueingTime:histogram:mean -nan
scalar TwoHosts.hostB.eth.queue.pauseQueue queueingTime:histogram:stddev nan
scalar TwoHosts.hostB.eth.queue.pauseQueue queueingTime:histogram:min nan
scalar TwoHosts.hostB.eth.queue.pauseQueue queueingTime:histogram:max nan
scalar TwoHosts.hostB.eth.queue.pauseQueue queueingTime:histogram:numbins 1
scalar TwoHosts.hostB.eth.queue.pauseQueue queueingTime:histogram:rangemin 0
scalar TwoHosts.hostB.eth.queue.pauseQueue queueingTime:histogram:rangemax 1
scalar TwoHosts.hostB.eth.queue.pauseQueue queueingTime:histogram:underflows 0
scalar TwoHosts.hostB.eth.queue.pauseQueue queueingTime:histogram:overflows 0
scalar TwoHosts.hostB.eth.queue.pauseQueue outgoingPacketLengths:histogram:count 0
scalar TwoHosts.hostB.eth.queue.pauseQueue outgoingPacketLengths:histogram:sumweights 0
scalar TwoHosts.hostB.eth.queue.pauseQueue outgoingPacketLengths:histogram:mean -nan
scalar TwoHosts.hostB.eth.queue.pauseQueue outgoingPacketLengths:histogram:stddev nan
scalar TwoHosts.hostB.eth.queue.pauseQueue outgoingPacketLengths:histogram:min nan
scalar TwoHosts.hostB.eth.queue.pauseQueue outgoingPacketLengths:histogram:max nan
scalar TwoHosts.hostB.eth.queue.pauseQueue outgoingPacketLengths:histogram:numbins 1
scalar TwoHosts.hostB.eth.queue.pauseQueue outgoingPacketLengths:histogram:rangemin 0
scalar TwoHosts.hostB.eth.queue.pauseQueue outgoingPacketLengths:histogram:rangemax 1
scalar TwoHosts.hostB.eth.queue.pauseQueue outgoingPacketLengths:histogram:underflows 0
scalar TwoHosts.hostB.eth.queue.pauseQueue outgoingPacketLengths:histogram:overflows 0
scalar TwoHosts.hostB.eth.queue.pauseQueue flowQueueingTime:histogram:count 0
scalar TwoHosts.hostB.eth.queue.pauseQueue flowQueueingTime:histogram:sumweights 0
scalar TwoHosts.hostB.eth.queue.pauseQueue flowQueueingTime:histogram:mean -nan
scalar TwoHosts.hostB.eth.queue.pauseQueue flowQueueingTime:histogram:stddev nan
scalar TwoHosts.hostB.eth.queue.pauseQueue flowQueueingTime:histogram:min nan
scalar TwoHosts.hostB.eth.queue.pauseQueue flowQueueingTime:histogram:max nan
scalar TwoHosts.hostB.eth.queue.pauseQueue flowQueueingTime:histogram:numbins 1
scalar TwoHosts.hostB.eth.queue.pauseQueue flowQueueingTime:histogram:rangemin 0
scalar TwoHosts.hostB.eth.queue.pauseQueue flowQueueingTime:histogram:rangemax 1
scalar TwoHosts.hostB.eth.queue.pauseQueue flowQueueingTime:histogram:underflows 0
scalar TwoHosts.hostB.eth.queue.pauseQueue flowQueueingTime:histogram:overflows 0
scalar TwoHosts.hostB.eth.queue.pauseQueue incomingPacketLengths:histogram:count 0
scalar TwoHosts.hostB.eth.queue.pauseQueue incomingPacketLengths:histogram:sumweights 0
scalar TwoHosts.hostB.eth.queue.pauseQueue incomingPacketLengths:histogram:mean -nan
scalar TwoHosts.hostB.eth.queue.pauseQueue incomingPacketLengths:histogram:stddev nan
scalar TwoHosts.hostB.eth.queue.pauseQueue incomingPacketLengths:histogram:min nan
scalar TwoHosts.hostB.eth.queue.pauseQueue incomingPacketLengths:histogram:max nan
scalar TwoHosts.hostB.eth.queue.pauseQueue incomingPacketLengths:histogram:numbins 1
scalar TwoHosts.hostB.eth.queue.pauseQueue incomingPacketLengths:histogram:rangemin 0
scalar TwoHosts.hostB.eth.queue.pauseQueue incomingPacketLengths:histogram:rangemax 1
scalar TwoHosts.hostB.eth.queue.pauseQueue incomingPacketLengths:histogram:underflows 0
scalar TwoHosts.hostB.eth.queue.pauseQueue incomingPacketLengths:histogram:overflows 0
scalar TwoHosts.hostB.eth.queue.dataQueue queueingTime:histogram:count 3865
scalar TwoHosts.hostB.eth.queue.dataQueue queueingTime:histogram:sumweights 3865
scalar TwoHosts.hostB.eth.queue.dataQueue queueingTime:histogram:mean 0.0021289953945666279
scalar TwoHosts.hostB.eth.queue.dataQueue queueingTime:histogram:stddev 0.0026486320945122268
scalar TwoHosts.hostB.eth.queue.dataQueue queueingTime:histogram:min 0
scalar TwoHosts.hostB.eth.queue.dataQueue queueingTime:histogram:max 0.020116800000000001
scalar TwoHosts.hostB.eth.queue.dataQueue queueingTime:histogram:numbins 51
scalar TwoHosts.hostB.eth.queue.dataQueue queueingTime:histogram:rangemin 0
scalar TwoHosts.hostB.eth.queue.dataQueue queueingTime:histogram:rangemax 0.020400000000000001
scalar TwoHosts.hostB.eth.queue.dataQueue queueingTime:histogram:underflows 0
scalar TwoHosts.hostB.eth.queue.dataQueue queueingTime:histogram:overflows 0
scalar TwoHosts.hostB.eth.queue.dataQueue outgoingPacketLengths:histogram:count 3865
scalar TwoHosts.hostB.eth.queue.dataQueue outgoingPacketLengths:histogram:sumweights 3865
scalar TwoHosts.hostB.eth.queue.dataQueue outgoingPacketLengths:histogram:mean 5252.5288486416557
scalar TwoHosts.hostB.eth.queue.dataQueue outgoingPacketLengths:histogram:stddev 4382.9583576111181
scalar TwoHosts.hostB.eth.queue.dataQueue outgoingPacketLengths:histogram:min 328
scalar TwoHosts.hostB.eth.queue.dataQueue outgoingPacketLengths:histogram:max 12136
scalar TwoHosts.hostB.eth.queue.dataQueue outgoingPacketLengths:histogram:numbins 76
scalar TwoHosts.hostB.eth.queue.dataQueue outgoingPacketLengths:histogram:rangemin 0
scalar TwoHosts.hostB.eth.queue.dataQueue outgoingPacketLengths:histogram:rangemax 15200
scalar TwoHosts.hostB.eth.queue.dataQueue outgoingPacketLengths:histogram:underflows 0
scalar TwoHosts.hostB.eth.queue.dataQueue outgoingPacketLengths:histogram:overflows 0
scalar TwoHosts.hostB.eth.queue.dataQueue flowQueueingTime:histogram:count 0
scalar TwoHosts.hostB.eth.queue.dataQueue flowQueueingTime:histogram:sumweights 0
scalar TwoHosts.hostB.eth.queue.dataQueue flowQueueingTime:histogram:mean -nan
scalar TwoHosts.hostB.eth.queue.dataQueue flowQueueingTime:histogram:stddev nan
scalar TwoHosts.hostB.eth.queue.dataQueue flowQueueingTime:histogram:min nan
scalar TwoHosts.hostB.eth.queue.dataQueue flowQueueingTime:histogram:max nan
scalar TwoHosts.hostB.eth.queue.dataQueue flowQueueingTime:histogram:numbins 1
scalar TwoHosts.hostB.eth.queue.dataQueue flowQueueingTime:histogram:rangemin 0
scalar TwoHosts.hostB.eth.queue.dataQueue flowQueueingTime:histogram:rangemax 1
scalar TwoHosts.hostB.eth.queue.dataQueue flowQueueingTime:histogram:underflows 0
scalar TwoHosts.hostB.eth.queue.dataQueue flowQueueingTime:histogram:overflows 0
scalar TwoHosts.hostB.eth.queue.dataQueue incomingPacketLengths:histogram:count 3869
scalar TwoHosts.hostB.eth.queue.dataQueue incomingPacketLengths:histogram:sumweights 3869
scalar TwoHosts.hostB.eth.queue.dataQueue incomingPacketLengths:histogram:mean 5252.9583871801497
scalar TwoHosts.hostB.eth.queue.dataQueue incomingPacketLengths:histogram:stddev 4381.5840453196461
scalar TwoHosts.hostB.eth.queue.dataQueue incomingPacketLengths:histogram:min 328
scalar TwoHosts.hostB.eth.queue.dataQueue incomingPacketLengths:histogram:max 12136
scalar TwoHosts.hostB.eth.queue.dataQueue incomingPacketLengths:histogram:numbins 76
scalar TwoHosts.hostB.eth.queue.dataQueue incomingPacketLengths:histogram:rangemin 0
scalar TwoHosts.hostB.eth.queue.dataQueue incomingPacketLengths:histogram:rangemax 15200
scalar TwoHosts.hostB.eth.queue.dataQueue incomingPacketLengths:histogram:underflows 0
scalar TwoHosts.hostB.eth.queue.dataQueue incomingPacketLengths:histogram:overflows 0
scalar TwoHosts.hostB.eth.queue.scheduler packetLengths:histogram:count 3865
scalar TwoHosts.hostB.eth.queue.scheduler packetLengths:histogram:sumweights 3865
scalar TwoHosts.hostB.eth.queue.scheduler packetLengths:histogram:mean 5252.5288486416557
scalar TwoHosts.hostB.eth.queue.scheduler packetLengths:histogram:stddev 4382.9583576111181
scalar TwoHosts.hostB.eth.queue.scheduler packetLengths:histogram:min 328
scalar TwoHosts.hostB.eth.queue.scheduler packetLengths:histogram:max 12136
scalar TwoHosts.hostB.eth.queue.scheduler packetLengths:histogram:numbins 76
scalar TwoHosts.hostB.eth.queue.scheduler packetLengths:histogram:rangemin 0
scalar TwoHosts.hostB.eth.queue.scheduler packetLengths:histogram:rangemax 15200
scalar TwoHosts.hostB.eth.queue.scheduler packetLengths:histogram:underflows 0
scalar TwoHosts.hostB.eth.queue.scheduler packetLengths:histogram:overflows 0
scalar TwoHosts.hostB.eth.queue queueingTime:histogram:count 3865
scalar TwoHosts.hostB.eth.queue queueingTime:histogram:sumweights 3865
scalar TwoHosts.hostB.eth.queue queueingTime:histogram:mean 0
scalar TwoHosts.hostB.eth.queue queueingTime:histogram:stddev 0
scalar TwoHosts.hostB.eth.queue queueingTime:histogram:min 0
scalar TwoHosts.hostB.eth.queue queueingTime:histogram:max 0
scalar TwoHosts.hostB.eth.queue queueingTime:histogram:numbins 50
scalar TwoHosts.hostB.eth.queue queueingTime:histogram:rangemin -0.5
scalar TwoHosts.hostB.eth.queue queueingTime:histogram:rangemax 0.5
scalar TwoHosts.hostB.eth.queue queueingTime:histogram:underflows 0
scalar TwoHosts.hostB.eth.queue queueingTime:histogram:overflows 0
scalar TwoHosts.hostB.eth.queue outgoingPacketLengths:histogram:count 3865
scalar TwoHosts.hostB.eth.queue outgoingPacketLengths:histogram:sumweights 3865
scalar TwoHosts.hostB.eth.queue outgoingPacketLengths:histogram:mean 5252.5288486416557
scalar TwoHosts.hostB.eth.queue outgoingPacketLengths:histogram:stddev 4382.9583576111181
scalar TwoHosts.hostB.eth.queue outgoingPacketLengths:histogram:min 328
scalar TwoHosts.hostB.eth.queue outgoingPacketLengths:histogram:max 12136
scalar TwoHosts.hostB.eth.queue outgoingPacketLengths:histogram:numbins 76
scalar TwoHosts.hostB.eth.queue outgoingPacketLengths:histogram:rangemin 0
scalar TwoHosts.hostB.eth.queue outgoingPacketLengths:histogram:rangemax 15200
scalar TwoHosts.hostB.eth.queue outgoingPacketLengths:histogram:underflows 0
scalar TwoHosts.hostB.eth.queue outgoingPacketLengths:histogram:overflows 0
scalar TwoHosts.hostB.eth.queue flowQueueingTime:histogram:count 0
scalar TwoHosts.hostB.eth.queue flowQueueingTime:histogram:sumweights 0
scalar TwoHosts.hostB.eth.queue flowQueueingTime:histogram:mean -nan
scalar TwoHosts.hostB.eth.queue flowQueueingTime:histogram:stddev nan
scalar TwoHosts.hostB.eth.queue flowQueueingTime:histogram:min nan
scalar TwoHosts.hostB.eth.queue flowQueueingTime:histogram:max nan
scalar TwoHosts.hostB.eth.queue flowQueueingTime:histogram:numbins 1
scalar TwoHosts.hostB.eth.queue flowQueueingTime:histogram:rangemin 0
scalar TwoHosts.hostB.eth.queue flowQueueingTime:histogram:rangemax 1
scalar TwoHosts.hostB.eth.queue flowQueueingTime:histogram:underflows 0
scalar TwoHosts.hostB.eth.queue flowQueueingTime:histogram:overflows 0
scalar TwoHosts.hostB.eth.queue incomingPacketLengths:histogram:count 0
scalar TwoHosts.hostB.eth.queue incomingPacketLengths:histogram:sumweights 0
scalar TwoHosts.hostB.eth.queue incomingPacketLengths:histogram:mean -nan
scalar TwoHosts.hostB.eth.queue incomingPacketLengths:histogram:stddev nan
scalar TwoHosts.hostB.eth.queue incomingPacketLengths:histogram:min nan
scalar TwoHosts.hostB.eth.queue incomingPacketLengths:histogram:max nan
scalar TwoHosts.hostB.eth.queue incomingPacketLengths:histogram:numbins 1
scalar TwoHosts.hostB.eth.queue incomingPacketLengths:histogram:rangemin 0
scalar TwoHosts.hostB.eth.queue incomingPacketLengths:histogram:rangemax 1
scalar TwoHosts.hostB.eth.queue incomingPacketLengths:histogram:underflows 0
scalar TwoHosts.hostB.eth.queue incomingPacketLengths:histogram:overflows 0
statistic TwoHosts.hostA.app endToEndDelay:histogram
field count 3864
field mean 0.0026628717391304277
field stddev 0.0026798141140196032
field min 5.7649999999999999e-05
field max 0.020524850000000001
field sum 10.289336399999973
field sqrsum 0.055140945551819913
bin	-inf	0
bin	0	382
bin	0.00040000000000000002	444
bin	0.00080000000000000004	512
bin	0.0012000000000000001	399
bin	0.0016000000000000001	283
bin	0.002	295
bin	0.0024000000000000002	245
bin	0.0028	193
bin	0.0032000000000000002	168
bin	0.0036000000000000003	140
bin	0.0040000000000000001	108
bin	0.0044000000000000003	103
bin	0.0048000000000000004	78
bin	0.0052000000000000006	67
bin	0.0055999999999999999	48
bin	0.0060000000000000001	45
bin	0.0064000000000000003	61
bin	0.0068000000000000005	46
bin	0.0072000000000000007	26
bin	0.0076	23
bin	0.0080000000000000002	27
bin	0.0083999999999999995	25
bin	0.0087999999999999988	18
bin	0.0091999999999999981	12
bin	0.0095999999999999974	12
bin	0.0099999999999999985	14
bin	0.010399999999999998	11
bin	0.010799999999999999	9
bin	0.011199999999999998	5
bin	0.011599999999999999	10
bin	0.011999999999999999	5
bin	0.012399999999999998	8
bin	0.012799999999999997	7
bin	0.013199999999999996	4
bin	0.013599999999999998	5
bin	0.013999999999999997	5
bin	0.014399999999999996	6
bin	0.014799999999999997	4
bin	0.015199999999999997	0
bin	0.015599999999999996	1
bin	0.015999999999999997	0
bin	0.016399999999999998	0
bin	0.016799999999999995	1
bin	0.017199999999999997	2
bin	0.017599999999999998	2
bin	0.017999999999999999	0
bin	0.0184	0
bin	0.018799999999999997	1
bin	0.019199999999999998	0
bin	0.019599999999999999	2
bin	0.019999999999999997	1
bin	0.020399999999999998	1
bin	0.020799999999999999	0
statistic TwoHosts.hostA.eth.queue.classifier packetLengths:histogram
field count 4079
field mean 5141.564108850208
field stddev 4338.8917058577008
field min 328
field max 12136
field sum 20972440
field sqrsum 184603496256
bin	-inf	0
bin	0	0
bin	200	237
bin	400	700
bin	600	448
bin	800	0
bin	1000	0
bin	1200	0
bin	1400	0
bin	1600	0
bin	1800	0
bin	2000	0
bin	2200	0
bin	2400	0
bin	2600	0
bin	2800	0
bin	3000	0
bin	3200	0
bin	3400	0
bin	3600	0
bin	3800	169
bin	4000	862
bin	4200	320
bin	4400	0
bin	4600	0
bin	4800	0
bin	5000	0
bin	5200	0
bin	5400	0
bin	5600	0
bin	5800	0
bin	6000	0
bin	6200	0
bin	6400	0
bin	6600	0
bin	6800	0
bin	7000	0
bin	7200	0
bin	7400	0
bin	7600	0
bin	7800	0
bin	8000	0
bin	8200	0
bin	8400	0
bin	8600	0
bin	8800	0
bin	9000	0
bin	9200	0
bin	9400	0
bin	9600	14
bin	9800	133
bin	10000	114
bin	10200	92
bin	10400	116
bin	10600	123
bin	10800	125
bin	11000	115
bin	11200	100
bin	11400	107
bin	11600	102
bin	11800	118
bin	12000	84
bin	12200	0
bin	12400	0
bin	12600	0
bin	12800	0
bin	13000	0
bin	13200	0
bin	13400	0
bin	13600	0
bin	13800	0
bin	14000	0
bin	14200	0
bin	14400	0
bin	14600	0
bin	14800	0
bin	15000	0
bin	15200	0
statistic TwoHosts.hostA.eth.queue.pauseQueue queueingTime:histogram
field count 0
field mean -nan
field stddev nan
field min nan
field max nan
field sum 0
field sqrsum 0
bin	-inf	0
bin	0	0
bin	1	0
statistic TwoHosts.hostA.eth.queue.pauseQueue outgoingPacketLengths:histogram
field count 0
field mean -nan
field stddev nan
field min nan
field max nan
field sum 0
field sqrsum 0
bin	-inf	0
bin	0	0
bin	1	0
statistic TwoHosts.hostA.eth.queue.pauseQueue flowQueueingTime:histogram
field count 0
field mean -nan
field stddev nan
field min nan
field max nan
field sum 0
field sqrsum 0
bin	-inf	0
bin	0	0
bin	1	0
statistic TwoHosts.hostA.eth.queue.pauseQueue incomingPacketLengths:histogram
field count 0
field mean -nan
field stddev nan
field min nan
field max nan
field sum 0
field sqrsum 0
bin	-inf	0
bin	0	0
bin	1	0
statistic TwoHosts.hostA.eth.queue.dataQueue queueingTime:histogram
field count 4063
field mean 0.0022924361309377386
field stddev 0.0029450421558825154
field min 0
field max 0.024057599999999998
field sum 9.3141680000000324
field sqrsum 0.056582971397120069
bin	-inf	0
bin	0	1101
bin	0.00040000000000000002	384
bin	0.00080000000000000004	434
bin	0.0012000000000000001	332
bin	0.0016000000000000001	209
bin	0.002	257
bin	0.0024000000000000002	191
bin	0.0028	141
bin	0.0032000000000000002	122
bin	0.0036000000000000003	111
bin	0.0040000000000000001	100
bin	0.0044000000000000003	98
bin	0.0048000000000000004	73
bin	0.0052000000000000006	60
bin	0.0055999999999999999	67
bin	0.0060000000000000001	44
bin	0.0064000000000000003	47
bin	0.0068000000000000005	39
bin	0.0072000000000000007	33
bin	0.0076	34
bin	0.0080000000000000002	20
bin	0.0084000000000000012	26
bin	0.0088000000000000005	20
bin	0.0091999999999999998	12
bin	0.0096000000000000009	11
bin	0.01	10
bin	0.0104	8
bin	0.010800000000000001	5
bin	0.0112	10
bin	0.011599999999999999	9
bin	0.012	2
bin	0.0124	2
bin	0.012799999999999999	6
bin	0.0132	3
bin	0.013599999999999999	1
bin	0.013999999999999999	3
bin	0.0144	3
bin	0.014799999999999999	2
bin	0.015199999999999998	1
bin	0.015599999999999998	1
bin	0.015999999999999997	4
bin	0.016399999999999998	2
bin	0.016799999999999999	3
bin	0.0172	0
bin	0.017600000000000001	1
bin	0.017999999999999999	2
bin	0.0184	0
bin	0.018800000000000001	1
bin	0.019199999999999998	3
bin	0.019599999999999999	1
bin	0.02	0
bin	0.020400000000000001	1
bin	0.020799999999999999	5
bin	0.0212	2
bin	0.021600000000000001	0
bin	0.022000000000000002	0
bin	0.0224	3
bin	0.022800000000000001	0
bin	0.023200000000000002	1
bin	0.023599999999999999	1
bin	0.024	1
bin	0.024400000000000002	0
statistic TwoHosts.hostA.eth.queue.dataQueue outgoingPacketLengths:histogram
field count 4063
field mean 5148.2707359094265
field stddev 4338.6674869516664
field min 328
field max 12136
field sum 20917424
field sqrsum 184151794304
bin	-inf	0
bin	0	0
bin	200	235
bin	400	698
bin	600	443
bin	800	0
bin	1000	0
bin	1200	0
bin	1400	0
bin	1600	0
bin	1800	0
bin	2000	0
bin	2200	0
bin	2400	0
bin	2600	0
bin	2800	0
bin	3000	0
bin	3200	0
bin	3400	0
bin	3600	0
bin	3800	168
bin	4000	860
bin	4200	319
bin	4400	0
bin	4600	0
bin	4800	0
bin	5000	0
bin	5200	0
bin	5400	0
bin	5600	0
bin	5800	0
bin	6000	0
bin	6200	0
bin	6400	0
bin	6600	0
bin	6800	0
bin	7000	0
bin	7200	0
bin	7400	0
bin	7600	0
bin	7800	0
bin	8000	0
bin	8200	0
bin	8400	0
bin	8600	0
bin	8800	0
bin	9000	0
bin	9200	0
bin	9400	0
bin	9600	14
bin	9800	133
bin	10000	114
bin	10200	92
bin	10400	116
bin	10600	122
bin	10800	125
bin	11000	114
bin	11200	100
bin	11400	107
bin	11600	102
bin	11800	117
bin	12000	84
bin	12200	0
bin	12400	0
bin	12600	0
bin	12800	0
bin	13000	0
bin	13200	0
bin	13400	0
bin	13600	0
bin	13800	0
bin	14000	0
bin	14200	0
bin	14400	0
bin	14600	0
bin	14800	0
bin	15000	0
bin	15200	0
statistic TwoHosts.hostA.eth.queue.dataQueue flowQueueingTime:histogram
field count 0
field mean -nan
field stddev nan
field min nan
field max nan
field sum 0
field sqrsum 0
bin	-inf	0
bin	0	0
bin	1	0
statistic TwoHosts.hostA.eth.queue.dataQueue incomingPacketLengths:histogram
field count 4079
field mean 5141.564108850208
field stddev 4338.8917058577008
field min 328
field max 12136
field sum 20972440
field sqrsum 184603496256
bin	-inf	0
bin	0	0
bin	200	237
bin	400	700
bin	600	448
bin	800	0
bin	1000	0
bin	1200	0
bin	1400	0
bin	1600	0
bin	1800	0
bin	2000	0
bin	2200	0
bin	2400	0
bin	2600	0
bin	2800	0
bin	3000	0
bin	3200	0
bin	3400	0
bin	3600	0
bin	3800	169
bin	4000	862
bin	4200	320
bin	4400	0
bin	4600	0
bin	4800	0
bin	5000	0
bin	5200	0
bin	5400	0
bin	5600	0
bin	5800	0
bin	6000	0
bin	6200	0
bin	6400	0
bin	6600	0
bin	6800	0
bin	7000	0
bin	7200	0
bin	7400	0
bin	7600	0
bin	7800	0
bin	8000	0
bin	8200	0
bin	8400	0
bin	8600	0
bin	8800	0
bin	9000	0
bin	9200	0
bin	9400	0
bin	9600	14
bin	9800	133
bin	10000	114
bin	10200	92
bin	10400	116
bin	10600	123
bin	10800	125
bin	11000	115
bin	11200	100
bin	11400	107
bin	11600	102
bin	11800	118
bin	12000	84
bin	12200	0
bin	12400	0
bin	12600	0
bin	12800	0
bin	13000	0
bin	13200	0
bin	13400	0
bin	13600	0
bin	13800	0
bin	14000	0
bin	14200	0
bin	14400	0
bin	14600	0
bin	14800	0
bin	15000	0
bin	15200	0
statistic TwoHosts.hostA.eth.queue.scheduler packetLengths:histogram
field count 4063
field mean 5148.2707359094265
field stddev 4338.6674869516664
field min 328
field max 12136
field sum 20917424
field sqrsum 184151794304
bin	-inf	0
bin	0	0
bin	200	235
bin	400	698
bin	600	443
bin	800	0
bin	1000	0
bin	1200	0
bin	1400	0
bin	1600	0
bin	1800	0
bin	2000	0
bin	2200	0
bin	2400	0
bin	2600	0
bin	2800	0
bin	3000	0
bin	3200	0
bin	3400	0
bin	3600	0
bin	3800	168
bin	4000	860
bin	4200	319
bin	4400	0
bin	4600	0
bin	4800	0
bin	5000	0
bin	5200	0
bin	5400	0
bin	5600	0
bin	5800	0
bin	6000	0
bin	6200	0
bin	6400	0
bin	6600	0
bin	6800	0
bin	7000	0
bin	7200	0
bin	7400	0
bin	7600	0
bin	7800	0
bin	8000	0
bin	8200	0
bin	8400	0
bin	8600	0
bin	8800	0
bin	9000	0
bin	9200	0
bin	9400	0
bin	9600	14
bin	9800	133
bin	10000	114
bin	10200	92
bin	10400	116
bin	10600	122
bin	10800	125
bin	11000	114
bin	11200	100
bin	11400	107
bin	11600	102
bin	11800	117
bin	12000	84
bin	12200	0
bin	12400	0
bin	12600	0
bin	12800	0
bin	13000	0
bin	13200	0
bin	13400	0
bin	13600	0
bin	13800	0
bin	14000	0
bin	14200	0
bin	14400	0
bin	14600	0
bin	14800	0
bin	15000	0
bin	15200	0
statistic TwoHosts.hostA.eth.queue queueingTime:histogram
field count 4063
field mean 0
field stddev 0
field min 0
field max 0
field sum 0
field sqrsum 0
bin	-inf	0
bin	-0.5	0
bin	-0.47999999999999998	0
bin	-0.46000000000000002	0
bin	-0.44	0
bin	-0.41999999999999998	0
bin	-0.40000000000000002	0
bin	-0.38	0
bin	-0.35999999999999999	0
bin	-0.33999999999999997	0
bin	-0.32000000000000001	0
bin	-0.29999999999999999	0
bin	-0.28000000000000003	0
bin	-0.26000000000000001	0
bin	-0.23999999999999999	0
bin	-0.21999999999999997	0
bin	-0.20000000000000001	0
bin	-0.17999999999999999	0
bin	-0.15999999999999998	0
bin	-0.14000000000000001	0
bin	-0.12	0
bin	-0.099999999999999978	0
bin	-0.080000000000000016	0
bin	-0.059999999999999998	0
bin	-0.03999999999999998	0
bin	-0.020000000000000018	0
bin	0	4063
bin	0.020000000000000018	0
bin	0.040000000000000036	0
bin	0.060000000000000053	0
bin	0.07999999999999996	0
bin	0.099999999999999978	0
bin	0.12	0
bin	0.14000000000000001	0
bin	0.16000000000000003	0
bin	0.18000000000000005	0
bin	0.20000000000000007	0
bin	0.21999999999999997	0
bin	0.23999999999999999	0
bin	0.26000000000000001	0
bin	0.28000000000000003	0
bin	0.30000000000000004	0
bin	0.32000000000000006	0
bin	0.33999999999999997	0
bin	0.35999999999999999	0
bin	0.38	0
bin	0.40000000000000002	0
bin	0.42000000000000004	0
bin	0.44000000000000006	0
bin	0.45999999999999996	0
bin	0.47999999999999998	0
bin	0.5	0
statistic TwoHosts.hostA.eth.queue outgoingPacketLengths:histogram
field count 4063
field mean 5148.2707359094265
field stddev 4338.6674869516664
field min 328
field max 12136
field sum 20917424
field sqrsum 184151794304
bin	-inf	0
bin	0	0
bin	200	235
bin	400	698
bin	600	443
bin	800	0
bin	1000	0
bin	1200	0
bin	1400	0
bin	1600	0
bin	1800	0
bin	2000	0
bin	2200	0
bin	2400	0
bin	2600	0
bin	2800	0
bin	3000	0
bin	3200	0
bin	3400	0
bin	3600	0
bin	3800	168
bin	4000	860
bin	4200	319
bin	4400	0
bin	4600	0
bin	4800	0
bin	5000	0
bin	5200	0
bin	5400	0
bin	5600	0
bin	5800	0
bin	6000	0
bin	6200	0
bin	6400	0
bin	6600	0
bin	6800	0
bin	7000	0
bin	7200	0
bin	7400	0
bin	7600	0
bin	7800	0
bin	8000	0
bin	8200	0
bin	8400	0
bin	8600	0
bin	8800	0
bin	9000	0
bin	9200	0
bin	9400	0
bin	9600	14
bin	9800	133
bin	10000	114
bin	10200	92
bin	10400	116
bin	10600	122
bin	10800	125
bin	11000	114
bin	11200	100
bin	11400	107
bin	11600	102
bin	11800	117
bin	12000	84
bin	12200	0
bin	12400	0
bin	12600	0
bin	12800	0
bin	13000	0
bin	13200	0
bin	13400	0
bin	13600	0
bin	13800	0
bin	14000	0
bin	14200	0
bin	14400	0
bin	14600	0
bin	14800	0
bin	15000	0
bin	15200	0
statistic TwoHosts.hostA.eth.queue flowQueueingTime:histogram
field count 0
field mean -nan
field stddev nan
field min nan
field max nan
field sum 0
field sqrsum 0
bin	-inf	0
bin	0	0
bin	1	0
statistic TwoHosts.hostA.eth.queue incomingPacketLengths:histogram
field count 0
field mean -nan
field stddev nan
field min nan
field max nan
field sum 0
field sqrsum 0
bin	-inf	0
bin	0	0
bin	1	0
statistic TwoHosts.hostB.app endToEndDelay:histogram
field count 4062
field mean 0.0028158747168882323
field stddev 0.0029681134259778802
field min 5.7649999999999999e-05
field max 0.02520725
field sum 11.4380831
field sqrsum 0.067984389784714855
bin	-inf	0
bin	0	364
bin	0.00040000000000000002	474
bin	0.00080000000000000004	544
bin	0.0012000000000000001	423
bin	0.0016000000000000001	264
bin	0.002	329
bin	0.0024000000000000002	240
bin	0.0028	181
bin	0.0032000000000000002	169
bin	0.0036000000000000003	147
bin	0.0040000000000000001	115
bin	0.0044000000000000003	110
bin	0.0048000000000000004	84
bin	0.0052000000000000006	75
bin	0.0055999999999999999	82
bin	0.0060000000000000001	55
bin	0.0064000000000000003	57
bin	0.0068000000000000005	45
bin	0.0072000000000000007	38
bin	0.0076	38
bin	0.0080000000000000002	25
bin	0.0084000000000000012	33
bin	0.0088000000000000005	26
bin	0.0091999999999999998	14
bin	0.0096000000000000009	13
bin	0.01	15
bin	0.010400000000000001	8
bin	0.010800000000000001	7
bin	0.0112	13
bin	0.011600000000000001	10
bin	0.012	3
bin	0.012400000000000001	4
bin	0.012800000000000001	6
bin	0.0132	3
bin	0.013599999999999999	3
bin	0.014	3
bin	0.0144	3
bin	0.014799999999999999	3
bin	0.015199999999999998	2
bin	0.015599999999999998	1
bin	0.015999999999999997	4
bin	0.016399999999999994	2
bin	0.016799999999999995	3
bin	0.017199999999999997	0
bin	0.017599999999999998	1
bin	0.017999999999999995	2
bin	0.018399999999999996	0
bin	0.018799999999999997	1
bin	0.019199999999999995	3
bin	0.019599999999999996	1
bin	0.019999999999999997	0
bin	0.020399999999999998	1
bin	0.020799999999999996	5
bin	0.021199999999999997	3
bin	0.021599999999999998	0
bin	0.021999999999999999	0
bin	0.022399999999999996	3
bin	0.022799999999999997	1
bin	0.023199999999999998	0
bin	0.023599999999999999	1
bin	0.023999999999999997	1
bin	0.024399999999999998	0
bin	0.024799999999999999	0
bin	0.025199999999999997	1
bin	0.025599999999999998	0
statistic TwoHosts.hostB.eth.queue.classifier packetLengths:histogram
field count 3869
field mean 5252.9583871801497
field stddev 4381.5840453196461
field min 328
field max 12136
field sum 20323696
field sqrsum 181018471552
bin	-inf	0
bin	0	0
bin	200	244
bin	400	628
bin	600	424
bin	800	0
bin	1000	0
bin	1200	0
bin	1400	0
bin	1600	0
bin	1800	0
bin	2000	0
bin	2200	0
bin	2400	0
bin	2600	0
bin	2800	0
bin	3000	0
bin	3200	0
bin	3400	0
bin	3600	0
bin	3800	159
bin	4000	784
bin	4200	303
bin	4400	0
bin	4600	0
bin	4800	0
bin	5000	0
bin	5200	0
bin	5400	0
bin	5600	0
bin	5800	0
bin	6000	0
bin	6200	0
bin	6400	0
bin	6600	0
bin	6800	0
bin	7000	0
bin	7200	0
bin	7400	0
bin	7600	0
bin	7800	0
bin	8000	0
bin	8200	0
bin	8400	0
bin	8600	0
bin	8800	0
bin	9000	0
bin	9200	0
bin	9400	0
bin	9600	26
bin	9800	118
bin	10000	112
bin	10200	106
bin	10400	123
bin	10600	117
bin	10800	101
bin	11000	100
bin	11200	97
bin	11400	106
bin	11600	122
bin	11800	112
bin	12000	87
bin	12200	0
bin	12400	0
bin	12600	0
bin	12800	0
bin	13000	0
bin	13200	0
bin	13400	0
bin	13600	0
bin	13800	0
bin	14000	0
bin	14200	0
bin	14400	0
bin	14600	0
bin	14800	0
bin	15000	0
bin	15200	0
statistic TwoHosts.hostB.eth.queue.pauseQueue queueingTime:histogram
field count 0
field mean -nan
field stddev nan
field min nan
field max nan
field sum 0
field sqrsum 0
bin	-inf	0
bin	0	0
bin	1	0
statistic TwoHosts.hostB.eth.queue.pauseQueue outgoingPacketLengths:histogram
field count 0
field mean -nan
field stddev nan
field min nan
field max nan
field sum 0
field sqrsum 0
bin	-inf	0
bin	0	0
bin	1	0
statistic TwoHosts.hostB.eth.queue.pauseQueue flowQueueingTime:histogram
field count 0
field mean -nan
field stddev nan
field min nan
field max nan
field sum 0
field sqrsum 0
bin	-inf	0
bin	0	0
bin	1	0
statistic TwoHosts.hostB.eth.queue.pauseQueue incomingPacketLengths:histogram
field count 0
field mean -nan
field stddev nan
field min nan
field max nan
field sum 0
field sqrsum 0
bin	-inf	0
bin	0	0
bin	1	0
statistic TwoHosts.hostB.eth.queue.dataQueue queueingTime:histogram
field count 3865
field mean 0.0021289953945666279
field stddev 0.0026486320945122268
field min 0
field max 0.020116800000000001
field sum 8.2285672000000165
field sqrsum 0.044625515292800039
bin	-inf	0
bin	0	1093
bin	0.00040000000000000002	362
bin	0.00080000000000000004	389
bin	0.0012000000000000001	340
bin	0.0016000000000000001	227
bin	0.002	232
bin	0.0024000000000000002	187
bin	0.0028	147
bin	0.0032000000000000002	142
bin	0.0036000000000000003	105
bin	0.0040000000000000001	75
bin	0.0044000000000000003	86
bin	0.0048000000000000004	62
bin	0.0052000000000000006	52
bin	0.0055999999999999999	43
bin	0.0060000000000000001	36
bin	0.0064000000000000003	46
bin	0.0068000000000000005	39
bin	0.0072000000000000007	22
bin	0.0076	19
bin	0.0080000000000000002	22
bin	0.0083999999999999995	19
bin	0.0087999999999999988	13
bin	0.0091999999999999998	10
bin	0.0096000000000000009	8
bin	0.01	10
bin	0.0104	11
bin	0.010800000000000001	8
bin	0.0112	5
bin	0.011599999999999999	9
bin	0.012	4
bin	0.0124	8
bin	0.012799999999999999	6
bin	0.013199999999999998	3
bin	0.013599999999999999	5
bin	0.014	4
bin	0.0144	4
bin	0.014799999999999999	2
bin	0.0152	0
bin	0.015599999999999999	1
bin	0.016	0
bin	0.016400000000000001	0
bin	0.016799999999999999	1
bin	0.0172	2
bin	0.017600000000000001	2
bin	0.018000000000000002	0
bin	0.018400000000000003	0
bin	0.018800000000000001	1
bin	0.019200000000000002	0
bin	0.019600000000000003	2
bin	0.02	1
bin	0.020400000000000001	0
statistic TwoHosts.hostB.eth.queue.dataQueue outgoingPacketLengths:histogram
field count 3865
field mean 5252.5288486416557
field stddev 4382.9583576111181
field min 328
field max 12136
field sum 20301024
field sqrsum 180860406016
bin	-inf	0
bin	0	0
bin	200	244
bin	400	628
bin	600	424
bin	800	0
bin	1000	0
bin	1200	0
bin	1400	0
bin	1600	0
bin	1800	0
bin	2000	0
bin	2200	0
bin	2400	0
bin	2600	0
bin	2800	0
bin	3000	0
bin	3200	0
bin	3400	0
bin	3600	0
bin	3800	159
bin	4000	781
bin	4200	303
bin	4400	0
bin	4600	0
bin	4800	0
bin	5000	0
bin	5200	0
bin	5400	0
bin	5600	0
bin	5800	0
bin	6000	0
bin	6200	0
bin	6400	0
bin	6600	0
bin	6800	0
bin	7000	0
bin	7200	0
bin	7400	0
bin	7600	0
bin	7800	0
bin	8000	0
bin	8200	0
bin	8400	0
bin	8600	0
bin	8800	0
bin	9000	0
bin	9200	0
bin	9400	0
bin	9600	26
bin	9800	118
bin	10000	112
bin	10200	105
bin	10400	123
bin	10600	117
bin	10800	101
bin	11000	100
bin	11200	97
bin	11400	106
bin	11600	122
bin	11800	112
bin	12000	87
bin	12200	0
bin	12400	0
bin	12600	0
bin	12800	0
bin	13000	0
bin	13200	0
bin	13400	0
bin	13600	0
bin	13800	0
bin	14000	0
bin	14200	0
bin	14400	0
bin	14600	0
bin	14800	0
bin	15000	0
bin	15200	0
statistic TwoHosts.hostB.eth.queue.dataQueue flowQueueingTime:histogram
field count 0
field mean -nan
field stddev nan
field min nan
field max nan
field sum 0
field sqrsum 0
bin	-inf	0
bin	0	0
bin	1	0
statistic TwoHosts.hostB.eth.queue.dataQueue incomingPacketLengths:histogram
field count 3869
field mean 5252.9583871801497
field stddev 4381.5840453196461
field min 328
field max 12136
field sum 20323696
field sqrsum 181018471552
bin	-inf	0
bin	0	0
bin	200	244
bin	400	628
bin	600	424
bin	800	0
bin	1000	0
bin	1200	0
bin	1400	0
bin	1600	0
bin	1800	0
bin	2000	0
bin	2200	0
bin	2400	0
bin	2600	0
bin	2800	0
bin	3000	0
bin	3200	0
bin	3400	0
bin	3600	0
bin	3800	159
bin	4000	784
bin	4200	303
bin	4400	0
bin	4600	0
bin	4800	0
bin	5000	0
bin	5200	0
bin	5400	0
bin	5600	0
bin	5800	0
bin	6000	0
bin	6200	0
bin	6400	0
bin	6600	0
bin	6800	0
bin	7000	0
bin	7200	0
bin	7400	0
bin	7600	0
bin	7800	0
bin	8000	0
bin	8200	0
bin	8400	0
bin	8600	0
bin	8800	0
bin	9000	0
bin	9200	0
bin	9400	0
bin	9600	26
bin	9800	118
bin	10000	112
bin	10200	106
bin	10400	123
bin	10600	117
bin	10800	101
bin	11000	100
bin	11200	97
bin	11400	106
bin	11600	122
bin	11800	112
bin	12000	87
bin	12200	0
bin	12400	0
bin	12600	0
bin	12800	0
bin	13000	0
bin	13200	0
bin	13400	0
bin	13600	0
bin	13800	0
bin	14000	0
bin	14200	0
bin	14400	0
bin	14600	0
bin	14800	0
bin	15000	0
bin	15200	0
statistic TwoHosts.hostB.eth.queue.scheduler packetLengths:histogram
field count 3865
field mean 5252.5288486416557
field stddev 4382.9583576111181
field min 328
field max 12136
field sum 20301024
field sqrsum 180860406016
bin	-inf	0
bin	0	0
bin	200	244
bin	400	628
bin	600	424
bin	800	0
bin	1000	0
bin	1200	0
bin	1400	0
bin	1600	0
bin	1800	0
bin	2000	0
bin	2200	0
bin	2400	0
bin	2600	0
bin	2800	0
bin	3000	0
bin	3200	0
bin	3400	0
bin	3600	0
bin	3800	159
bin	4000	781
bin	4200	303
bin	4400	0
bin	4600	0
bin	4800	0
bin	5000	0
bin	5200	0
bin	5400	0
bin	5600	0
bin	5800	0
bin	6000	0
bin	6200	0
bin	6400	0
bin	6600	0
bin	6800	0
bin	7000	0
bin	7200	0
bin	7400	0
bin	7600	0
bin	7800	0
bin	8000	0
bin	8200	0
bin	8400	0
bin	8600	0
bin	8800	0
bin	9000	0
bin	9200	0
bin	9400	0
bin	9600	26
bin	9800	118
bin	10000	112
bin	10200	105
bin	10400	123
bin	10600	117
bin	10800	101
bin	11000	100
bin	11200	97
bin	11400	106
bin	11600	122
bin	11800	112
bin	12000	87
bin	12200	0
bin	12400	0
bin	12600	0
bin	12800	0
bin	13000	0
bin	13200	0
bin	13400	0
bin	13600	0
bin	13800	0
bin	14000	0
bin	14200	0
bin	14400	0
bin	14600	0
bin	14800	0
bin	15000	0
bin	15200	0
statistic TwoHosts.hostB.eth.queue queueingTime:histogram
field count 3865
field mean 0
field stddev 0
field min 0
field max 0
field sum 0
field sqrsum 0
bin	-inf	0
bin	-0.5	0
bin	-0.47999999999999998	0
bin	-0.46000000000000002	0
bin	-0.44	0
bin	-0.41999999999999998	0
bin	-0.40000000000000002	0
bin	-0.38	0
bin	-0.35999999999999999	0
bin	-0.33999999999999997	0
bin	-0.32000000000000001	0
bin	-0.29999999999999999	0
bin	-0.28000000000000003	0
bin	-0.26000000000000001	0
bin	-0.23999999999999999	0
bin	-0.21999999999999997	0
bin	-0.20000000000000001	0
bin	-0.17999999999999999	0
bin	-0.15999999999999998	0
bin	-0.14000000000000001	0
bin	-0.12	0
bin	-0.099999999999999978	0
bin	-0.080000000000000016	0
bin	-0.059999999999999998	0
bin	-0.03999999999999998	0
bin	-0.020000000000000018	0
bin	0	3865
bin	0.020000000000000018	0
bin	0.040000000000000036	0
bin	0.060000000000000053	0
bin	0.07999999999999996	0
bin	0.099999999999999978	0
bin	0.12	0
bin	0.14000000000000001	0
bin	0.16000000000000003	0
bin	0.18000000000000005	0
bin	0.20000000000000007	0
bin	0.21999999999999997	0
bin	0.23999999999999999	0
bin	0.26000000000000001	0
bin	0.28000000000000003	0
bin	0.30000000000000004	0
bin	0.32000000000000006	0
bin	0.33999999999999997	0
bin	0.35999999999999999	0
bin	0.38	0
bin	0.40000000000000002	0
bin	0.42000000000000004	0
bin	0.44000000000000006	0
bin	0.45999999999999996	0
bin	0.47999999999999998	0
bin	0.5	0
statistic TwoHosts.hostB.eth.queue outgoingPacketLengths:histogram
field count 3865
field mean 5252.5288486416557
field stddev 4382.9583576111181
field min 328
field max 12136
field sum 20301024
field sqrsum 180860406016
bin	-inf	0
bin	0	0
bin	200	244
bin	400	628
bin	600	424
bin	800	0
bin	1000	0
bin	1200	0
bin	1400	0
bin	1600	0
bin	1800	0
bin	2000	0
bin	2200	0
bin	2400	0
bin	2600	0
bin	2800	0
bin	3000	0
bin	3200	0
bin	3400	0
bin	3600	0
bin	3800	159
bin	4000	781
bin	4200	303
bin	4400	0
bin	4600	0
bin	4800	0
bin	5000	0
bin	5200	0
bin	5400	0
bin	5600	0
bin	5800	0
bin	6000	0
bin	6200	0
bin	6400	0
bin	6600	0
bin	6800	0
bin	7000	0
bin	7200	0
bin	7400	0
bin	7600	0
bin	7800	0
bin	8000	0
bin	8200	0
bin	8400	0
bin	8600	0
bin	8800	0
bin	9000	0
bin	9200	0
bin	9400	0
bin	9600	26
bin	9800	118
bin	10000	112
bin	10200	105
bin	10400	123
bin	10600	117
bin	10800	101
bin	11000	100
bin	11200	97
bin	11400	106
bin	11600	122
bin	11800	112
bin	12000	87
bin	12200	0
bin	12400	0
bin	12600	0
bin	12800	0
bin	13000	0
bin	13200	0
bin	13400	0
bin	13600	0
bin	13800	0
bin	14000	0
bin	14200	0
bin	14400	0
bin	14600	0
bin	14800	0
bin	15000	0
bin	15200	0
statistic TwoHosts.hostB.eth.queue flowQueueingTime:histogram
field count 0
field mean -nan
field stddev nan
field min nan
field max nan
field sum 0
field sqrsum 0
bin	-inf	0
bin	0	0
bin	1	0
statistic TwoHosts.hostB.eth.queue incomingPacketLengths:histogram
field count 0
field mean -nan
field stddev nan
field min nan
field max nan
field sum 0
field sqrsum 0
bin	-inf	0
bin	0	0
bin	1	0
scalar TwoHosts.hostA.app packetReceived:vector(packetBytes):count 3864
scalar TwoHosts.hostA.app packetReceived:vector(packetBytes):sum 2456403
scalar TwoHosts.hostA.app packetReceived:vector(packetBytes):sumweights 3864
scalar TwoHosts.hostA.app packetReceived:vector(packetBytes):mean 635.71506211180122
scalar TwoHosts.hostA.app packetReceived:vector(packetBytes):stddev 547.86242353700231
scalar TwoHosts.hostA.app packetReceived:vector(packetBytes):min 20
scalar TwoHosts.hostA.app packetReceived:vector(packetBytes):max 1496
scalar TwoHosts.hostA.app packetReceived:vector(packetBytes):starttime 1.0000576500000002
scalar TwoHosts.hostA.app packetReceived:vector(packetBytes):endtime 999.00208805000022
scalar TwoHosts.hostA.app packetSent:vector(packetBytes):count 4079
scalar TwoHosts.hostA.app packetSent:vector(packetBytes):sum 2535896
scalar TwoHosts.hostA.app packetSent:vector(packetBytes):sumweights 4079
scalar TwoHosts.hostA.app packetSent:vector(packetBytes):mean 621.69551360627599
scalar TwoHosts.hostA.app packetSent:vector(packetBytes):stddev 542.3614632322126
scalar TwoHosts.hostA.app packetSent:vector(packetBytes):min 20
scalar TwoHosts.hostA.app packetSent:vector(packetBytes):max 1496
scalar TwoHosts.hostA.app packetSent:vector(packetBytes):starttime 1
scalar TwoHosts.hostA.app packetSent:vector(packetBytes):endtime 1000
scalar TwoHosts.hostA.app endToEndDelay:vector:count 3864
scalar TwoHosts.hostA.app endToEndDelay:vector:sum 10.289336399999973
scalar TwoHosts.hostA.app endToEndDelay:vector:sumweights 3864
scalar TwoHosts.hostA.app endToEndDelay:vector:mean 0.0026628717391304277
scalar TwoHosts.hostA.app endToEndDelay:vector:stddev 0.0026798141140196032
scalar TwoHosts.hostA.app endToEndDelay:vector:min 5.7649999999999999e-05
scalar TwoHosts.hostA.app endToEndDelay:vector:max 0.020524850000000001
scalar TwoHosts.hostA.app endToEndDelay:vector:starttime 1.0000576500000002
scalar TwoHosts.hostA.app endToEndDelay:vector:endtime 999.00208805000022
scalar TwoHosts.hostA.ethernet encapPk:vector(packetBytes):count 4079
scalar TwoHosts.hostA.ethernet encapPk:vector(packetBytes):sum 2548133
scalar TwoHosts.hostA.ethernet encapPk:vector(packetBytes):sumweights 4079
scalar TwoHosts.hostA.ethernet encapPk:vector(packetBytes):mean 624.69551360627599
scalar TwoHosts.hostA.ethernet encapPk:vector(packetBytes):stddev 542.3614632322126
scalar TwoHosts.hostA.ethernet encapPk:vector(packetBytes):min 23
scalar TwoHosts.hostA.ethernet encapPk:vector(packetBytes):max 1499
scalar TwoHosts.hostA.ethernet encapPk:vector(packetBytes):starttime 1
scalar TwoHosts.hostA.ethernet encapPk:vector(packetBytes):endtime 1000
scalar TwoHosts.hostA.ethernet decapPk:vector(packetBytes):count 3864
scalar TwoHosts.hostA.ethernet decapPk:vector(packetBytes):sum 2467995
scalar TwoHosts.hostA.ethernet decapPk:vector(packetBytes):sumweights 3864
scalar TwoHosts.hostA.ethernet decapPk:vector(packetBytes):mean 638.71506211180122
scalar TwoHosts.hostA.ethernet decapPk:vector(packetBytes):stddev 547.86242353700231
scalar TwoHosts.hostA.ethernet decapPk:vector(packetBytes):min 23
scalar TwoHosts.hostA.ethernet decapPk:vector(packetBytes):max 1499
scalar TwoHosts.hostA.ethernet decapPk:vector(packetBytes):starttime 1.0000576500000002
scalar TwoHosts.hostA.ethernet decapPk:vector(packetBytes):endtime 999.00208805000022
scalar TwoHosts.hostA.ethernet pauseSent:vector:count 0
scalar TwoHosts.hostA.ethernet pauseSent:vector:sum 0
scalar TwoHosts.hostA.ethernet pauseSent:vector:sumweights 0
scalar TwoHosts.hostA.ethernet pauseSent:vector:mean -nan
scalar TwoHosts.hostA.ethernet pauseSent:vector:stddev nan
scalar TwoHosts.hostA.ethernet pauseSent:vector:min inf
scalar TwoHosts.hostA.ethernet pauseSent:vector:max -inf
scalar TwoHosts.hostA.ethernet pauseSent:vector:starttime nan
scalar TwoHosts.hostA.ethernet pauseSent:vector:endtime nan
scalar TwoHosts.hostA.eth.queue.classifier packetLengths:vector:count 4079
scalar TwoHosts.hostA.eth.queue.classifier packetLengths:vector:sum 20972440
scalar TwoHosts.hostA.eth.queue.classifier packetLengths:vector:sumweights 4079
scalar TwoHosts.hostA.eth.queue.classifier packetLengths:vector:mean 5141.564108850208
scalar TwoHosts.hostA.eth.queue.classifier packetLengths:vector:stddev 4338.8917058577008
scalar TwoHosts.hostA.eth.queue.classifier packetLengths:vector:min 328
scalar TwoHosts.hostA.eth.queue.classifier packetLengths:vector:max 12136
scalar TwoHosts.hostA.eth.queue.classifier packetLengths:vector:starttime 1
scalar TwoHosts.hostA.eth.queue.classifier packetLengths:vector:endtime 1000
scalar TwoHosts.hostA.eth.queue.classifier dataRate:vector:count 10000
scalar TwoHosts.hostA.eth.queue.classifier dataRate:vector:sum 209170720
scalar TwoHosts.hostA.eth.queue.classifier dataRate:vector:sumweights 10000
scalar TwoHosts.hostA.eth.queue.classifier dataRate:vector:mean 20917.072
scalar TwoHosts.hostA.eth.queue.classifier dataRate:vector:stddev 102431.81367930658
scalar TwoHosts.hostA.eth.queue.classifier dataRate:vector:min 0
scalar TwoHosts.hostA.eth.queue.classifier dataRate:vector:max 2437200
scalar TwoHosts.hostA.eth.queue.classifier dataRate:vector:starttime 0.10000000000000001
scalar TwoHosts.hostA.eth.queue.classifier dataRate:vector:endtime 1000
scalar TwoHosts.hostA.eth.queue.pauseQueue queueLength:vector:count 5
scalar TwoHosts.hostA.eth.queue.pauseQueue queueLength:vector:sum 0
scalar TwoHosts.hostA.eth.queue.pauseQueue queueLength:vector:sumweights 5
scalar TwoHosts.hostA.eth.queue.pauseQueue queueLength:vector:mean 0
scalar TwoHosts.hostA.eth.queue.pauseQueue queueLength:vector:stddev 0
scalar TwoHosts.hostA.eth.queue.pauseQueue queueLength:vector:min 0
scalar TwoHosts.hostA.eth.queue.pauseQueue queueLength:vector:max 0
scalar TwoHosts.hostA.eth.queue.pauseQueue queueLength:vector:starttime 0
scalar TwoHosts.hostA.eth.queue.pauseQueue queueLength:vector:endtime 0
scalar TwoHosts.hostA.eth.queue.pauseQueue queueBitLength:vector:count 5
scalar TwoHosts.hostA.eth.queue.pauseQueue queueBitLength:vector:sum 0
scalar TwoHosts.hostA.eth.queue.pauseQueue queueBitLength:vector:sumweights 5
scalar TwoHosts.hostA.eth.queue.pauseQueue queueBitLength:vector:mean 0
scalar TwoHosts.hostA.eth.queue.pauseQueue queueBitLength:vector:stddev 0
scalar TwoHosts.hostA.eth.queue.pauseQueue queueBitLength:vector:min 0
scalar TwoHosts.hostA.eth.queue.pauseQueue queueBitLength:vector:max 0
scalar TwoHosts.hostA.eth.queue.pauseQueue queueBitLength:vector:starttime 0
scalar TwoHosts.hostA.eth.queue.pauseQueue queueBitLength:vector:endtime 0
scalar TwoHosts.hostA.eth.queue.pauseQueue queueingTime:vector:count 0
scalar TwoHosts.hostA.eth.queue.pauseQueue queueingTime:vector:sum 0
scalar TwoHosts.hostA.eth.queue.pauseQueue queueingTime:vector:sumweights 0
scalar TwoHosts.hostA.eth.queue.pauseQueue queueingTime:vector:mean -nan
scalar TwoHosts.hostA.eth.queue.pauseQueue queueingTime:vector:stddev nan
scalar TwoHosts.hostA.eth.queue.pauseQueue queueingTime:vector:min inf
scalar TwoHosts.hostA.eth.queue.pauseQueue queueingTime:vector:max -inf
scalar TwoHosts.hostA.eth.queue.pauseQueue queueingTime:vector:starttime nan
scalar TwoHosts.hostA.eth.queue.pauseQueue queueingTime:vector:endtime nan
scalar TwoHosts.hostA.eth.queue.pauseQueue incomingPacketLengths:vector:count 0
scalar TwoHosts.hostA.eth.queue.pauseQueue incomingPacketLengths:vector:sum 0
scalar TwoHosts.hostA.eth.queue.pauseQueue incomingPacketLengths:vector:sumweights 0
scalar TwoHosts.hostA.eth.queue.pauseQueue incomingPacketLengths:vector:mean -nan
scalar TwoHosts.hostA.eth.queue.pauseQueue incomingPacketLengths:vector:stddev nan
scalar TwoHosts.hostA.eth.queue.pauseQueue incomingPacketLengths:vector:min inf
scalar TwoHosts.hostA.eth.queue.pauseQueue incomingPacketLengths:vector:max -inf
scalar TwoHosts.hostA.eth.queue.pauseQueue incomingPacketLengths:vector:starttime nan
scalar TwoHosts.hostA.eth.queue.pauseQueue incomingPacketLengths:vector:endtime nan
scalar TwoHosts.hostA.eth.queue.pauseQueue incomingDataRate:vector:count 10000
scalar TwoHosts.hostA.eth.queue.pauseQueue incomingDataRate:vector:sum 0
scalar TwoHosts.hostA.eth.queue.pauseQueue incomingDataRate:vector:sumweights 10000
scalar TwoHosts.hostA.eth.queue.pauseQueue incomingDataRate:vector:mean 0
scalar TwoHosts.hostA.eth.queue.pauseQueue incomingDataRate:vector:stddev 0
scalar TwoHosts.hostA.eth.queue.pauseQueue incomingDataRate:vector:min 0
scalar TwoHosts.hostA.eth.queue.pauseQueue incomingDataRate:vector:max 0
scalar TwoHosts.hostA.eth.queue.pauseQueue incomingDataRate:vector:starttime 0.10000000000000001
scalar TwoHosts.hostA.eth.queue.pauseQueue incomingDataRate:vector:endtime 1000
scalar TwoHosts.hostA.eth.queue.pauseQueue outgoingPacketLengths:vector:count 0
scalar TwoHosts.hostA.eth.queue.pauseQueue outgoingPacketLengths:vector:sum 0
scalar TwoHosts.hostA.eth.queue.pauseQueue outgoingPacketLengths:vector:sumweights 0
scalar TwoHosts.hostA.eth.queue.pauseQueue outgoingPacketLengths:vector:mean -nan
scalar TwoHosts.hostA.eth.queue.pauseQueue outgoingPacketLengths:vector:stddev nan
scalar TwoHosts.hostA.eth.queue.pauseQueue outgoingPacketLengths:vector:min inf
scalar TwoHosts.hostA.eth.queue.pauseQueue outgoingPacketLengths:vector:max -inf
scalar TwoHosts.hostA.eth.queue.pauseQueue outgoingPacketLengths:vector:starttime nan
scalar TwoHosts.hostA.eth.queue.pauseQueue outgoingPacketLengths:vector:endtime nan
scalar TwoHosts.hostA.eth.queue.pauseQueue outgoingDataRate:vector:count 10000
scalar TwoHosts.hostA.eth.queue.pauseQueue outgoingDataRate:vector:sum 0
scalar TwoHosts.hostA.eth.queue.pauseQueue outgoingDataRate:vector:sumweights 10000
scalar TwoHosts.hostA.eth.queue.pauseQueue outgoingDataRate:vector:mean 0
scalar TwoHosts.hostA.eth.queue.pauseQueue outgoingDataRate:vector:stddev 0
scalar TwoHosts.hostA.eth.queue.pauseQueue outgoingDataRate:vector:min 0
scalar TwoHosts.hostA.eth.queue.pauseQueue outgoingDataRate:vector:max 0
scalar TwoHosts.hostA.eth.queue.pauseQueue outgoingDataRate:vector:starttime 0.10000000000000001
scalar TwoHosts.hostA.eth.queue.pauseQueue outgoingDataRate:vector:endtime 1000
scalar TwoHosts.hostA.eth.queue.pauseQueue droppedPacketLengthsQueueOverflow:vector:count 0
scalar TwoHosts.hostA.eth.queue.pauseQueue droppedPacketLengthsQueueOverflow:vector:sum 0
scalar TwoHosts.hostA.eth.queue.pauseQueue droppedPacketLengthsQueueOverflow:vector:sumweights 0
scalar TwoHosts.hostA.eth.queue.pauseQueue droppedPacketLengthsQueueOverflow:vector:mean -nan
scalar TwoHosts.hostA.eth.queue.pauseQueue droppedPacketLengthsQueueOverflow:vector:stddev nan
scalar TwoHosts.hostA.eth.queue.pauseQueue droppedPacketLengthsQueueOverflow:vector:min inf
scalar TwoHosts.hostA.eth.queue.pauseQueue droppedPacketLengthsQueueOverflow:vector:max -inf
scalar TwoHosts.hostA.eth.queue.pauseQueue droppedPacketLengthsQueueOverflow:vector:starttime nan
scalar TwoHosts.hostA.eth.queue.pauseQueue droppedPacketLengthsQueueOverflow:vector:endtime nan
scalar TwoHosts.hostA.eth.queue.pauseQueue flowQueueingTime:vector:count 0
scalar TwoHosts.hostA.eth.queue.pauseQueue flowQueueingTime:vector:sum 0
scalar TwoHosts.hostA.eth.queue.pauseQueue flowQueueingTime:vector:sumweights 0
scalar TwoHosts.hostA.eth.queue.pauseQueue flowQueueingTime:vector:mean -nan
scalar TwoHosts.hostA.eth.queue.pauseQueue flowQueueingTime:vector:stddev nan
scalar TwoHosts.hostA.eth.queue.pauseQueue flowQueueingTime:vector:min inf
scalar TwoHosts.hostA.eth.queue.pauseQueue flowQueueingTime:vector:max -inf
scalar TwoHosts.hostA.eth.queue.pauseQueue flowQueueingTime:vector:starttime nan
scalar TwoHosts.hostA.eth.queue.pauseQueue flowQueueingTime:vector:endtime nan
scalar TwoHosts.hostA.eth.queue.pauseQueue flowIncomingDataRate:vector:count 10000
scalar TwoHosts.hostA.eth.queue.pauseQueue flowIncomingDataRate:vector:sum 0
scalar TwoHosts.hostA.eth.queue.pauseQueue flowIncomingDataRate:vector:sumweights 10000
scalar TwoHosts.hostA.eth.queue.pauseQueue flowIncomingDataRate:vector:mean 0
scalar TwoHosts.hostA.eth.queue.pauseQueue flowIncomingDataRate:vector:stddev 0
scalar TwoHosts.hostA.eth.queue.pauseQueue flowIncomingDataRate:vector:min 0
scalar TwoHosts.hostA.eth.queue.pauseQueue flowIncomingDataRate:vector:max 0
scalar TwoHosts.hostA.eth.queue.pauseQueue flowIncomingDataRate:vector:starttime 0.10000000000000001
scalar TwoHosts.hostA.eth.queue.pauseQueue flowIncomingDataRate:vector:endtime 1000
scalar TwoHosts.hostA.eth.queue.pauseQueue flowOutgoingDataRate:vector:count 10000
scalar TwoHosts.hostA.eth.queue.pauseQueue flowOutgoingDataRate:vector:sum 0
scalar TwoHosts.hostA.eth.queue.pauseQueue flowOutgoingDataRate:vector:sumweights 10000
scalar TwoHosts.hostA.eth.queue.pauseQueue flowOutgoingDataRate:vector:mean 0
scalar TwoHosts.hostA.eth.queue.pauseQueue flowOutgoingDataRate:vector:stddev 0
scalar TwoHosts.hostA.eth.queue.pauseQueue flowOutgoingDataRate:vector:min 0
scalar TwoHosts.hostA.eth.queue.pauseQueue flowOutgoingDataRate:vector:max 0
scalar TwoHosts.hostA.eth.queue.pauseQueue flowOutgoingDataRate:vector:starttime 0.10000000000000001
scalar TwoHosts.hostA.eth.queue.pauseQueue flowOutgoingDataRate:vector:endtime 1000
scalar TwoHosts.hostA.eth.queue.dataQueue queueLength:vector:count 7346
scalar TwoHosts.hostA.eth.queue.dataQueue queueLength:vector:sum 30610
scalar TwoHosts.hostA.eth.queue.dataQueue queueLength:vector:sumweights 7346
scalar TwoHosts.hostA.eth.queue.dataQueue queueLength:vector:mean 4.166893547508848
scalar TwoHosts.hostA.eth.queue.dataQueue queueLength:vector:stddev 5.0355494373752023
scalar TwoHosts.hostA.eth.queue.dataQueue queueLength:vector:min 0
scalar TwoHosts.hostA.eth.queue.dataQueue queueLength:vector:max 47
scalar TwoHosts.hostA.eth.queue.dataQueue queueLength:vector:starttime 0
scalar TwoHosts.hostA.eth.queue.dataQueue queueLength:vector:endtime 1000
scalar TwoHosts.hostA.eth.queue.dataQueue queueBitLength:vector:count 7346
scalar TwoHosts.hostA.eth.queue.dataQueue queueBitLength:vector:sum 157813328
scalar TwoHosts.hostA.eth.queue.dataQueue queueBitLength:vector:sumweights 7346
scalar TwoHosts.hostA.eth.queue.dataQueue queueBitLength:vector:mean 21482.892458480805
scalar TwoHosts.hostA.eth.queue.dataQueue queueBitLength:vector:stddev 27663.841974130148
scalar TwoHosts.hostA.eth.queue.dataQueue queueBitLength:vector:min 0
scalar TwoHosts.hostA.eth.queue.dataQueue queueBitLength:vector:max 231720
scalar TwoHosts.hostA.eth.queue.dataQueue queueBitLength:vector:starttime 0
scalar TwoHosts.hostA.eth.queue.dataQueue queueBitLength:vector:endtime 1000
scalar TwoHosts.hostA.eth.queue.dataQueue queueingTime:vector:count 4063
scalar TwoHosts.hostA.eth.queue.dataQueue queueingTime:vector:sum 9.3141680000000324
scalar TwoHosts.hostA.eth.queue.dataQueue queueingTime:vector:sumweights 4063
scalar TwoHosts.hostA.eth.queue.dataQueue queueingTime:vector:mean 0.0022924361309377386
scalar TwoHosts.hostA.eth.queue.dataQueue queueingTime:vector:stddev 0.0029450421558825154
scalar TwoHosts.hostA.eth.queue.dataQueue queueingTime:vector:min 0
scalar TwoHosts.hostA.eth.queue.dataQueue queueingTime:vector:max 0.024057599999999998
scalar TwoHosts.hostA.eth.queue.dataQueue queueingTime:vector:starttime 1
scalar TwoHosts.hostA.eth.queue.dataQueue queueingTime:vector:endtime 1000
scalar TwoHosts.hostA.eth.queue.dataQueue incomingPacketLengths:vector:count 4079
scalar TwoHosts.hostA.eth.queue.dataQueue incomingPacketLengths:vector:sum 20972440
scalar TwoHosts.hostA.eth.queue.dataQueue incomingPacketLengths:vector:sumweights 4079
scalar TwoHosts.hostA.eth.queue.dataQueue incomingPacketLengths:vector:mean 5141.564108850208
scalar TwoHosts.hostA.eth.queue.dataQueue incomingPacketLengths:vector:stddev 4338.8917058577008
scalar TwoHosts.hostA.eth.queue.dataQueue incomingPacketLengths:vector:min 328
scalar TwoHosts.hostA.eth.queue.dataQueue incomingPacketLengths:vector:max 12136
scalar TwoHosts.hostA.eth.queue.dataQueue incomingPacketLengths:vector:starttime 1
scalar TwoHosts.hostA.eth.queue.dataQueue incomingPacketLengths:vector:endtime 1000
scalar TwoHosts.hostA.eth.queue.dataQueue incomingDataRate:vector:count 10000
scalar TwoHosts.hostA.eth.queue.dataQueue incomingDataRate:vector:sum 209170720
scalar TwoHosts.hostA.eth.queue.dataQueue incomingDataRate:vector:sumweights 10000
scalar TwoHosts.hostA.eth.queue.dataQueue incomingDataRate:vector:mean 20917.072
scalar TwoHosts.hostA.eth.queue.dataQueue incomingDataRate:vector:stddev 102431.81367930658
scalar TwoHosts.hostA.eth.queue.dataQueue incomingDataRate:vector:min 0
scalar TwoHosts.hostA.eth.queue.dataQueue incomingDataRate:vector:max 2437200
scalar TwoHosts.hostA.eth.queue.dataQueue incomingDataRate:vector:starttime 0.10000000000000001
scalar TwoHosts.hostA.eth.queue.dataQueue incomingDataRate:vector:endtime 1000
scalar TwoHosts.hostA.eth.queue.dataQueue outgoingPacketLengths:vector:count 4063
scalar TwoHosts.hostA.eth.queue.dataQueue outgoingPacketLengths:vector:sum 20917424
scalar TwoHosts.hostA.eth.queue.dataQueue outgoingPacketLengths:vector:sumweights 4063
scalar TwoHosts.hostA.eth.queue.dataQueue outgoingPacketLengths:vector:mean 5148.2707359094265
scalar TwoHosts.hostA.eth.queue.dataQueue outgoingPacketLengths:vector:stddev 4338.6674869516664
scalar TwoHosts.hostA.eth.queue.dataQueue outgoingPacketLengths:vector:min 328
[...]
scalar TwoHosts.hostB.eth.queue.dataQueue droppedPacketLengthsQueueOverflow:vector:mean -nan
scalar TwoHosts.hostB.eth.queue.dataQueue droppedPacketLengthsQueueOverflow:vector:stddev nan
scalar TwoHosts.hostB.eth.queue.dataQueue droppedPacketLengthsQueueOverflow:vector:min inf
scalar TwoHosts.hostB.eth.queue.dataQueue droppedPacketLengthsQueueOverflow:vector:max -inf
scalar TwoHosts.hostB.eth.queue.dataQueue droppedPacketLengthsQueueOverflow:vector:starttime nan
scalar TwoHosts.hostB.eth.queue.dataQueue droppedPacketLengthsQueueOverflow:vector:endtime nan
scalar TwoHosts.hostB.eth.queue.dataQueue flowQueueingTime:vector:count 0
scalar TwoHosts.hostB.eth.queue.dataQueue flowQueueingTime:vector:sum 0
scalar TwoHosts.hostB.eth.queue.dataQueue flowQueueingTime:vector:sumweights 0
scalar TwoHosts.hostB.eth.queue.dataQueue flowQueueingTime:vector:mean -nan
scalar TwoHosts.hostB.eth.queue.dataQueue flowQueueingTime:vector:stddev nan
scalar TwoHosts.hostB.eth.queue.dataQueue flowQueueingTime:vector:min inf
scalar TwoHosts.hostB.eth.queue.dataQueue flowQueueingTime:vector:max -inf
scalar TwoHosts.hostB.eth.queue.dataQueue flowQueueingTime:vector:starttime nan
scalar TwoHosts.hostB.eth.queue.dataQueue flowQueueingTime:vector:endtime nan
scalar TwoHosts.hostB.eth.queue.dataQueue flowIncomingDataRate:vector:count 10000
scalar TwoHosts.hostB.eth.queue.dataQueue flowIncomingDataRate:vector:sum 0
scalar TwoHosts.hostB.eth.queue.dataQueue flowIncomingDataRate:vector:sumweights 10000
scalar TwoHosts.hostB.eth.queue.dataQueue flowIncomingDataRate:vector:mean 0
scalar TwoHosts.hostB.eth.queue.dataQueue flowIncomingDataRate:vector:stddev 0
scalar TwoHosts.hostB.eth.queue.dataQueue flowIncomingDataRate:vector:min 0
scalar TwoHosts.hostB.eth.queue.dataQueue flowIncomingDataRate:vector:max 0
scalar TwoHosts.hostB.eth.queue.dataQueue flowIncomingDataRate:vector:starttime 0.10000000000000001
scalar TwoHosts.hostB.eth.queue.dataQueue flowIncomingDataRate:vector:endtime 1000
scalar TwoHosts.hostB.eth.queue.dataQueue flowOutgoingDataRate:vector:count 10000
scalar TwoHosts.hostB.eth.queue.dataQueue flowOutgoingDataRate:vector:sum 0
scalar TwoHosts.hostB.eth.queue.dataQueue flowOutgoingDataRate:vector:sumweights 10000
scalar TwoHosts.hostB.eth.queue.dataQueue flowOutgoingDataRate:vector:mean 0
scalar TwoHosts.hostB.eth.queue.dataQueue flowOutgoingDataRate:vector:stddev 0
scalar TwoHosts.hostB.eth.queue.dataQueue flowOutgoingDataRate:vector:min 0
scalar TwoHosts.hostB.eth.queue.dataQueue flowOutgoingDataRate:vector:max 0
scalar TwoHosts.hostB.eth.queue.dataQueue flowOutgoingDataRate:vector:starttime 0.10000000000000001
scalar TwoHosts.hostB.eth.queue.dataQueue flowOutgoingDataRate:vector:endtime 1000
scalar TwoHosts.hostB.eth.queue.scheduler packetLengths:vector:count 3865
scalar TwoHosts.hostB.eth.queue.scheduler packetLengths:vector:sum 20301024
scalar TwoHosts.hostB.eth.queue.scheduler packetLengths:vector:sumweights 3865
scalar TwoHosts.hostB.eth.queue.scheduler packetLengths:vector:mean 5252.5288486416557
scalar TwoHosts.hostB.eth.queue.scheduler packetLengths:vector:stddev 4382.9583576111181
scalar TwoHosts.hostB.eth.queue.scheduler packetLengths:vector:min 328
scalar TwoHosts.hostB.eth.queue.scheduler packetLengths:vector:max 12136
scalar TwoHosts.hostB.eth.queue.scheduler packetLengths:vector:starttime 1
scalar TwoHosts.hostB.eth.queue.scheduler packetLengths:vector:endtime 1000
scalar TwoHosts.hostB.eth.queue.scheduler dataRate:vector:count 10000
scalar TwoHosts.hostB.eth.queue.scheduler dataRate:vector:sum 203003760
scalar TwoHosts.hostB.eth.queue.scheduler dataRate:vector:sumweights 10000
scalar TwoHosts.hostB.eth.queue.scheduler dataRate:vector:mean 20300.376
scalar TwoHosts.hostB.eth.queue.scheduler dataRate:vector:stddev 98299.520910733598
scalar TwoHosts.hostB.eth.queue.scheduler dataRate:vector:min 0
scalar TwoHosts.hostB.eth.queue.scheduler dataRate:vector:max 1972720.0000000002
scalar TwoHosts.hostB.eth.queue.scheduler dataRate:vector:starttime 0.10000000000000001
scalar TwoHosts.hostB.eth.queue.scheduler dataRate:vector:endtime 1000
scalar TwoHosts.hostB.eth.queue queueLength:vector:count 3870
scalar TwoHosts.hostB.eth.queue queueLength:vector:sum -7471045
scalar TwoHosts.hostB.eth.queue queueLength:vector:sumweights 3870
scalar TwoHosts.hostB.eth.queue queueLength:vector:mean -1930.5025839793282
scalar TwoHosts.hostB.eth.queue queueLength:vector:stddev 1117.3126298921702
scalar TwoHosts.hostB.eth.queue queueLength:vector:min -3865
scalar TwoHosts.hostB.eth.queue queueLength:vector:max 0
scalar TwoHosts.hostB.eth.queue queueLength:vector:starttime 0
scalar TwoHosts.hostB.eth.queue queueLength:vector:endtime 1000
scalar TwoHosts.hostB.eth.queue queueBitLength:vector:count 3870
scalar TwoHosts.hostB.eth.queue queueBitLength:vector:sum -39594180616
scalar TwoHosts.hostB.eth.queue queueBitLength:vector:sumweights 3870
scalar TwoHosts.hostB.eth.queue queueBitLength:vector:mean -10231054.422739018
scalar TwoHosts.hostB.eth.queue queueBitLength:vector:stddev 5898346.0562791452
scalar TwoHosts.hostB.eth.queue queueBitLength:vector:min -20301024
scalar TwoHosts.hostB.eth.queue queueBitLength:vector:max 0
scalar TwoHosts.hostB.eth.queue queueBitLength:vector:starttime 0
scalar TwoHosts.hostB.eth.queue queueBitLength:vector:endtime 1000
scalar TwoHosts.hostB.eth.queue queueingTime:vector:count 3865
scalar TwoHosts.hostB.eth.queue queueingTime:vector:sum 0
scalar TwoHosts.hostB.eth.queue queueingTime:vector:sumweights 3865
scalar TwoHosts.hostB.eth.queue queueingTime:vector:mean 0
scalar TwoHosts.hostB.eth.queue queueingTime:vector:stddev 0
scalar TwoHosts.hostB.eth.queue queueingTime:vector:min 0
scalar TwoHosts.hostB.eth.queue queueingTime:vector:max 0
scalar TwoHosts.hostB.eth.queue queueingTime:vector:starttime 1
scalar TwoHosts.hostB.eth.queue queueingTime:vector:endtime 1000
scalar TwoHosts.hostB.eth.queue incomingPacketLengths:vector:count 0
scalar TwoHosts.hostB.eth.queue incomingPacketLengths:vector:sum 0
scalar TwoHosts.hostB.eth.queue incomingPacketLengths:vector:sumweights 0
scalar TwoHosts.hostB.eth.queue incomingPacketLengths:vector:mean -nan
scalar TwoHosts.hostB.eth.queue incomingPacketLengths:vector:stddev nan
scalar TwoHosts.hostB.eth.queue incomingPacketLengths:vector:min inf
scalar TwoHosts.hostB.eth.queue incomingPacketLengths:vector:max -inf
scalar TwoHosts.hostB.eth.queue incomingPacketLengths:vector:starttime nan
scalar TwoHosts.hostB.eth.queue incomingPacketLengths:vector:endtime nan
scalar TwoHosts.hostB.eth.queue incomingDataRate:vector:count 10000
scalar TwoHosts.hostB.eth.queue incomingDataRate:vector:sum 0
scalar TwoHosts.hostB.eth.queue incomingDataRate:vector:sumweights 10000
scalar TwoHosts.hostB.eth.queue incomingDataRate:vector:mean 0
scalar TwoHosts.hostB.eth.queue incomingDataRate:vector:stddev 0
scalar TwoHosts.hostB.eth.queue incomingDataRate:vector:min 0
scalar TwoHosts.hostB.eth.queue incomingDataRate:vector:max 0
scalar TwoHosts.hostB.eth.queue incomingDataRate:vector:starttime 0.10000000000000001
scalar TwoHosts.hostB.eth.queue incomingDataRate:vector:endtime 1000
scalar TwoHosts.hostB.eth.queue outgoingPacketLengths:vector:count 3865
scalar TwoHosts.hostB.eth.queue outgoingPacketLengths:vector:sum 20301024
scalar TwoHosts.hostB.eth.queue outgoingPacketLengths:vector:sumweights 3865
scalar TwoHosts.hostB.eth.queue outgoingPacketLengths:vector:mean 5252.5288486416557
scalar TwoHosts.hostB.eth.queue outgoingPacketLengths:vector:stddev 4382.9583576111181
scalar TwoHosts.hostB.eth.queue outgoingPacketLengths:vector:min 328
scalar TwoHosts.hostB.eth.queue outgoingPacketLengths:vector:max 12136
scalar TwoHosts.hostB.eth.queue outgoingPacketLengths:vector:starttime 1
scalar TwoHosts.hostB.eth.queue outgoingPacketLengths:vector:endtime 1000
scalar TwoHosts.hostB.eth.queue outgoingDataRate:vector:count 10000
scalar TwoHosts.hostB.eth.queue outgoingDataRate:vector:sum 203003760
scalar TwoHosts.hostB.eth.queue outgoingDataRate:vector:sumweights 10000
scalar TwoHosts.hostB.eth.queue outgoingDataRate:vector:mean 20300.376
scalar TwoHosts.hostB.eth.queue outgoingDataRate:vector:stddev 98299.520910733598
scalar TwoHosts.hostB.eth.queue outgoingDataRate:vector:min 0
scalar TwoHosts.hostB.eth.queue outgoingDataRate:vector:max 1972720.0000000002
scalar TwoHosts.hostB.eth.queue outgoingDataRate:vector:starttime 0.10000000000000001
scalar TwoHosts.hostB.eth.queue outgoingDataRate:vector:endtime 1000
scalar TwoHosts.hostB.eth.queue droppedPacketLengthsQueueOverflow:vector:count 0
scalar TwoHosts.hostB.eth.queue droppedPacketLengthsQueueOverflow:vector:sum 0
scalar TwoHosts.hostB.eth.queue droppedPacketLengthsQueueOverflow:vector:sumweights 0
scalar TwoHosts.hostB.eth.queue droppedPacketLengthsQueueOverflow:vector:mean -nan
scalar TwoHosts.hostB.eth.queue droppedPacketLengthsQueueOverflow:vector:stddev nan
scalar TwoHosts.hostB.eth.queue droppedPacketLengthsQueueOverflow:vector:min inf
scalar TwoHosts.hostB.eth.queue droppedPacketLengthsQueueOverflow:vector:max -inf
scalar TwoHosts.hostB.eth.queue droppedPacketLengthsQueueOverflow:vector:starttime nan
scalar TwoHosts.hostB.eth.queue droppedPacketLengthsQueueOverflow:vector:endtime nan
scalar TwoHosts.hostB.eth.queue flowQueueingTime:vector:count 0
scalar TwoHosts.hostB.eth.queue flowQueueingTime:vector:sum 0
scalar TwoHosts.hostB.eth.queue flowQueueingTime:vector:sumweights 0
scalar TwoHosts.hostB.eth.queue flowQueueingTime:vector:mean -nan
scalar TwoHosts.hostB.eth.queue flowQueueingTime:vector:stddev nan
scalar TwoHosts.hostB.eth.queue flowQueueingTime:vector:min inf
scalar TwoHosts.hostB.eth.queue flowQueueingTime:vector:max -inf
scalar TwoHosts.hostB.eth.queue flowQueueingTime:vector:starttime nan
scalar TwoHosts.hostB.eth.queue flowQueueingTime:vector:endtime nan
scalar TwoHosts.hostB.eth.queue flowIncomingDataRate:vector:count 10000
scalar TwoHosts.hostB.eth.queue flowIncomingDataRate:vector:sum 0
scalar TwoHosts.hostB.eth.queue flowIncomingDataRate:vector:sumweights 10000
scalar TwoHosts.hostB.eth.queue flowIncomingDataRate:vector:mean 0
scalar TwoHosts.hostB.eth.queue flowIncomingDataRate:vector:stddev 0
scalar TwoHosts.hostB.eth.queue flowIncomingDataRate:vector:min 0
scalar TwoHosts.hostB.eth.queue flowIncomingDataRate:vector:max 0
scalar TwoHosts.hostB.eth.queue flowIncomingDataRate:vector:starttime 0.10000000000000001
scalar TwoHosts.hostB.eth.queue flowIncomingDataRate:vector:endtime 1000
scalar TwoHosts.hostB.eth.queue flowOutgoingDataRate:vector:count 10000
scalar TwoHosts.hostB.eth.queue flowOutgoingDataRate:vector:sum 0
scalar TwoHosts.hostB.eth.queue flowOutgoingDataRate:vector:sumweights 10000
scalar TwoHosts.hostB.eth.queue flowOutgoingDataRate:vector:mean 0
scalar TwoHosts.hostB.eth.queue flowOutgoingDataRate:vector:stddev 0
scalar TwoHosts.hostB.eth.queue flowOutgoingDataRate:vector:min 0
scalar TwoHosts.hostB.eth.queue flowOutgoingDataRate:vector:max 0
scalar TwoHosts.hostB.eth.queue flowOutgoingDataRate:vector:starttime 0.10000000000000001
scalar TwoHosts.hostB.eth.queue flowOutgoingDataRate:vector:endtime 1000
scalar TwoHosts.hostB.eth.mac txPk:vector(packetBytes):count 3864
scalar TwoHosts.hostB.eth.mac txPk:vector(packetBytes):sum 2544808
scalar TwoHosts.hostB.eth.mac txPk:vector(packetBytes):sumweights 3864
scalar TwoHosts.hostB.eth.mac txPk:vector(packetBytes):mean 658.59420289855075
scalar TwoHosts.hostB.eth.mac txPk:vector(packetBytes):stddev 545.79463587352711
scalar TwoHosts.hostB.eth.mac txPk:vector(packetBytes):min 64
scalar TwoHosts.hostB.eth.mac txPk:vector(packetBytes):max 1517
scalar TwoHosts.hostB.eth.mac txPk:vector(packetBytes):starttime 1.0000576000000003
scalar TwoHosts.hostB.eth.mac txPk:vector(packetBytes):endtime 999.00208800000019
scalar TwoHosts.hostB.eth.mac rxPkOk:vector(packetBytes):count 4062
scalar TwoHosts.hostB.eth.mac rxPkOk:vector(packetBytes):sum 2622144
scalar TwoHosts.hostB.eth.mac rxPkOk:vector(packetBytes):sumweights 4062
scalar TwoHosts.hostB.eth.mac rxPkOk:vector(packetBytes):mean 645.53028064992611
scalar TwoHosts.hostB.eth.mac rxPkOk:vector(packetBytes):stddev 540.30854450405707
scalar TwoHosts.hostB.eth.mac rxPkOk:vector(packetBytes):min 64
scalar TwoHosts.hostB.eth.mac rxPkOk:vector(packetBytes):max 1517
scalar TwoHosts.hostB.eth.mac rxPkOk:vector(packetBytes):starttime 1.0004216500000003
scalar TwoHosts.hostB.eth.mac rxPkOk:vector(packetBytes):endtime 999.00349765000021
scalar TwoHosts.hostB.eth.mac passedUpPk:vector(packetBytes):count 4062
scalar TwoHosts.hostB.eth.mac passedUpPk:vector(packetBytes):sum 2622144
scalar TwoHosts.hostB.eth.mac passedUpPk:vector(packetBytes):sumweights 4062
scalar TwoHosts.hostB.eth.mac passedUpPk:vector(packetBytes):mean 645.53028064992611
scalar TwoHosts.hostB.eth.mac passedUpPk:vector(packetBytes):stddev 540.30854450405707
scalar TwoHosts.hostB.eth.mac passedUpPk:vector(packetBytes):min 64
scalar TwoHosts.hostB.eth.mac passedUpPk:vector(packetBytes):max 1517
scalar TwoHosts.hostB.eth.mac passedUpPk:vector(packetBytes):starttime 1.0004216500000003
scalar TwoHosts.hostB.eth.mac passedUpPk:vector(packetBytes):endtime 999.00349765000021
scalar TwoHosts.hostB.eth.mac txPausePkUnits:vector:count 0
scalar TwoHosts.hostB.eth.mac txPausePkUnits:vector:sum 0
scalar TwoHosts.hostB.eth.mac txPausePkUnits:vector:sumweights 0
scalar TwoHosts.hostB.eth.mac txPausePkUnits:vector:mean -nan
scalar TwoHosts.hostB.eth.mac txPausePkUnits:vector:stddev nan
scalar TwoHosts.hostB.eth.mac txPausePkUnits:vector:min inf
scalar TwoHosts.hostB.eth.mac txPausePkUnits:vector:max -inf
scalar TwoHosts.hostB.eth.mac txPausePkUnits:vector:starttime nan
scalar TwoHosts.hostB.eth.mac txPausePkUnits:vector:endtime nan
scalar TwoHosts.hostB.eth.mac rxPausePkUnits:vector:count 0
scalar TwoHosts.hostB.eth.mac rxPausePkUnits:vector:sum 0
scalar TwoHosts.hostB.eth.mac rxPausePkUnits:vector:sumweights 0
scalar TwoHosts.hostB.eth.mac rxPausePkUnits:vector:mean -nan
scalar TwoHosts.hostB.eth.mac rxPausePkUnits:vector:stddev nan
scalar TwoHosts.hostB.eth.mac rxPausePkUnits:vector:min inf
scalar TwoHosts.hostB.eth.mac rxPausePkUnits:vector:max -inf
scalar TwoHosts.hostB.eth.mac rxPausePkUnits:vector:starttime nan
scalar TwoHosts.hostB.eth.mac rxPausePkUnits:vector:endtime nan
scalar TwoHosts.hostB.eth.mac packetReceivedFromUpper:vector(packetBytes):count 3865
scalar TwoHosts.hostB.eth.mac packetReceivedFromUpper:vector(packetBytes):sum 2537628
scalar TwoHosts.hostB.eth.mac packetReceivedFromUpper:vector(packetBytes):sumweights 3865
scalar TwoHosts.hostB.eth.mac packetReceivedFromUpper:vector(packetBytes):mean 656.56610608020696
scalar TwoHosts.hostB.eth.mac packetReceivedFromUpper:vector(packetBytes):stddev 547.86979470138976
scalar TwoHosts.hostB.eth.mac packetReceivedFromUpper:vector(packetBytes):min 41
scalar TwoHosts.hostB.eth.mac packetReceivedFromUpper:vector(packetBytes):max 1517
scalar TwoHosts.hostB.eth.mac packetReceivedFromUpper:vector(packetBytes):starttime 1
scalar TwoHosts.hostB.eth.mac packetReceivedFromUpper:vector(packetBytes):endtime 1000
scalar TwoHosts.hostB.eth.mac packetDropIncorrectlyReceived:vector(packetBytes):count 0
scalar TwoHosts.hostB.eth.mac packetDropIncorrectlyReceived:vector(packetBytes):sum 0
scalar TwoHosts.hostB.eth.mac packetDropIncorrectlyReceived:vector(packetBytes):sumweights 0
scalar TwoHosts.hostB.eth.mac packetDropIncorrectlyReceived:vector(packetBytes):mean -nan
scalar TwoHosts.hostB.eth.mac packetDropIncorrectlyReceived:vector(packetBytes):stddev nan
scalar TwoHosts.hostB.eth.mac packetDropIncorrectlyReceived:vector(packetBytes):min inf
scalar TwoHosts.hostB.eth.mac packetDropIncorrectlyReceived:vector(packetBytes):max -inf
scalar TwoHosts.hostB.eth.mac packetDropIncorrectlyReceived:vector(packetBytes):starttime nan
scalar TwoHosts.hostB.eth.mac packetDropIncorrectlyReceived:vector(packetBytes):endtime nan
scalar TwoHosts.hostB.eth.mac packetDropInterfaceDown:vector(packetBytes):count 0
scalar TwoHosts.hostB.eth.mac packetDropInterfaceDown:vector(packetBytes):sum 0
scalar TwoHosts.hostB.eth.mac packetDropInterfaceDown:vector(packetBytes):sumweights 0
scalar TwoHosts.hostB.eth.mac packetDropInterfaceDown:vector(packetBytes):mean -nan
scalar TwoHosts.hostB.eth.mac packetDropInterfaceDown:vector(packetBytes):stddev nan
scalar TwoHosts.hostB.eth.mac packetDropInterfaceDown:vector(packetBytes):min inf
scalar TwoHosts.hostB.eth.mac packetDropInterfaceDown:vector(packetBytes):max -inf
scalar TwoHosts.hostB.eth.mac packetDropInterfaceDown:vector(packetBytes):starttime nan
scalar TwoHosts.hostB.eth.mac packetDropInterfaceDown:vector(packetBytes):endtime nan
scalar TwoHosts.hostB.eth.mac packetDropNotAddressedToUs:vector(packetBytes):count 0
scalar TwoHosts.hostB.eth.mac packetDropNotAddressedToUs:vector(packetBytes):sum 0
scalar TwoHosts.hostB.eth.mac packetDropNotAddressedToUs:vector(packetBytes):sumweights 0
scalar TwoHosts.hostB.eth.mac packetDropNotAddressedToUs:vector(packetBytes):mean -nan
scalar TwoHosts.hostB.eth.mac packetDropNotAddressedToUs:vector(packetBytes):stddev nan
scalar TwoHosts.hostB.eth.mac packetDropNotAddressedToUs:vector(packetBytes):min inf
scalar TwoHosts.hostB.eth.mac packetDropNotAddressedToUs:vector(packetBytes):max -inf
scalar TwoHosts.hostB.eth.mac packetDropNotAddressedToUs:vector(packetBytes):starttime nan
scalar TwoHosts.hostB.eth.mac packetDropNotAddressedToUs:vector(packetBytes):endtime nan
scalar TwoHosts.hostB.eth.mac collision:vector:count 0
scalar TwoHosts.hostB.eth.mac collision:vector:sum 0
scalar TwoHosts.hostB.eth.mac collision:vector:sumweights 0
scalar TwoHosts.hostB.eth.mac collision:vector:mean -nan
scalar TwoHosts.hostB.eth.mac collision:vector:stddev nan
scalar TwoHosts.hostB.eth.mac collision:vector:min inf
scalar TwoHosts.hostB.eth.mac collision:vector:max -inf
scalar TwoHosts.hostB.eth.mac collision:vector:starttime nan
scalar TwoHosts.hostB.eth.mac collision:vector:endtime nan
scalar TwoHosts.hostB.eth.mac backoffSlotsGenerated:vector:count 0
scalar TwoHosts.hostB.eth.mac backoffSlotsGenerated:vector:sum 0
scalar TwoHosts.hostB.eth.mac backoffSlotsGenerated:vector:sumweights 0
scalar TwoHosts.hostB.eth.mac backoffSlotsGenerated:vector:mean -nan
scalar TwoHosts.hostB.eth.mac backoffSlotsGenerated:vector:stddev nan
scalar TwoHosts.hostB.eth.mac backoffSlotsGenerated:vector:min inf
scalar TwoHosts.hostB.eth.mac backoffSlotsGenerated:vector:max -inf
scalar TwoHosts.hostB.eth.mac backoffSlotsGenerated:vector:starttime nan
scalar TwoHosts.hostB.eth.mac backoffSlotsGenerated:vector:endtime nan
scalar TwoHosts.hostB.eth packetDropInterfaceDown:vector(packetBytes):count 0
scalar TwoHosts.hostB.eth packetDropInterfaceDown:vector(packetBytes):sum 0
scalar TwoHosts.hostB.eth packetDropInterfaceDown:vector(packetBytes):sumweights 0
scalar TwoHosts.hostB.eth packetDropInterfaceDown:vector(packetBytes):mean -nan
scalar TwoHosts.hostB.eth packetDropInterfaceDown:vector(packetBytes):stddev nan
scalar TwoHosts.hostB.eth packetDropInterfaceDown:vector(packetBytes):min inf
scalar TwoHosts.hostB.eth packetDropInterfaceDown:vector(packetBytes):max -inf
scalar TwoHosts.hostB.eth packetDropInterfaceDown:vector(packetBytes):starttime nan
scalar TwoHosts.hostB.eth packetDropInterfaceDown:vector(packetBytes):endtime nan
scalar TwoHosts.hostB.eth packetDropNoCarrier:vector(packetBytes):count 0
scalar TwoHosts.hostB.eth packetDropNoCarrier:vector(packetBytes):sum 0
scalar TwoHosts.hostB.eth packetDropNoCarrier:vector(packetBytes):sumweights 0
scalar TwoHosts.hostB.eth packetDropNoCarrier:vector(packetBytes):mean -nan
scalar TwoHosts.hostB.eth packetDropNoCarrier:vector(packetBytes):stddev nan
scalar TwoHosts.hostB.eth packetDropNoCarrier:vector(packetBytes):min inf
scalar TwoHosts.hostB.eth packetDropNoCarrier:vector(packetBytes):max -inf
scalar TwoHosts.hostB.eth packetDropNoCarrier:vector(packetBytes):starttime nan
scalar TwoHosts.hostB.eth packetDropNoCarrier:vector(packetBytes):endtime nan

