version 3
run General-0-20241108-11:19:56-9141
attr configname General
attr datetime 20241108-11:19:56
attr datetimef 20241108-111956
attr experiment General
attr inifile ethernet-hub-reconnect.ini
attr iterationvars "$datarate=10Mbps, $csmacd=true, $duplex=false, $burst=true, $queue=\"EthernetQosQueue\""
attr iterationvarsd datarate=10Mbps/csmacd=true/duplex=false/burst=true/queue=EthernetQosQueue
attr iterationvarsf datarate=10Mbps,csmacd=true,duplex=false,burst=true,queue=EthernetQosQueue-
attr measurement "$datarate=10Mbps, $csmacd=true, $duplex=false, $burst=true, $queue=\"EthernetQosQueue\""
attr network inet.tests.ethernet.HostsWithHub
attr processid 9141
attr repetition 0
attr replication #0
attr resultdir results
attr runnumber 0
attr seedset 0
itervar burst true
itervar csmacd true
itervar datarate 10Mbps
itervar duplex false
itervar queue "\"EthernetQosQueue\""
config **.param-recording false
config **.vector-recording false
config image-path /home/levy/workspace/inet/images
config output-scalar-file results/ethernet-hub-reconnect.ini-General-#0.sca
config sim-time-limit 5.2s
config sim-time-limit 5.2s
config network inet.tests.ethernet.HostsWithHub
config **.vector-recording false
config **.channel.datarate 10Mbps
config **.channel.delay 10s/200000000
config **.csmacdSupport true
config **.duplexMode false
config **.frameBursting true
config **.queue.typename EthernetQosQueue
config **.queue.dataQueue.typename DropTailQueue
config **.queue.dataQueue.packetCapacity 100000
config **.queue.packetCapacity 100000
config **.hostA.app.destAddress "\"hostB\""
config **.hostB.app.destAddress "\"hostC\""
config **.hostC.app.destAddress "\"hostA\""
config **.app.packetLength "select(intuniform(0,2), intWithUnit(uniform(20B,70B)), intWithUnit(uniform(474B,514B)), intWithUnit(uniform(1200B,1497B)))"
config **.app.numPacketsPerBurst geometric(1/5)
config **.app.sendInterval 10ms
config **.scenarioManager.script "xmldoc(\"ethernet-hub-reconnect.xml\")"

scalar HostsWithHub.hostA.app packetReceived:count 2145
attr interpolationmode none
attr recordingmode count
attr source packetReceived
attr title "packets received, count"
scalar HostsWithHub.hostA.app packetReceived:sum(packetBytes) 1371097
attr interpolationmode none
attr recordingmode sum(packetBytes)
attr source packetReceived
attr title "packets received, sum(packetBytes)"
statistic HostsWithHub.hostA.app endToEndDelay:histogram
field count 2145
field mean 0.015289923403263
field stddev 0.020463896386212
field min 5.77e-05
field max 0.0939865
field sum 32.7968857
field sqrsum 1.3993070127938
attr interpolationmode none
attr recordingmode histogram
attr source dataAge(packetReceived)
attr title "end-to-end delay"
attr unit s
bin	-inf	0
bin	0	272
bin	0.0015	313
bin	0.003	286
bin	0.0045	216
bin	0.006	161
bin	0.0075	102
bin	0.009	75
bin	0.0105	50
bin	0.012	42
bin	0.0135	37
bin	0.015	31
bin	0.0165	30
bin	0.018	22
bin	0.0195	24
bin	0.021	15
bin	0.0225	24
bin	0.024	15
bin	0.0255	19
bin	0.027	16
bin	0.0285	11
bin	0.03	18
bin	0.0315	6
bin	0.033	13
bin	0.0345	14
bin	0.036	6
bin	0.0375	5
bin	0.039	9
bin	0.0405	11
bin	0.042	12
bin	0.0435	19
bin	0.045	17
bin	0.0465	22
bin	0.048	31
bin	0.0495	18
bin	0.051	18
bin	0.0525	17
bin	0.054	10
bin	0.0555	4
bin	0.057	7
bin	0.0585	11
bin	0.06	9
bin	0.0615	3
bin	0.063	3
bin	0.0645	5
bin	0.066	8
bin	0.0675	9
bin	0.069	6
bin	0.0705	4
bin	0.072	0
bin	0.0735	0
bin	0.075	4
bin	0.0765	10
bin	0.078	13
bin	0.0795	3
bin	0.081	4
bin	0.0825	5
bin	0.084	11
bin	0.0855	5
bin	0.087	4
bin	0.0885	6
bin	0.09	2
bin	0.0915	1
bin	0.093	1
bin	0.0945	0
scalar HostsWithHub.hostA.app packetSent:count 2086
attr interpolationmode none
attr recordingmode count
attr source packetSent
attr title "packets sent, count"
scalar HostsWithHub.hostA.app packetSent:sum(packetBytes) 1343919
attr interpolationmode none
attr recordingmode sum(packetBytes)
attr source packetSent
attr title "packets sent, sum(packetBytes)"
scalar HostsWithHub.hostA.ethernet pauseSent:count 0
attr recordingmode count
attr title "pause sent, count"
scalar HostsWithHub.hostA.ethernet pauseSent:sum 0
attr recordingmode sum
attr title "pause sent, sum"
scalar HostsWithHub.hostA.ethernet decapPk:count 2145
attr interpolationmode none
attr recordingmode count
attr source decapPk
attr title "packets decapsulated, count"
scalar HostsWithHub.hostA.ethernet decapPk:sum(packetBytes) 1377532
attr interpolationmode none
attr recordingmode sum(packetBytes)
attr source decapPk
attr title "packets decapsulated, sum(packetBytes)"
scalar HostsWithHub.hostA.ethernet encapPk:count 2086
attr interpolationmode none
attr recordingmode count
attr source encapPk
attr title "packets encapsulated, count"
scalar HostsWithHub.hostA.ethernet encapPk:sum(packetBytes) 1350177
attr interpolationmode none
attr recordingmode sum(packetBytes)
attr source encapPk
attr title "packets encapsulated, sum(packetBytes)"
scalar HostsWithHub.hostA.eth.queue.classifier packets:count 2086
attr recordingmode count
attr source packetPushed
attr title "packets, count"
attr unit pk
scalar HostsWithHub.hostA.eth.queue.classifier packetLengths:sum 11101800
attr interpolationmode none
attr recordingmode sum
attr source packetLength(packetPushed)
attr title "packet lengths, sum"
attr unit b
statistic HostsWithHub.hostA.eth.queue.classifier packetLengths:histogram
field count 2086
field mean 5322.0517737296
field stddev 4358.0549985034
field min 328
field max 12136
field sum 11101800
field sqrsum 98684015808
attr interpolationmode none
attr recordingmode histogram
attr source packetLength(packetPushed)
attr title "packet lengths"
attr unit b
bin	-inf	0
bin	0	0
bin	200	135
bin	400	322
bin	600	210
bin	800	0
bin	1000	0
bin	1200	0
bin	1400	0
bin	1600	0
bin	1800	0
bin	2000	0
bin	2200	0
bin	2400	0
bin	2600	0
bin	2800	0
bin	3000	0
bin	3200	0
bin	3400	0
bin	3600	0
bin	3800	83
bin	4000	455
bin	4200	162
bin	4400	0
bin	4600	0
bin	4800	0
bin	5000	0
bin	5200	0
bin	5400	0
bin	5600	0
bin	5800	0
bin	6000	0
bin	6200	0
bin	6400	0
bin	6600	0
bin	6800	0
bin	7000	0
bin	7200	0
bin	7400	0
bin	7600	0
bin	7800	0
bin	8000	0
bin	8200	0
bin	8400	0
bin	8600	0
bin	8800	0
bin	9000	0
bin	9200	0
bin	9400	0
bin	9600	10
bin	9800	67
bin	10000	62
bin	10200	51
bin	10400	61
bin	10600	60
bin	10800	60
bin	11000	61
bin	11200	48
bin	11400	68
bin	11600	67
bin	11800	54
bin	12000	50
bin	12200	0
bin	12400	0
bin	12600	0
bin	12800	0
bin	13000	0
bin	13200	0
bin	13400	0
bin	13600	0
bin	13800	0
bin	14000	0
bin	14200	0
bin	14400	0
bin	14600	0
bin	14800	0
bin	15000	0
bin	15200	0
scalar HostsWithHub.hostA.eth.queue.pauseQueue queueLength:last 0
attr autoWarmupFilter false
attr interpolationmode sample-hold
attr recordingmode last
attr source "warmup(atomic(constant0(packetPushEnded) + count(packetPushStarted) - count(packetPulled) - count(packetRemoved) - count(packetDropped)))"
attr title "queue length, last"
attr unit pk
scalar HostsWithHub.hostA.eth.queue.pauseQueue queueLength:max 0
attr autoWarmupFilter false
attr interpolationmode sample-hold
attr recordingmode max
attr source "warmup(atomic(constant0(packetPushEnded) + count(packetPushStarted) - count(packetPulled) - count(packetRemoved) - count(packetDropped)))"
attr title "queue length, max"
attr unit pk
scalar HostsWithHub.hostA.eth.queue.pauseQueue queueLength:timeavg 0
attr autoWarmupFilter false
attr interpolationmode sample-hold
attr recordingmode timeavg
attr source "warmup(atomic(constant0(packetPushEnded) + count(packetPushStarted) - count(packetPulled) - count(packetRemoved) - count(packetDropped)))"
attr title "queue length, timeavg"
attr unit pk
scalar HostsWithHub.hostA.eth.queue.pauseQueue queueBitLength:last 0
attr autoWarmupFilter false
attr interpolationmode sample-hold
attr recordingmode last
attr source "warmup(atomic(constant0(packetPushEnded) + sum(packetLength(packetPushStarted)) - sum(packetLength(packetPulled)) - sum(packetLength(packetRemoved)) - sum(packetLength(packetDropped))))"
attr title "queue bit length, last"
attr unit b
scalar HostsWithHub.hostA.eth.queue.pauseQueue queueBitLength:max 0
attr autoWarmupFilter false
attr interpolationmode sample-hold
attr recordingmode max
attr source "warmup(atomic(constant0(packetPushEnded) + sum(packetLength(packetPushStarted)) - sum(packetLength(packetPulled)) - sum(packetLength(packetRemoved)) - sum(packetLength(packetDropped))))"
attr title "queue bit length, max"
attr unit b
scalar HostsWithHub.hostA.eth.queue.pauseQueue queueBitLength:timeavg 0
attr autoWarmupFilter false
attr interpolationmode sample-hold
attr recordingmode timeavg
attr source "warmup(atomic(constant0(packetPushEnded) + sum(packetLength(packetPushStarted)) - sum(packetLength(packetPulled)) - sum(packetLength(packetRemoved)) - sum(packetLength(packetDropped))))"
attr title "queue bit length, timeavg"
attr unit b
statistic HostsWithHub.hostA.eth.queue.pauseQueue queueingTime:histogram
field count 0
field mean -nan
field stddev nan
field min nan
field max nan
field sum 0
field sqrsum 0
attr interpolationmode none
attr recordingmode histogram
attr source queueingTime(packetPulled)
attr title "queueing times"
attr unit s
bin	-inf	0
bin	0	0
bin	1	0
scalar HostsWithHub.hostA.eth.queue.pauseQueue outgoingPackets:count 0
attr recordingmode count
attr source packetPulled
attr title "outgoing packets, count"
attr unit pk
scalar HostsWithHub.hostA.eth.queue.pauseQueue outgoingPacketLengths:sum 0
attr interpolationmode none
attr recordingmode sum
attr source packetLength(packetPulled)
attr title "outgoing packet lengths, sum"
attr unit b
statistic HostsWithHub.hostA.eth.queue.pauseQueue outgoingPacketLengths:histogram
field count 0
field mean -nan
field stddev nan
field min nan
field max nan
field sum 0
field sqrsum 0
attr interpolationmode none
attr recordingmode histogram
attr source packetLength(packetPulled)
attr title "outgoing packet lengths"
attr unit b
bin	-inf	0
bin	0	0
bin	1	0
statistic HostsWithHub.hostA.eth.queue.pauseQueue flowQueueingTime:histogram
field count 0
field mean -nan
field stddev nan
field min nan
field max nan
field sum 0
field sqrsum 0
attr interpolationmode none
attr recordingmode histogram
attr source queueingTime(demuxFlow(packetPulled))
attr title "flow queueing times"
attr unit s
bin	-inf	0
bin	0	0
bin	1	0
scalar HostsWithHub.hostA.eth.queue.pauseQueue incomingPackets:count 0
attr recordingmode count
attr source packetPushStarted
attr title "incoming packets, count"
attr unit pk
scalar HostsWithHub.hostA.eth.queue.pauseQueue incomingPacketLengths:sum 0
attr interpolationmode none
attr recordingmode sum
attr source packetLength(packetPushStarted)
attr title "incoming packet lengths, sum"
attr unit b
statistic HostsWithHub.hostA.eth.queue.pauseQueue incomingPacketLengths:histogram
field count 0
field mean -nan
field stddev nan
field min nan
field max nan
field sum 0
field sqrsum 0
attr interpolationmode none
attr recordingmode histogram
attr source packetLength(packetPushStarted)
attr title "incoming packet lengths"
attr unit b
bin	-inf	0
bin	0	0
bin	1	0
scalar HostsWithHub.hostA.eth.queue.pauseQueue droppedPacketsQueueOverflow:count 0
attr interpolationmode none
attr recordingmode count
attr source packetDropReasonIsQueueOverflow(packetDropped)
attr title "dropped packets: queue overflow, count"
attr unit pk
scalar HostsWithHub.hostA.eth.queue.pauseQueue droppedPacketLengthsQueueOverflow:sum 0
attr interpolationmode none
attr recordingmode sum
attr source packetLength(packetDropReasonIsQueueOverflow(packetDropped))
attr title "dropped packet lengths: queue overflow, sum"
attr unit b
scalar HostsWithHub.hostA.eth.queue.dataQueue queueLength:last 1
attr autoWarmupFilter false
attr interpolationmode sample-hold
attr recordingmode last
attr source "warmup(atomic(constant0(packetPushEnded) + count(packetPushStarted) - count(packetPulled) - count(packetRemoved) - count(packetDropped)))"
attr title "queue length, last"
attr unit pk
scalar HostsWithHub.hostA.eth.queue.dataQueue queueLength:max 80
attr autoWarmupFilter false
attr interpolationmode sample-hold
attr recordingmode max
attr source "warmup(atomic(constant0(packetPushEnded) + count(packetPushStarted) - count(packetPulled) - count(packetRemoved) - count(packetDropped)))"
attr title "queue length, max"
attr unit pk
scalar HostsWithHub.hostA.eth.queue.dataQueue queueLength:timeavg 8.54906725
attr autoWarmupFilter false
attr interpolationmode sample-hold
attr recordingmode timeavg
attr source "warmup(atomic(constant0(packetPushEnded) + count(packetPushStarted) - count(packetPulled) - count(packetRemoved) - count(packetDropped)))"
attr title "queue length, timeavg"
attr unit pk
scalar HostsWithHub.hostA.eth.queue.dataQueue queueBitLength:last 10824
attr autoWarmupFilter false
attr interpolationmode sample-hold
attr recordingmode last
attr source "warmup(atomic(constant0(packetPushEnded) + sum(packetLength(packetPushStarted)) - sum(packetLength(packetPulled)) - sum(packetLength(packetRemoved)) - sum(packetLength(packetDropped))))"
attr title "queue bit length, last"
attr unit b
scalar HostsWithHub.hostA.eth.queue.dataQueue queueBitLength:max 446128
attr autoWarmupFilter false
attr interpolationmode sample-hold
attr recordingmode max
attr source "warmup(atomic(constant0(packetPushEnded) + sum(packetLength(packetPushStarted)) - sum(packetLength(packetPulled)) - sum(packetLength(packetRemoved)) - sum(packetLength(packetDropped))))"
attr title "queue bit length, max"
attr unit b
scalar HostsWithHub.hostA.eth.queue.dataQueue queueBitLength:timeavg 45879.543647692
attr autoWarmupFilter false
attr interpolationmode sample-hold
attr recordingmode timeavg
attr source "warmup(atomic(constant0(packetPushEnded) + sum(packetLength(packetPushStarted)) - sum(packetLength(packetPulled)) - sum(packetLength(packetRemoved)) - sum(packetLength(packetDropped))))"
attr title "queue bit length, timeavg"
attr unit b
statistic HostsWithHub.hostA.eth.queue.dataQueue queueingTime:histogram
field count 2085
field mean 0.021321414724221
field stddev 0.034344340035043
field min 0
field max 0.2006055
field sum 44.4551497
field sqrsum 3.4059948984316
attr interpolationmode none
attr recordingmode histogram
attr source queueingTime(packetPulled)
attr title "queueing times"
attr unit s
bin	-inf	0
bin	0	750
bin	0.0032	314
bin	0.0064	189
bin	0.0096	89
bin	0.0128	57
bin	0.016	65
bin	0.0192	43
bin	0.0224	45
bin	0.0256	52
bin	0.0288	47
bin	0.032	50
bin	0.0352	27
bin	0.0384	20
bin	0.0416	13
bin	0.0448	24
bin	0.048	14
bin	0.0512	26
bin	0.0544	4
bin	0.0576	12
bin	0.0608	20
bin	0.064	25
bin	0.0672	19
bin	0.0704	4
bin	0.0736	5
bin	0.0768	17
bin	0.08	9
bin	0.0832	4
bin	0.0864	3
bin	0.0896	4
bin	0.0928	8
bin	0.096	14
bin	0.0992	7
bin	0.1024	2
bin	0.1056	13
bin	0.1088	5
bin	0.112	10
bin	0.1152	9
bin	0.1184	1
bin	0.1216	7
bin	0.1248	3
bin	0.128	8
bin	0.1312	6
bin	0.1344	8
bin	0.1376	4
bin	0.1408	0
bin	0.144	0
bin	0.1472	0
bin	0.1504	2
bin	0.1536	3
bin	0.1568	3
bin	0.16	2
bin	0.1632	0
bin	0.1664	0
bin	0.1696	2
bin	0.1728	0
bin	0.176	5
bin	0.1792	0
bin	0.1824	5
bin	0.1856	5
bin	0.1888	0
bin	0.192	1
bin	0.1952	0
bin	0.1984	1
bin	0.2016	0
scalar HostsWithHub.hostA.eth.queue.dataQueue outgoingPackets:count 2085
attr recordingmode count
attr source packetPulled
attr title "outgoing packets, count"
attr unit pk
scalar HostsWithHub.hostA.eth.queue.dataQueue outgoingPacketLengths:sum 11090976
attr interpolationmode none
attr recordingmode sum
attr source packetLength(packetPulled)
attr title "outgoing packet lengths, sum"
attr unit b
statistic HostsWithHub.hostA.eth.queue.dataQueue outgoingPacketLengths:histogram
field count 2085
field mean 5319.4129496403
field stddev 4357.4332255899
field min 328
field max 12136
field sum 11090976
field sqrsum 98566856832
attr interpolationmode none
attr recordingmode histogram
attr source packetLength(packetPulled)
attr title "outgoing packet lengths"
attr unit b
bin	-inf	0
bin	0	0
bin	200	135
bin	400	322
bin	600	210
bin	800	0
bin	1000	0
bin	1200	0
bin	1400	0
bin	1600	0
bin	1800	0
bin	2000	0
bin	2200	0
bin	2400	0
bin	2600	0
bin	2800	0
bin	3000	0
bin	3200	0
bin	3400	0
bin	3600	0
bin	3800	83
bin	4000	455
bin	4200	162
bin	4400	0
bin	4600	0
bin	4800	0
bin	5000	0
bin	5200	0
bin	5400	0
bin	5600	0
bin	5800	0
bin	6000	0
bin	6200	0
bin	6400	0
bin	6600	0
bin	6800	0
bin	7000	0
bin	7200	0
bin	7400	0
bin	7600	0
bin	7800	0
bin	8000	0
bin	8200	0
bin	8400	0
bin	8600	0
bin	8800	0
bin	9000	0
bin	9200	0
bin	9400	0
bin	9600	10
bin	9800	67
bin	10000	62
bin	10200	51
bin	10400	61
bin	10600	60
bin	10800	59
bin	11000	61
bin	11200	48
bin	11400	68
bin	11600	67
bin	11800	54
bin	12000	50
bin	12200	0
bin	12400	0
bin	12600	0
bin	12800	0
bin	13000	0
bin	13200	0
bin	13400	0
bin	13600	0
bin	13800	0
bin	14000	0
bin	14200	0
bin	14400	0
bin	14600	0
bin	14800	0
bin	15000	0
bin	15200	0
statistic HostsWithHub.hostA.eth.queue.dataQueue flowQueueingTime:histogram
field count 0
field mean -nan
field stddev nan
field min nan
field max nan
field sum 0
field sqrsum 0
attr interpolationmode none
attr recordingmode histogram
attr source queueingTime(demuxFlow(packetPulled))
attr title "flow queueing times"
attr unit s
bin	-inf	0
bin	0	0
bin	1	0
scalar HostsWithHub.hostA.eth.queue.dataQueue incomingPackets:count 2086
attr recordingmode count
attr source packetPushStarted
attr title "incoming packets, count"
attr unit pk
scalar HostsWithHub.hostA.eth.queue.dataQueue incomingPacketLengths:sum 11101800
attr interpolationmode none
attr recordingmode sum
attr source packetLength(packetPushStarted)
attr title "incoming packet lengths, sum"
attr unit b
statistic HostsWithHub.hostA.eth.queue.dataQueue incomingPacketLengths:histogram
field count 2086
field mean 5322.0517737296
field stddev 4358.0549985034
field min 328
field max 12136
field sum 11101800
field sqrsum 98684015808
attr interpolationmode none
attr recordingmode histogram
attr source packetLength(packetPushStarted)
attr title "incoming packet lengths"
attr unit b
bin	-inf	0
bin	0	0
bin	200	135
bin	400	322
bin	600	210
bin	800	0
bin	1000	0
bin	1200	0
bin	1400	0
bin	1600	0
bin	1800	0
bin	2000	0
bin	2200	0
bin	2400	0
bin	2600	0
bin	2800	0
bin	3000	0
bin	3200	0
bin	3400	0
bin	3600	0
bin	3800	83
bin	4000	455
bin	4200	162
bin	4400	0
bin	4600	0
bin	4800	0
bin	5000	0
bin	5200	0
bin	5400	0
bin	5600	0
bin	5800	0
bin	6000	0
bin	6200	0
bin	6400	0
bin	6600	0
bin	6800	0
bin	7000	0
bin	7200	0
bin	7400	0
bin	7600	0
bin	7800	0
bin	8000	0
bin	8200	0
bin	8400	0
bin	8600	0
bin	8800	0
bin	9000	0
bin	9200	0
bin	9400	0
bin	9600	10
bin	9800	67
bin	10000	62
bin	10200	51
bin	10400	61
bin	10600	60
bin	10800	60
bin	11000	61
bin	11200	48
bin	11400	68
bin	11600	67
bin	11800	54
bin	12000	50
bin	12200	0
bin	12400	0
bin	12600	0
bin	12800	0
bin	13000	0
bin	13200	0
bin	13400	0
bin	13600	0
bin	13800	0
bin	14000	0
bin	14200	0
bin	14400	0
bin	14600	0
bin	14800	0
bin	15000	0
bin	15200	0
scalar HostsWithHub.hostA.eth.queue.dataQueue droppedPacketsQueueOverflow:count 0
attr interpolationmode none
attr recordingmode count
attr source packetDropReasonIsQueueOverflow(packetDropped)
attr title "dropped packets: queue overflow, count"
attr unit pk
scalar HostsWithHub.hostA.eth.queue.dataQueue droppedPacketLengthsQueueOverflow:sum 0
attr interpolationmode none
attr recordingmode sum
attr source packetLength(packetDropReasonIsQueueOverflow(packetDropped))
attr title "dropped packet lengths: queue overflow, sum"
attr unit b
scalar HostsWithHub.hostA.eth.queue.scheduler packets:count 2085
attr recordingmode count
attr source packetPulled
attr title "packets, count"
attr unit pk
scalar HostsWithHub.hostA.eth.queue.scheduler packetLengths:sum 11090976
attr interpolationmode none
attr recordingmode sum
attr source packetLength(packetPulled)
attr title "packet lengths, sum"
attr unit b
statistic HostsWithHub.hostA.eth.queue.scheduler packetLengths:histogram
field count 2085
field mean 5319.4129496403
field stddev 4357.4332255899
field min 328
field max 12136
field sum 11090976
field sqrsum 98566856832
attr interpolationmode none
attr recordingmode histogram
attr source packetLength(packetPulled)
attr title "packet lengths"
attr unit b
bin	-inf	0
bin	0	0
bin	200	135
bin	400	322
bin	600	210
bin	800	0
bin	1000	0
bin	1200	0
bin	1400	0
bin	1600	0
bin	1800	0
bin	2000	0
bin	2200	0
bin	2400	0
bin	2600	0
bin	2800	0
bin	3000	0
bin	3200	0
bin	3400	0
bin	3600	0
bin	3800	83
bin	4000	455
bin	4200	162
bin	4400	0
bin	4600	0
bin	4800	0
bin	5000	0
bin	5200	0
bin	5400	0
bin	5600	0
bin	5800	0
bin	6000	0
bin	6200	0
bin	6400	0
bin	6600	0
bin	6800	0
bin	7000	0
bin	7200	0
bin	7400	0
bin	7600	0
bin	7800	0
bin	8000	0
bin	8200	0
bin	8400	0
bin	8600	0
bin	8800	0
bin	9000	0
bin	9200	0
bin	9400	0
bin	9600	10
bin	9800	67
bin	10000	62
bin	10200	51
bin	10400	61
bin	10600	60
bin	10800	59
bin	11000	61
bin	11200	48
bin	11400	68
bin	11600	67
bin	11800	54
bin	12000	50
bin	12200	0
bin	12400	0
bin	12600	0
bin	12800	0
bin	13000	0
bin	13200	0
bin	13400	0
bin	13600	0
bin	13800	0
bin	14000	0
bin	14200	0
bin	14400	0
bin	14600	0
bin	14800	0
bin	15000	0
bin	15200	0
scalar HostsWithHub.hostA.eth.queue queueLength:last -2085
attr autoWarmupFilter false
attr interpolationmode sample-hold
attr recordingmode last
attr source "warmup(atomic(constant0(localSignal(packetPushEnded)) + count(localSignal(packetPushStarted)) - count(localSignal(packetPulled)) - count(localSignal(packetRemoved)) - count(localSignal(packetDropped))))"
attr title "queue length, last"
attr unit pk
scalar HostsWithHub.hostA.eth.queue queueLength:max 0
attr autoWarmupFilter false
attr interpolationmode sample-hold
attr recordingmode max
attr source "warmup(atomic(constant0(localSignal(packetPushEnded)) + count(localSignal(packetPushStarted)) - count(localSignal(packetPulled)) - count(localSignal(packetRemoved)) - count(localSignal(packetDropped))))"
attr title "queue length, max"
attr unit pk
scalar HostsWithHub.hostA.eth.queue queueLength:timeavg -1016.9086250577
attr autoWarmupFilter false
attr interpolationmode sample-hold
attr recordingmode timeavg
attr source "warmup(atomic(constant0(localSignal(packetPushEnded)) + count(localSignal(packetPushStarted)) - count(localSignal(packetPulled)) - count(localSignal(packetRemoved)) - count(localSignal(packetDropped))))"
attr title "queue length, timeavg"
attr unit pk
scalar HostsWithHub.hostA.eth.queue queueBitLength:last -11090976
attr autoWarmupFilter false
attr interpolationmode sample-hold
attr recordingmode last
attr source "warmup(atomic(constant0(localSignal(packetPushEnded)) + sum(packetLength(localSignal(packetPushStarted))) - sum(packetLength(localSignal(packetPulled))) - sum(packetLength(localSignal(packetRemoved))) - sum(packetLength(localSignal(packetDropped)))))"
attr title "queue bit length, last"
attr unit b
scalar HostsWithHub.hostA.eth.queue queueBitLength:max 0
attr autoWarmupFilter false
attr interpolationmode sample-hold
attr recordingmode max
attr source "warmup(atomic(constant0(localSignal(packetPushEnded)) + sum(packetLength(localSignal(packetPushStarted))) - sum(packetLength(localSignal(packetPulled))) - sum(packetLength(localSignal(packetRemoved))) - sum(packetLength(localSignal(packetDropped)))))"
attr title "queue bit length, max"
attr unit b
scalar HostsWithHub.hostA.eth.queue queueBitLength:timeavg -5269195.3794292
attr autoWarmupFilter false
attr interpolationmode sample-hold
attr recordingmode timeavg
attr source "warmup(atomic(constant0(localSignal(packetPushEnded)) + sum(packetLength(localSignal(packetPushStarted))) - sum(packetLength(localSignal(packetPulled))) - sum(packetLength(localSignal(packetRemoved))) - sum(packetLength(localSignal(packetDropped)))))"
attr title "queue bit length, timeavg"
attr unit b
statistic HostsWithHub.hostA.eth.queue queueingTime:histogram
field count 2085
field mean 0
field stddev 0
field min 0
field max 0
field sum 0
field sqrsum 0
attr interpolationmode none
attr recordingmode histogram
attr source queueingTime(localSignal(packetPulled))
attr title "queueing times"
attr unit s
bin	-inf	0
bin	-0.5	0
bin	-0.48	0
bin	-0.46	0
bin	-0.44	0
bin	-0.42	0
bin	-0.4	0
bin	-0.38	0
bin	-0.36	0
bin	-0.34	0
bin	-0.32	0
bin	-0.3	0
bin	-0.28	0
bin	-0.26	0
bin	-0.24	0
bin	-0.22	0
bin	-0.2	0
bin	-0.18	0
bin	-0.16	0
bin	-0.14	0
bin	-0.12	0
bin	-0.1	0
bin	-0.08	0
bin	-0.06	0
bin	-0.04	0
bin	-0.02	0
bin	0	2085
bin	0.02	0
bin	0.04	0
bin	0.06	0
bin	0.08	0
bin	0.1	0
bin	0.12	0
bin	0.14	0
bin	0.16	0
bin	0.18	0
bin	0.2	0
bin	0.22	0
bin	0.24	0
bin	0.26	0
bin	0.28	0
bin	0.3	0
bin	0.32	0
bin	0.34	0
bin	0.36	0
bin	0.38	0
bin	0.4	0
bin	0.42	0
bin	0.44	0
bin	0.46	0
bin	0.48	0
bin	0.5	0
scalar HostsWithHub.hostA.eth.queue outgoingPackets:count 2085
attr recordingmode count
attr source localSignal(packetPulled)
attr title "outgoing packets, count"
attr unit pk
scalar HostsWithHub.hostA.eth.queue outgoingPacketLengths:sum 11090976
attr interpolationmode none
attr recordingmode sum
attr source packetLength(localSignal(packetPulled))
attr title "outgoing packet lengths, sum"
attr unit b
statistic HostsWithHub.hostA.eth.queue outgoingPacketLengths:histogram
field count 2085
field mean 5319.4129496403
field stddev 4357.4332255899
field min 328
field max 12136
field sum 11090976
field sqrsum 98566856832
attr interpolationmode none
attr recordingmode histogram
attr source packetLength(localSignal(packetPulled))
attr title "outgoing packet lengths"
attr unit b
bin	-inf	0
bin	0	0
bin	200	135
bin	400	322
bin	600	210
bin	800	0
bin	1000	0
bin	1200	0
bin	1400	0
bin	1600	0
bin	1800	0
bin	2000	0
bin	2200	0
bin	2400	0
bin	2600	0
bin	2800	0
bin	3000	0
bin	3200	0
bin	3400	0
bin	3600	0
bin	3800	83
bin	4000	455
bin	4200	162
bin	4400	0
bin	4600	0
bin	4800	0
bin	5000	0
bin	5200	0
bin	5400	0
bin	5600	0
bin	5800	0
bin	6000	0
bin	6200	0
bin	6400	0
bin	6600	0
bin	6800	0
bin	7000	0
bin	7200	0
bin	7400	0
bin	7600	0
bin	7800	0
bin	8000	0
bin	8200	0
bin	8400	0
bin	8600	0
bin	8800	0
bin	9000	0
bin	9200	0
bin	9400	0
bin	9600	10
bin	9800	67
bin	10000	62
bin	10200	51
bin	10400	61
bin	10600	60
bin	10800	59
bin	11000	61
bin	11200	48
bin	11400	68
bin	11600	67
bin	11800	54
bin	12000	50
bin	12200	0
bin	12400	0
bin	12600	0
bin	12800	0
bin	13000	0
bin	13200	0
bin	13400	0
bin	13600	0
bin	13800	0
bin	14000	0
bin	14200	0
bin	14400	0
bin	14600	0
bin	14800	0
bin	15000	0
bin	15200	0
statistic HostsWithHub.hostA.eth.queue flowQueueingTime:histogram
field count 0
field mean -nan
field stddev nan
field min nan
field max nan
field sum 0
field sqrsum 0
attr interpolationmode none
attr recordingmode histogram
attr source queueingTime(demuxFlow(localSignal(packetPulled)))
attr title "flow queueing times"
attr unit s
bin	-inf	0
bin	0	0
bin	1	0
scalar HostsWithHub.hostA.eth.queue incomingPackets:count 0
attr recordingmode count
attr source localSignal(packetPushStarted)
attr title "incoming packets, count"
attr unit pk
scalar HostsWithHub.hostA.eth.queue incomingPacketLengths:sum 0
attr interpolationmode none
attr recordingmode sum
attr source packetLength(localSignal(packetPushStarted))
attr title "incoming packet lengths, sum"
attr unit b
statistic HostsWithHub.hostA.eth.queue incomingPacketLengths:histogram
field count 0
field mean -nan
field stddev nan
field min nan
field max nan
field sum 0
field sqrsum 0
attr interpolationmode none
attr recordingmode histogram
attr source packetLength(localSignal(packetPushStarted))
attr title "incoming packet lengths"
attr unit b
bin	-inf	0
bin	0	0
bin	1	0
scalar HostsWithHub.hostA.eth.queue droppedPacketsQueueOverflow:count 0
attr interpolationmode none
attr recordingmode count
attr source packetDropReasonIsQueueOverflow(localSignal(packetDropped))
attr title "dropped packets: queue overflow, count"
attr unit pk
scalar HostsWithHub.hostA.eth.queue droppedPacketLengthsQueueOverflow:sum 0
attr interpolationmode none
attr recordingmode sum
attr source packetLength(packetDropReasonIsQueueOverflow(localSignal(packetDropped)))
attr title "dropped packet lengths: queue overflow, sum"
attr unit b
scalar HostsWithHub.hostA.eth.mac "simulated time" 5.2
scalar HostsWithHub.hostA.eth.mac full-duplex 0
scalar HostsWithHub.hostA.eth.mac "frames/sec sent" 382.30769230769
scalar HostsWithHub.hostA.eth.mac "frames/sec rcvd" 412.5
scalar HostsWithHub.hostA.eth.mac "bits/sec sent" 2053798.4615385
scalar HostsWithHub.hostA.eth.mac "bits/sec rcvd" 2185009.2307692
scalar HostsWithHub.hostA.eth.mac "rx channel idle (%)" 38.296807692308
scalar HostsWithHub.hostA.eth.mac "rx channel utilization (%)" 59.527030769231
scalar HostsWithHub.hostA.eth.mac "rx channel collision (%)" 2.1761615384615
scalar HostsWithHub.hostA.eth.mac collisions 2091
scalar HostsWithHub.hostA.eth.mac backoffs 1539
scalar HostsWithHub.hostA.eth.mac backoffSlotsGenerated:count 1539
attr interpolationmode none
attr recordingmode count
attr title "backoff, count"
scalar HostsWithHub.hostA.eth.mac collision:count 2091
attr interpolationmode none
attr recordingmode count
attr title "collision, count"
scalar HostsWithHub.hostA.eth.mac rxPausePkUnits:count 0
attr interpolationmode none
attr recordingmode count
attr title "pause units received, count"
scalar HostsWithHub.hostA.eth.mac rxPausePkUnits:sum 0
attr interpolationmode none
attr recordingmode sum
attr title "pause units received, sum"
scalar HostsWithHub.hostA.eth.mac txPausePkUnits:count 0
attr interpolationmode none
attr recordingmode count
attr title "pause units sent, count"
scalar HostsWithHub.hostA.eth.mac txPausePkUnits:sum 0
attr interpolationmode none
attr recordingmode sum
attr title "pause units sent, sum"
scalar HostsWithHub.hostA.eth.mac rxPkOk:count 2145
attr interpolationmode none
attr recordingmode count
attr source rxPkOk
attr title "packets received OK, count"
scalar HostsWithHub.hostA.eth.mac rxPkOk:sum(packetBytes) 1420256
attr interpolationmode none
attr recordingmode sum(packetBytes)
attr source rxPkOk
attr title "packets received OK, sum(packetBytes)"
scalar HostsWithHub.hostA.eth.mac txPk:count 1988
attr interpolationmode none
attr recordingmode count
attr source packetSentToLower
attr title "packets transmitted, count"
scalar HostsWithHub.hostA.eth.mac txPk:sum(packetBytes) 1334969
attr interpolationmode none
attr recordingmode sum(packetBytes)
attr source packetSentToLower
attr title "packets transmitted, sum(packetBytes)"
scalar HostsWithHub.hostA.eth.mac packetReceivedFromUpper:count 2085
attr interpolationmode none
attr recordingmode count
attr source packetReceivedFromUpper
attr title "packet bytes from higher layer, count"
scalar HostsWithHub.hostA.eth.mac packetReceivedFromUpper:sum(packetBytes) 1386372
attr interpolationmode none
attr recordingmode sum(packetBytes)
attr source packetReceivedFromUpper
attr title "packet bytes from higher layer, sum(packetBytes)"
scalar HostsWithHub.hostA.eth.mac passedUpPk:count 2145
attr interpolationmode none
attr recordingmode count
attr source packetSentToUpper
attr title "packets passed to higher layer, count"
scalar HostsWithHub.hostA.eth.mac passedUpPk:sum(packetBytes) 1420256
attr interpolationmode none
attr recordingmode sum(packetBytes)
attr source packetSentToUpper
attr title "packets passed to higher layer, sum(packetBytes)"
scalar HostsWithHub.hostA.eth.mac packetDropIncorrectlyReceived:count 0
attr interpolationmode none
attr recordingmode count
attr source packetDropReasonIsIncorrectlyReceived(packetDropped)
attr title "packet drop: incorrectly received, count"
scalar HostsWithHub.hostA.eth.mac packetDropIncorrectlyReceived:sum(packetBytes) 0
attr interpolationmode none
attr recordingmode sum(packetBytes)
attr source packetDropReasonIsIncorrectlyReceived(packetDropped)
attr title "packet drop: incorrectly received, sum(packetBytes)"
scalar HostsWithHub.hostA.eth.mac packetDropInterfaceDown:count 95
attr interpolationmode none
attr recordingmode count
attr source packetDropReasonIsInterfaceDown(packetDropped)
attr title "packet drop: interface down, count"
scalar HostsWithHub.hostA.eth.mac packetDropInterfaceDown:sum(packetBytes) 53669
attr interpolationmode none
attr recordingmode sum(packetBytes)
attr source packetDropReasonIsInterfaceDown(packetDropped)
attr title "packet drop: interface down, sum(packetBytes)"
scalar HostsWithHub.hostA.eth.mac packetDropNotAddressedToUs:count 1660
attr interpolationmode none
attr recordingmode count
attr source packetDropReasonIsNotAddressedToUs(packetDropped)
attr title "packet drop: not addressed to us, count"
scalar HostsWithHub.hostA.eth.mac packetDropNotAddressedToUs:sum(packetBytes) 1067688
attr interpolationmode none
attr recordingmode sum(packetBytes)
attr source packetDropReasonIsNotAddressedToUs(packetDropped)
attr title "packet drop: not addressed to us, sum(packetBytes)"
scalar HostsWithHub.hostA.eth packetDropInterfaceDown:count 95
attr interpolationmode none
attr recordingmode count
attr source packetDropReasonIsInterfaceDown(packetDropped)
attr title "packet drops: interface down, count"
scalar HostsWithHub.hostA.eth packetDropInterfaceDown:sum(packetBytes) 53669
attr interpolationmode none
attr recordingmode sum(packetBytes)
attr source packetDropReasonIsInterfaceDown(packetDropped)
attr title "packet drops: interface down, sum(packetBytes)"
scalar HostsWithHub.hostA.eth packetDropNoCarrier:count 0
attr interpolationmode none
attr recordingmode count
attr source packetDropReasonIsNoCarrier(packetDropped)
attr title "packet drops: no carrier, count"
scalar HostsWithHub.hostA.eth packetDropNoCarrier:sum(packetBytes) 0
attr interpolationmode none
attr recordingmode sum(packetBytes)
attr source packetDropReasonIsNoCarrier(packetDropped)
attr title "packet drops: no carrier, sum(packetBytes)"
scalar HostsWithHub.hostB.app packetReceived:count 1930
attr interpolationmode none
attr recordingmode count
attr source packetReceived
attr title "packets received, count"
scalar HostsWithHub.hostB.app packetReceived:sum(packetBytes) 1253199
attr interpolationmode none
attr recordingmode sum(packetBytes)
attr source packetReceived
attr title "packets received, sum(packetBytes)"
statistic HostsWithHub.hostB.app endToEndDelay:histogram
field count 1930
field mean 0.024201660673575
field stddev 0.035432561957537
field min 5.77e-05
field max 0.2028596
field sum 46.7092051
field sqrsum 3.552235108184
attr interpolationmode none
attr recordingmode histogram
attr source dataAge(packetReceived)
attr title "end-to-end delay"
attr unit s
bin	-inf	0
bin	0	696
bin	0.005	387
bin	0.01	118
bin	0.015	98
bin	0.02	61
bin	0.025	90
bin	0.03	76
bin	0.035	50
bin	0.04	18
bin	0.045	34
bin	0.05	35
bin	0.055	9
bin	0.06	29
bin	0.065	39
bin	0.07	11
bin	0.075	18
bin	0.08	12
bin	0.085	6
bin	0.09	9
bin	0.095	23
bin	0.1	6
bin	0.105	15
bin	0.11	11
bin	0.115	12
bin	0.12	7
bin	0.125	7
bin	0.13	11
bin	0.135	10
bin	0.14	2
bin	0.145	0
bin	0.15	2
bin	0.155	5
bin	0.16	3
bin	0.165	0
bin	0.17	2
bin	0.175	5
bin	0.18	3
bin	0.185	8
bin	0.19	1
bin	0.195	0
bin	0.2	1
bin	0.205	0
bin	0.21	0
bin	0.215	0
bin	0.22	0
bin	0.225	0
bin	0.23	0
bin	0.235	0
bin	0.24	0
scalar HostsWithHub.hostB.app packetSent:count 1914
attr interpolationmode none
attr recordingmode count
attr source packetSent
attr title "packets sent, count"
scalar HostsWithHub.hostB.app packetSent:sum(packetBytes) 1193309
attr interpolationmode none
attr recordingmode sum(packetBytes)
attr source packetSent
attr title "packets sent, sum(packetBytes)"
scalar HostsWithHub.hostB.ethernet pauseSent:count 0
attr recordingmode count
attr title "pause sent, count"
scalar HostsWithHub.hostB.ethernet pauseSent:sum 0
attr recordingmode sum
attr title "pause sent, sum"
scalar HostsWithHub.hostB.ethernet decapPk:count 1930
attr interpolationmode none
attr recordingmode count
attr source decapPk
attr title "packets decapsulated, count"
scalar HostsWithHub.hostB.ethernet decapPk:sum(packetBytes) 1258989
attr interpolationmode none
attr recordingmode sum(packetBytes)
attr source decapPk
attr title "packets decapsulated, sum(packetBytes)"
scalar HostsWithHub.hostB.ethernet encapPk:count 1914
attr interpolationmode none
attr recordingmode count
attr source encapPk
attr title "packets encapsulated, count"
scalar HostsWithHub.hostB.ethernet encapPk:sum(packetBytes) 1199051
attr interpolationmode none
attr recordingmode sum(packetBytes)
attr source encapPk
attr title "packets encapsulated, sum(packetBytes)"
scalar HostsWithHub.hostB.eth.queue.classifier packets:count 1914
attr recordingmode count
attr source packetPushed
attr title "packets, count"
attr unit pk
scalar HostsWithHub.hostB.eth.queue.classifier packetLengths:sum 9868024
attr interpolationmode none
attr recordingmode sum
attr source packetLength(packetPushed)
attr title "packet lengths, sum"
attr unit b
statistic HostsWithHub.hostB.eth.queue.classifier packetLengths:histogram
field count 1914
field mean 5155.7074190178
field stddev 4369.0016293064
field min 328
field max 12136
field sum 9868024
field sqrsum 87392323776
attr interpolationmode none
attr recordingmode histogram
attr source packetLength(packetPushed)
attr title "packet lengths"
attr unit b
bin	-inf	0
bin	0	0
bin	200	126
bin	400	335
bin	600	200
bin	800	0
bin	1000	0
bin	1200	0
bin	1400	0
bin	1600	0
bin	1800	0
bin	2000	0
bin	2200	0
bin	2400	0
bin	2600	0
bin	2800	0
bin	3000	0
bin	3200	0
bin	3400	0
bin	3600	0
bin	3800	87
bin	4000	357
bin	4200	167
bin	4400	0
bin	4600	0
bin	4800	0
bin	5000	0
bin	5200	0
bin	5400	0
bin	5600	0
bin	5800	0
bin	6000	0
bin	6200	0
bin	6400	0
bin	6600	0
bin	6800	0
bin	7000	0
bin	7200	0
bin	7400	0
bin	7600	0
bin	7800	0
bin	8000	0
bin	8200	0
bin	8400	0
bin	8600	0
bin	8800	0
bin	9000	0
bin	9200	0
bin	9400	0
bin	9600	5
bin	9800	53
bin	10000	68
bin	10200	44
bin	10400	68
bin	10600	58
bin	10800	52
bin	11000	62
bin	11200	48
bin	11400	47
bin	11600	51
bin	11800	59
bin	12000	27
bin	12200	0
bin	12400	0
bin	12600	0
bin	12800	0
bin	13000	0
bin	13200	0
bin	13400	0
bin	13600	0
bin	13800	0
bin	14000	0
bin	14200	0
bin	14400	0
bin	14600	0
bin	14800	0
bin	15000	0
bin	15200	0
scalar HostsWithHub.hostB.eth.queue.pauseQueue queueLength:last 0
attr autoWarmupFilter false
attr interpolationmode sample-hold
attr recordingmode last
attr source "warmup(atomic(constant0(packetPushEnded) + count(packetPushStarted) - count(packetPulled) - count(packetRemoved) - count(packetDropped)))"
attr title "queue length, last"
attr unit pk
scalar HostsWithHub.hostB.eth.queue.pauseQueue queueLength:max 0
attr autoWarmupFilter false
attr interpolationmode sample-hold
attr recordingmode max
attr source "warmup(atomic(constant0(packetPushEnded) + count(packetPushStarted) - count(packetPulled) - count(packetRemoved) - count(packetDropped)))"
attr title "queue length, max"
attr unit pk
scalar HostsWithHub.hostB.eth.queue.pauseQueue queueLength:timeavg 0
attr autoWarmupFilter false
attr interpolationmode sample-hold
attr recordingmode timeavg
attr source "warmup(atomic(constant0(packetPushEnded) + count(packetPushStarted) - count(packetPulled) - count(packetRemoved) - count(packetDropped)))"
attr title "queue length, timeavg"
attr unit pk
scalar HostsWithHub.hostB.eth.queue.pauseQueue queueBitLength:last 0
attr autoWarmupFilter false
attr interpolationmode sample-hold
attr recordingmode last
attr source "warmup(atomic(constant0(packetPushEnded) + sum(packetLength(packetPushStarted)) - sum(packetLength(packetPulled)) - sum(packetLength(packetRemoved)) - sum(packetLength(packetDropped))))"
attr title "queue bit length, last"
attr unit b
scalar HostsWithHub.hostB.eth.queue.pauseQueue queueBitLength:max 0
attr autoWarmupFilter false
attr interpolationmode sample-hold
attr recordingmode max
attr source "warmup(atomic(constant0(packetPushEnded) + sum(packetLength(packetPushStarted)) - sum(packetLength(packetPulled)) - sum(packetLength(packetRemoved)) - sum(packetLength(packetDropped))))"
attr title "queue bit length, max"
attr unit b
scalar HostsWithHub.hostB.eth.queue.pauseQueue queueBitLength:timeavg 0
attr autoWarmupFilter false
attr interpolationmode sample-hold
attr recordingmode timeavg
attr source "warmup(atomic(constant0(packetPushEnded) + sum(packetLength(packetPushStarted)) - sum(packetLength(packetPulled)) - sum(packetLength(packetRemoved)) - sum(packetLength(packetDropped))))"
attr title "queue bit length, timeavg"
attr unit b
statistic HostsWithHub.hostB.eth.queue.pauseQueue queueingTime:histogram
field count 0
field mean -nan
field stddev nan
field min nan
field max nan
field sum 0
field sqrsum 0
attr interpolationmode none
attr recordingmode histogram
attr source queueingTime(packetPulled)
attr title "queueing times"
attr unit s
bin	-inf	0
bin	0	0
bin	1	0
scalar HostsWithHub.hostB.eth.queue.pauseQueue outgoingPackets:count 0
attr recordingmode count
attr source packetPulled
attr title "outgoing packets, count"
attr unit pk
scalar HostsWithHub.hostB.eth.queue.pauseQueue outgoingPacketLengths:sum 0
attr interpolationmode none
attr recordingmode sum
attr source packetLength(packetPulled)
attr title "outgoing packet lengths, sum"
attr unit b
statistic HostsWithHub.hostB.eth.queue.pauseQueue outgoingPacketLengths:histogram
field count 0
field mean -nan
field stddev nan
field min nan
field max nan
field sum 0
field sqrsum 0
attr interpolationmode none
attr recordingmode histogram
attr source packetLength(packetPulled)
attr title "outgoing packet lengths"
attr unit b
bin	-inf	0
bin	0	0
bin	1	0
statistic HostsWithHub.hostB.eth.queue.pauseQueue flowQueueingTime:histogram
field count 0
field mean -nan
field stddev nan
field min nan
field max nan
field sum 0
field sqrsum 0
attr interpolationmode none
attr recordingmode histogram
attr source queueingTime(demuxFlow(packetPulled))
attr title "flow queueing times"
attr unit s
bin	-inf	0
bin	0	0
bin	1	0
scalar HostsWithHub.hostB.eth.queue.pauseQueue incomingPackets:count 0
attr recordingmode count
attr source packetPushStarted
attr title "incoming packets, count"
attr unit pk
scalar HostsWithHub.hostB.eth.queue.pauseQueue incomingPacketLengths:sum 0
attr interpolationmode none
attr recordingmode sum
attr source packetLength(packetPushStarted)
attr title "incoming packet lengths, sum"
attr unit b
statistic HostsWithHub.hostB.eth.queue.pauseQueue incomingPacketLengths:histogram
field count 0
field mean -nan
field stddev nan
field min nan
field max nan
field sum 0
field sqrsum 0
attr interpolationmode none
attr recordingmode histogram
attr source packetLength(packetPushStarted)
attr title "incoming packet lengths"
attr unit b
bin	-inf	0
bin	0	0
bin	1	0
scalar HostsWithHub.hostB.eth.queue.pauseQueue droppedPacketsQueueOverflow:count 0
attr interpolationmode none
attr recordingmode count
attr source packetDropReasonIsQueueOverflow(packetDropped)
attr title "dropped packets: queue overflow, count"
attr unit pk
scalar HostsWithHub.hostB.eth.queue.pauseQueue droppedPacketLengthsQueueOverflow:sum 0
attr interpolationmode none
attr recordingmode sum
attr source packetLength(packetDropReasonIsQueueOverflow(packetDropped))
attr title "dropped packet lengths: queue overflow, sum"
attr unit b
scalar HostsWithHub.hostB.eth.queue.dataQueue queueLength:last 17
attr autoWarmupFilter false
attr interpolationmode sample-hold
attr recordingmode last
attr source "warmup(atomic(constant0(packetPushEnded) + count(packetPushStarted) - count(packetPulled) - count(packetRemoved) - count(packetDropped)))"
attr title "queue length, last"
attr unit pk
scalar HostsWithHub.hostB.eth.queue.dataQueue queueLength:max 82
attr autoWarmupFilter false
attr interpolationmode sample-hold
attr recordingmode max
attr source "warmup(atomic(constant0(packetPushEnded) + count(packetPushStarted) - count(packetPulled) - count(packetRemoved) - count(packetDropped)))"
attr title "queue length, max"
attr unit pk
scalar HostsWithHub.hostB.eth.queue.dataQueue queueLength:timeavg 6.9087789230769
attr autoWarmupFilter false
attr interpolationmode sample-hold
attr recordingmode timeavg
attr source "warmup(atomic(constant0(packetPushEnded) + count(packetPushStarted) - count(packetPulled) - count(packetRemoved) - count(packetDropped)))"
attr title "queue length, timeavg"
attr unit pk
scalar HostsWithHub.hostB.eth.queue.dataQueue queueBitLength:last 124736
attr autoWarmupFilter false
attr interpolationmode sample-hold
attr recordingmode last
attr source "warmup(atomic(constant0(packetPushEnded) + sum(packetLength(packetPushStarted)) - sum(packetLength(packetPulled)) - sum(packetLength(packetRemoved)) - sum(packetLength(packetDropped))))"
attr title "queue bit length, last"
attr unit b
scalar HostsWithHub.hostB.eth.queue.dataQueue queueBitLength:max 318272
attr autoWarmupFilter false
attr interpolationmode sample-hold
attr recordingmode max
attr source "warmup(atomic(constant0(packetPushEnded) + sum(packetLength(packetPushStarted)) - sum(packetLength(packetPulled)) - sum(packetLength(packetRemoved)) - sum(packetLength(packetDropped))))"
attr title "queue bit length, max"
attr unit b
scalar HostsWithHub.hostB.eth.queue.dataQueue queueBitLength:timeavg 35828.289228154
attr autoWarmupFilter false
attr interpolationmode sample-hold
attr recordingmode timeavg
attr source "warmup(atomic(constant0(packetPushEnded) + sum(packetLength(packetPushStarted)) - sum(packetLength(packetPulled)) - sum(packetLength(packetRemoved)) - sum(packetLength(packetDropped))))"
attr title "queue bit length, timeavg"
attr unit b
statistic HostsWithHub.hostB.eth.queue.dataQueue queueingTime:histogram
field count 1897
field mean 0.018542778281497
field stddev 0.029652364420147
field min 0
field max 0.1752316
field sum 35.1756504
field sqrsum 2.3193363952517
attr interpolationmode none
attr recordingmode histogram
attr source queueingTime(packetPulled)
attr title "queueing times"
attr unit s
bin	-inf	0
bin	0	642
bin	0.0024	261
bin	0.0048	176
bin	0.0072	96
bin	0.0096	61
bin	0.012	48
bin	0.0144	53
bin	0.0168	54
bin	0.0192	41
bin	0.0216	38
bin	0.024	22
bin	0.0264	23
bin	0.0288	23
bin	0.0312	11
bin	0.0336	15
bin	0.036	13
bin	0.0384	40
bin	0.0408	14
bin	0.0432	15
bin	0.0456	10
bin	0.048	10
bin	0.0504	6
bin	0.0528	6
bin	0.0552	4
bin	0.0576	16
bin	0.06	20
bin	0.0624	6
bin	0.0648	5
bin	0.0672	14
bin	0.0696	16
bin	0.072	9
bin	0.0744	10
bin	0.0768	8
bin	0.0792	10
bin	0.0816	10
bin	0.084	9
bin	0.0864	5
bin	0.0888	5
bin	0.0912	3
bin	0.0936	3
bin	0.096	3
bin	0.0984	5
bin	0.1008	0
bin	0.1032	0
bin	0.1056	0
bin	0.108	4
bin	0.1104	3
bin	0.1128	0
bin	0.1152	3
bin	0.1176	11
bin	0.12	0
bin	0.1224	0
bin	0.1248	4
bin	0.1272	0
bin	0.1296	3
bin	0.132	7
bin	0.1344	1
bin	0.1368	7
bin	0.1392	3
bin	0.1416	1
bin	0.144	0
bin	0.1464	1
bin	0.1488	3
bin	0.1512	0
bin	0.1536	0
bin	0.156	0
bin	0.1584	3
bin	0.1608	0
bin	0.1632	0
bin	0.1656	3
bin	0.168	0
bin	0.1704	0
bin	0.1728	0
bin	0.1752	1
bin	0.1776	0
scalar HostsWithHub.hostB.eth.queue.dataQueue outgoingPackets:count 1897
attr recordingmode count
attr source packetPulled
attr title "outgoing packets, count"
attr unit pk
scalar HostsWithHub.hostB.eth.queue.dataQueue outgoingPacketLengths:sum 9743288
attr interpolationmode none
attr recordingmode sum
attr source packetLength(packetPulled)
attr title "outgoing packet lengths, sum"
attr unit b
statistic HostsWithHub.hostB.eth.queue.dataQueue outgoingPacketLengths:histogram
field count 1897
field mean 5136.1560358461
field stddev 4367.062279673
field min 328
field max 12136
field sum 9743288
field sqrsum 86202105152
attr interpolationmode none
attr recordingmode histogram
attr source packetLength(packetPulled)
attr title "outgoing packet lengths"
attr unit b
bin	-inf	0
bin	0	0
bin	200	126
bin	400	333
bin	600	200
bin	800	0
bin	1000	0
bin	1200	0
bin	1400	0
bin	1600	0
bin	1800	0
bin	2000	0
bin	2200	0
bin	2400	0
bin	2600	0
bin	2800	0
bin	3000	0
bin	3200	0
bin	3400	0
bin	3600	0
bin	3800	87
bin	4000	353
bin	4200	165
bin	4400	0
bin	4600	0
bin	4800	0
bin	5000	0
bin	5200	0
bin	5400	0
bin	5600	0
bin	5800	0
bin	6000	0
bin	6200	0
bin	6400	0
bin	6600	0
bin	6800	0
bin	7000	0
bin	7200	0
bin	7400	0
bin	7600	0
bin	7800	0
bin	8000	0
bin	8200	0
bin	8400	0
bin	8600	0
bin	8800	0
bin	9000	0
bin	9200	0
bin	9400	0
bin	9600	4
bin	9800	53
bin	10000	67
bin	10200	44
bin	10400	66
bin	10600	58
bin	10800	52
bin	11000	61
bin	11200	47
bin	11400	47
bin	11600	49
bin	11800	58
bin	12000	27
bin	12200	0
bin	12400	0
bin	12600	0
bin	12800	0
bin	13000	0
bin	13200	0
bin	13400	0
bin	13600	0
bin	13800	0
bin	14000	0
bin	14200	0
bin	14400	0
bin	14600	0
bin	14800	0
bin	15000	0
bin	15200	0
statistic HostsWithHub.hostB.eth.queue.dataQueue flowQueueingTime:histogram
field count 0
field mean -nan
field stddev nan
field min nan
field max nan
field sum 0
field sqrsum 0
attr interpolationmode none
attr recordingmode histogram
attr source queueingTime(demuxFlow(packetPulled))
attr title "flow queueing times"
attr unit s
bin	-inf	0
bin	0	0
bin	1	0
scalar HostsWithHub.hostB.eth.queue.dataQueue incomingPackets:count 1914
attr recordingmode count
attr source packetPushStarted
attr title "incoming packets, count"
attr unit pk
scalar HostsWithHub.hostB.eth.queue.dataQueue incomingPacketLengths:sum 9868024
attr interpolationmode none
attr recordingmode sum
attr source packetLength(packetPushStarted)
attr title "incoming packet lengths, sum"
attr unit b
statistic HostsWithHub.hostB.eth.queue.dataQueue incomingPacketLengths:histogram
field count 1914
field mean 5155.7074190178
field stddev 4369.0016293064
field min 328
field max 12136
field sum 9868024
field sqrsum 87392323776
attr interpolationmode none
attr recordingmode histogram
attr source packetLength(packetPushStarted)
attr title "incoming packet lengths"
attr unit b
bin	-inf	0
bin	0	0
bin	200	126
bin	400	335
bin	600	200
bin	800	0
bin	1000	0
bin	1200	0
bin	1400	0
bin	1600	0
bin	1800	0
bin	2000	0
bin	2200	0
bin	2400	0
bin	2600	0
bin	2800	0
bin	3000	0
bin	3200	0
bin	3400	0
bin	3600	0
bin	3800	87
bin	4000	357
bin	4200	167
bin	4400	0
bin	4600	0
bin	4800	0
bin	5000	0
bin	5200	0
bin	5400	0
bin	5600	0
bin	5800	0
bin	6000	0
bin	6200	0
bin	6400	0
bin	6600	0
bin	6800	0
bin	7000	0
bin	7200	0
bin	7400	0
bin	7600	0
bin	7800	0
bin	8000	0
bin	8200	0
bin	8400	0
bin	8600	0
bin	8800	0
bin	9000	0
bin	9200	0
bin	9400	0
bin	9600	5
bin	9800	53
bin	10000	68
bin	10200	44
bin	10400	68
bin	10600	58
bin	10800	52
bin	11000	62
bin	11200	48
bin	11400	47
bin	11600	51
bin	11800	59
bin	12000	27
bin	12200	0
bin	12400	0
bin	12600	0
bin	12800	0
bin	13000	0
bin	13200	0
bin	13400	0
bin	13600	0
bin	13800	0
bin	14000	0
bin	14200	0
bin	14400	0
bin	14600	0
bin	14800	0
bin	15000	0
bin	15200	0
scalar HostsWithHub.hostB.eth.queue.dataQueue droppedPacketsQueueOverflow:count 0
attr interpolationmode none
attr recordingmode count
attr source packetDropReasonIsQueueOverflow(packetDropped)
attr title "dropped packets: queue overflow, count"
attr unit pk
scalar HostsWithHub.hostB.eth.queue.dataQueue droppedPacketLengthsQueueOverflow:sum 0
attr interpolationmode none
attr recordingmode sum
attr source packetLength(packetDropReasonIsQueueOverflow(packetDropped))
attr title "dropped packet lengths: queue overflow, sum"
attr unit b
scalar HostsWithHub.hostB.eth.queue.scheduler packets:count 1897
attr recordingmode count
attr source packetPulled
attr title "packets, count"
attr unit pk
scalar HostsWithHub.hostB.eth.queue.scheduler packetLengths:sum 9743288
attr interpolationmode none
attr recordingmode sum
attr source packetLength(packetPulled)
attr title "packet lengths, sum"
attr unit b
statistic HostsWithHub.hostB.eth.queue.scheduler packetLengths:histogram
field count 1897
field mean 5136.1560358461
field stddev 4367.062279673
field min 328
field max 12136
field sum 9743288
field sqrsum 86202105152
attr interpolationmode none
attr recordingmode histogram
attr source packetLength(packetPulled)
attr title "packet lengths"
attr unit b
bin	-inf	0
bin	0	0
bin	200	126
bin	400	333
bin	600	200
bin	800	0
bin	1000	0
bin	1200	0
bin	1400	0
bin	1600	0
bin	1800	0
bin	2000	0
bin	2200	0
bin	2400	0
bin	2600	0
bin	2800	0
bin	3000	0
bin	3200	0
bin	3400	0
bin	3600	0
bin	3800	87
bin	4000	353
bin	4200	165
bin	4400	0
bin	4600	0
bin	4800	0
bin	5000	0
bin	5200	0
bin	5400	0
bin	5600	0
bin	5800	0
bin	6000	0
bin	6200	0
bin	6400	0
bin	6600	0
bin	6800	0
bin	7000	0
bin	7200	0
bin	7400	0
bin	7600	0
bin	7800	0
bin	8000	0
bin	8200	0
bin	8400	0
bin	8600	0
bin	8800	0
bin	9000	0
bin	9200	0
bin	9400	0
bin	9600	4
bin	9800	53
bin	10000	67
bin	10200	44
bin	10400	66
bin	10600	58
bin	10800	52
bin	11000	61
bin	11200	47
bin	11400	47
bin	11600	49
bin	11800	58
bin	12000	27
bin	12200	0
bin	12400	0
bin	12600	0
bin	12800	0
bin	13000	0
bin	13200	0
bin	13400	0
bin	13600	0
bin	13800	0
bin	14000	0
bin	14200	0
bin	14400	0
bin	14600	0
bin	14800	0
bin	15000	0
bin	15200	0
scalar HostsWithHub.hostB.eth.queue queueLength:last -1897
attr autoWarmupFilter false
attr interpolationmode sample-hold
attr recordingmode last
attr source "warmup(atomic(constant0(localSignal(packetPushEnded)) + count(localSignal(packetPushStarted)) - count(localSignal(packetPulled)) - count(localSignal(packetRemoved)) - count(localSignal(packetDropped))))"
attr title "queue length, last"
attr unit pk
scalar HostsWithHub.hostB.eth.queue queueLength:max 0
attr autoWarmupFilter false
attr interpolationmode sample-hold
attr recordingmode max
attr source "warmup(atomic(constant0(localSignal(packetPushEnded)) + count(localSignal(packetPushStarted)) - count(localSignal(packetPulled)) - count(localSignal(packetRemoved)) - count(localSignal(packetDropped))))"
attr title "queue length, max"
attr unit pk
scalar HostsWithHub.hostB.eth.queue queueLength:timeavg -926.47775953846
attr autoWarmupFilter false
attr interpolationmode sample-hold
attr recordingmode timeavg
attr source "warmup(atomic(constant0(localSignal(packetPushEnded)) + count(localSignal(packetPushStarted)) - count(localSignal(packetPulled)) - count(localSignal(packetRemoved)) - count(localSignal(packetDropped))))"
attr title "queue length, timeavg"
attr unit pk
scalar HostsWithHub.hostB.eth.queue queueBitLength:last -9743288
attr autoWarmupFilter false
attr interpolationmode sample-hold
attr recordingmode last
attr source "warmup(atomic(constant0(localSignal(packetPushEnded)) + sum(packetLength(localSignal(packetPushStarted))) - sum(packetLength(localSignal(packetPulled))) - sum(packetLength(localSignal(packetRemoved))) - sum(packetLength(localSignal(packetDropped)))))"
attr title "queue bit length, last"
attr unit b
scalar HostsWithHub.hostB.eth.queue queueBitLength:max 0
attr autoWarmupFilter false
attr interpolationmode sample-hold
attr recordingmode max
attr source "warmup(atomic(constant0(localSignal(packetPushEnded)) + sum(packetLength(localSignal(packetPushStarted))) - sum(packetLength(localSignal(packetPulled))) - sum(packetLength(localSignal(packetRemoved))) - sum(packetLength(localSignal(packetDropped)))))"
attr title "queue bit length, max"
attr unit b
scalar HostsWithHub.hostB.eth.queue queueBitLength:timeavg -4817829.9415411
attr autoWarmupFilter false
attr interpolationmode sample-hold
attr recordingmode timeavg
attr source "warmup(atomic(constant0(localSignal(packetPushEnded)) + sum(packetLength(localSignal(packetPushStarted))) - sum(packetLength(localSignal(packetPulled))) - sum(packetLength(localSignal(packetRemoved))) - sum(packetLength(localSignal(packetDropped)))))"
attr title "queue bit length, timeavg"
attr unit b
statistic HostsWithHub.hostB.eth.queue queueingTime:histogram
field count 1897
field mean 0
field stddev 0
field min 0
field max 0
field sum 0
field sqrsum 0
attr interpolationmode none
attr recordingmode histogram
attr source queueingTime(localSignal(packetPulled))
attr title "queueing times"
attr unit s
bin	-inf	0
bin	-0.5	0
bin	-0.48	0
bin	-0.46	0
bin	-0.44	0
bin	-0.42	0
bin	-0.4	0
bin	-0.38	0
bin	-0.36	0
bin	-0.34	0
bin	-0.32	0
bin	-0.3	0
bin	-0.28	0
bin	-0.26	0
bin	-0.24	0
bin	-0.22	0
bin	-0.2	0
bin	-0.18	0
bin	-0.16	0
bin	-0.14	0
bin	-0.12	0
bin	-0.1	0
bin	-0.08	0
bin	-0.06	0
bin	-0.04	0
bin	-0.02	0
bin	0	1897
bin	0.02	0
bin	0.04	0
bin	0.06	0
bin	0.08	0
bin	0.1	0
bin	0.12	0
bin	0.14	0
bin	0.16	0
bin	0.18	0
bin	0.2	0
bin	0.22	0
bin	0.24	0
bin	0.26	0
bin	0.28	0
bin	0.3	0
bin	0.32	0
bin	0.34	0
bin	0.36	0
bin	0.38	0
bin	0.4	0
bin	0.42	0
bin	0.44	0
bin	0.46	0
bin	0.48	0
bin	0.5	0
scalar HostsWithHub.hostB.eth.queue outgoingPackets:count 1897
attr recordingmode count
attr source localSignal(packetPulled)
attr title "outgoing packets, count"
attr unit pk
scalar HostsWithHub.hostB.eth.queue outgoingPacketLengths:sum 9743288
attr interpolationmode none
attr recordingmode sum
attr source packetLength(localSignal(packetPulled))
attr title "outgoing packet lengths, sum"
attr unit b
statistic HostsWithHub.hostB.eth.queue outgoingPacketLengths:histogram
field count 1897
field mean 5136.1560358461
field stddev 4367.062279673
field min 328
field max 12136
field sum 9743288
field sqrsum 86202105152
attr interpolationmode none
attr recordingmode histogram
attr source packetLength(localSignal(packetPulled))
attr title "outgoing packet lengths"
attr unit b
bin	-inf	0
bin	0	0
bin	200	126
bin	400	333
bin	600	200
bin	800	0
bin	1000	0
bin	1200	0
bin	1400	0
bin	1600	0
bin	1800	0
bin	2000	0
bin	2200	0
bin	2400	0
bin	2600	0
bin	2800	0
bin	3000	0
bin	3200	0
bin	3400	0
bin	3600	0
bin	3800	87
bin	4000	353
bin	4200	165
bin	4400	0
bin	4600	0
bin	4800	0
bin	5000	0
bin	5200	0
bin	5400	0
bin	5600	0
bin	5800	0
bin	6000	0
bin	6200	0
bin	6400	0
bin	6600	0
bin	6800	0
bin	7000	0
bin	7200	0
bin	7400	0
bin	7600	0
bin	7800	0
bin	8000	0
bin	8200	0
bin	8400	0
bin	8600	0
bin	8800	0
bin	9000	0
bin	9200	0
bin	9400	0
bin	9600	4
bin	9800	53
bin	10000	67
bin	10200	44
bin	10400	66
bin	10600	58
bin	10800	52
bin	11000	61
bin	11200	47
bin	11400	47
bin	11600	49
bin	11800	58
bin	12000	27
bin	12200	0
bin	12400	0
bin	12600	0
bin	12800	0
bin	13000	0
bin	13200	0
bin	13400	0
bin	13600	0
bin	13800	0
bin	14000	0
bin	14200	0
bin	14400	0
bin	14600	0
bin	14800	0
bin	15000	0
bin	15200	0
statistic HostsWithHub.hostB.eth.queue flowQueueingTime:histogram
field count 0
field mean -nan
field stddev nan
field min nan
field max nan
field sum 0
field sqrsum 0
attr interpolationmode none
attr recordingmode histogram
attr source queueingTime(demuxFlow(localSignal(packetPulled)))
attr title "flow queueing times"
attr unit s
bin	-inf	0
bin	0	0
bin	1	0
scalar HostsWithHub.hostB.eth.queue incomingPackets:count 0
attr recordingmode count
attr source localSignal(packetPushStarted)
attr title "incoming packets, count"
attr unit pk
scalar HostsWithHub.hostB.eth.queue incomingPacketLengths:sum 0
attr interpolationmode none
attr recordingmode sum
attr source packetLength(localSignal(packetPushStarted))
attr title "incoming packet lengths, sum"
attr unit b
statistic HostsWithHub.hostB.eth.queue incomingPacketLengths:histogram
field count 0
field mean -nan
field stddev nan
field min nan
field max nan
field sum 0
field sqrsum 0
attr interpolationmode none
attr recordingmode histogram
attr source packetLength(localSignal(packetPushStarted))
attr title "incoming packet lengths"
attr unit b
bin	-inf	0
bin	0	0
bin	1	0
scalar HostsWithHub.hostB.eth.queue droppedPacketsQueueOverflow:count 0
attr interpolationmode none
attr recordingmode count
attr source packetDropReasonIsQueueOverflow(localSignal(packetDropped))
attr title "dropped packets: queue overflow, count"
attr unit pk
scalar HostsWithHub.hostB.eth.queue droppedPacketLengthsQueueOverflow:sum 0
attr interpolationmode none
attr recordingmode sum
attr source packetLength(packetDropReasonIsQueueOverflow(localSignal(packetDropped)))
attr title "dropped packet lengths: queue overflow, sum"
attr unit b
scalar HostsWithHub.hostB.eth.mac "simulated time" 5.2
scalar HostsWithHub.hostB.eth.mac full-duplex 0
scalar HostsWithHub.hostB.eth.mac "frames/sec sent" 342.5
scalar HostsWithHub.hostB.eth.mac "frames/sec rcvd" 371.15384615385
scalar HostsWithHub.hostB.eth.mac "bits/sec sent" 1759935.3846154
scalar HostsWithHub.hostB.eth.mac "bits/sec rcvd" 1995896.9230769
scalar HostsWithHub.hostB.eth.mac "rx channel idle (%)" 39.749269230769
scalar HostsWithHub.hostB.eth.mac "rx channel utilization (%)" 60.109830769231
scalar HostsWithHub.hostB.eth.mac "rx channel collision (%)" 0.1409
scalar HostsWithHub.hostB.eth.mac collisions 2110
scalar HostsWithHub.hostB.eth.mac backoffs 1530
scalar HostsWithHub.hostB.eth.mac backoffSlotsGenerated:count 1530
attr interpolationmode none
attr recordingmode count
attr title "backoff, count"
scalar HostsWithHub.hostB.eth.mac collision:count 2110
attr interpolationmode none
attr recordingmode count
attr title "collision, count"
scalar HostsWithHub.hostB.eth.mac rxPausePkUnits:count 0
attr interpolationmode none
attr recordingmode count
attr title "pause units received, count"
scalar HostsWithHub.hostB.eth.mac rxPausePkUnits:sum 0
attr interpolationmode none
attr recordingmode sum
attr title "pause units received, sum"
scalar HostsWithHub.hostB.eth.mac txPausePkUnits:count 0
attr interpolationmode none
attr recordingmode count
attr title "pause units sent, count"
scalar HostsWithHub.hostB.eth.mac txPausePkUnits:sum 0
attr interpolationmode none
attr recordingmode sum
attr title "pause units sent, sum"
scalar HostsWithHub.hostB.eth.mac rxPkOk:count 1930
attr interpolationmode none
attr recordingmode count
attr source rxPkOk
attr title "packets received OK, count"
scalar HostsWithHub.hostB.eth.mac rxPkOk:sum(packetBytes) 1297333
attr interpolationmode none
attr recordingmode sum(packetBytes)
attr source rxPkOk
attr title "packets received OK, sum(packetBytes)"
scalar HostsWithHub.hostB.eth.mac txPk:count 1781
attr interpolationmode none
attr recordingmode count
attr source packetSentToLower
attr title "packets transmitted, count"
scalar HostsWithHub.hostB.eth.mac txPk:sum(packetBytes) 1143958
attr interpolationmode none
attr recordingmode sum(packetBytes)
attr source packetSentToLower
attr title "packets transmitted, sum(packetBytes)"
scalar HostsWithHub.hostB.eth.mac packetReceivedFromUpper:count 1897
attr interpolationmode none
attr recordingmode count
attr source packetReceivedFromUpper
attr title "packet bytes from higher layer, count"
scalar HostsWithHub.hostB.eth.mac packetReceivedFromUpper:sum(packetBytes) 1217911
attr interpolationmode none
attr recordingmode sum(packetBytes)
attr source packetReceivedFromUpper
attr title "packet bytes from higher layer, sum(packetBytes)"
scalar HostsWithHub.hostB.eth.mac passedUpPk:count 1930
attr interpolationmode none
attr recordingmode count
attr source packetSentToUpper
attr title "packets passed to higher layer, count"
scalar HostsWithHub.hostB.eth.mac passedUpPk:sum(packetBytes) 1297333
attr interpolationmode none
attr recordingmode sum(packetBytes)
attr source packetSentToUpper
attr title "packets passed to higher layer, sum(packetBytes)"
scalar HostsWithHub.hostB.eth.mac packetDropIncorrectlyReceived:count 0
attr interpolationmode none
attr recordingmode count
attr source packetDropReasonIsIncorrectlyReceived(packetDropped)
attr title "packet drop: incorrectly received, count"
scalar HostsWithHub.hostB.eth.mac packetDropIncorrectlyReceived:sum(packetBytes) 0
attr interpolationmode none
attr recordingmode sum(packetBytes)
attr source packetDropReasonIsIncorrectlyReceived(packetDropped)
attr title "packet drop: incorrectly received, sum(packetBytes)"
scalar HostsWithHub.hostB.eth.mac packetDropInterfaceDown:count 115
attr interpolationmode none
attr recordingmode count
attr source packetDropReasonIsInterfaceDown(packetDropped)
attr title "packet drop: interface down, count"
scalar HostsWithHub.hostB.eth.mac packetDropInterfaceDown:sum(packetBytes) 77517
attr interpolationmode none
attr recordingmode sum(packetBytes)
attr source packetDropReasonIsInterfaceDown(packetDropped)
attr title "packet drop: interface down, sum(packetBytes)"
scalar HostsWithHub.hostB.eth.mac packetDropNotAddressedToUs:count 2149
attr interpolationmode none
attr recordingmode count
attr source packetDropReasonIsNotAddressedToUs(packetDropped)
attr title "packet drop: not addressed to us, count"
scalar HostsWithHub.hostB.eth.mac packetDropNotAddressedToUs:sum(packetBytes) 1418968
attr interpolationmode none
attr recordingmode sum(packetBytes)
attr source packetDropReasonIsNotAddressedToUs(packetDropped)
attr title "packet drop: not addressed to us, sum(packetBytes)"
scalar HostsWithHub.hostB.eth packetDropInterfaceDown:count 115
attr interpolationmode none
attr recordingmode count
attr source packetDropReasonIsInterfaceDown(packetDropped)
attr title "packet drops: interface down, count"
scalar HostsWithHub.hostB.eth packetDropInterfaceDown:sum(packetBytes) 77517
attr interpolationmode none
attr recordingmode sum(packetBytes)
attr source packetDropReasonIsInterfaceDown(packetDropped)
attr title "packet drops: interface down, sum(packetBytes)"
scalar HostsWithHub.hostB.eth packetDropNoCarrier:count 0
attr interpolationmode none
attr recordingmode count
attr source packetDropReasonIsNoCarrier(packetDropped)
attr title "packet drops: no carrier, count"
scalar HostsWithHub.hostB.eth packetDropNoCarrier:sum(packetBytes) 0
attr interpolationmode none
attr recordingmode sum(packetBytes)
attr source packetDropReasonIsNoCarrier(packetDropped)
attr title "packet drops: no carrier, sum(packetBytes)"
scalar HostsWithHub.hostC.app packetReceived:count 1698
attr interpolationmode none
attr recordingmode count
attr source packetReceived
attr title "packets received, count"
scalar HostsWithHub.hostC.app packetReceived:sum(packetBytes) 1054872
attr interpolationmode none
attr recordingmode sum(packetBytes)
attr source packetReceived
attr title "packets received, sum(packetBytes)"
statistic HostsWithHub.hostC.app endToEndDelay:histogram
field count 1698
field mean 0.020819020906949
field stddev 0.031060689592561
field min 5.77e-05
field max 0.1852221
field sum 35.3506975
field sqrsum 2.3731755555551
attr interpolationmode none
attr recordingmode histogram
attr source dataAge(packetReceived)
attr title "end-to-end delay"
attr unit s
bin	-inf	0
bin	0	582
bin	0.004	324
bin	0.008	147
bin	0.012	81
bin	0.016	90
bin	0.02	61
bin	0.024	48
bin	0.028	35
bin	0.032	23
bin	0.036	24
bin	0.04	22
bin	0.044	22
bin	0.048	16
bin	0.052	9
bin	0.056	17
bin	0.06	17
bin	0.064	14
bin	0.068	19
bin	0.072	18
bin	0.076	11
bin	0.08	19
bin	0.084	15
bin	0.088	9
bin	0.092	5
bin	0.096	8
bin	0.1	1
bin	0.104	0
bin	0.108	4
bin	0.112	2
bin	0.116	15
bin	0.12	1
bin	0.124	4
bin	0.128	2
bin	0.132	8
bin	0.136	8
bin	0.14	4
bin	0.144	2
bin	0.148	3
bin	0.152	0
bin	0.156	3
bin	0.16	0
bin	0.164	2
bin	0.168	1
bin	0.172	0
bin	0.176	1
bin	0.18	0
bin	0.184	1
bin	0.188	0
scalar HostsWithHub.hostC.app packetSent:count 2316
attr interpolationmode none
attr recordingmode count
attr source packetSent
attr title "packets sent, count"
scalar HostsWithHub.hostC.app packetSent:sum(packetBytes) 1474522
attr interpolationmode none
attr recordingmode sum(packetBytes)
attr source packetSent
attr title "packets sent, sum(packetBytes)"
scalar HostsWithHub.hostC.ethernet pauseSent:count 0
attr recordingmode count
attr title "pause sent, count"
scalar HostsWithHub.hostC.ethernet pauseSent:sum 0
attr recordingmode sum
attr title "pause sent, sum"
scalar HostsWithHub.hostC.ethernet decapPk:count 1698
attr interpolationmode none
attr recordingmode count
attr source decapPk
attr title "packets decapsulated, count"
scalar HostsWithHub.hostC.ethernet decapPk:sum(packetBytes) 1059966
attr interpolationmode none
attr recordingmode sum(packetBytes)
attr source decapPk
attr title "packets decapsulated, sum(packetBytes)"
scalar HostsWithHub.hostC.ethernet encapPk:count 2316
attr interpolationmode none
attr recordingmode count
attr source encapPk
attr title "packets encapsulated, count"
scalar HostsWithHub.hostC.ethernet encapPk:sum(packetBytes) 1481470
attr interpolationmode none
attr recordingmode sum(packetBytes)
attr source encapPk
attr title "packets encapsulated, sum(packetBytes)"
scalar HostsWithHub.hostC.eth.queue.classifier packets:count 2316
attr recordingmode count
attr source packetPushed
attr title "packets, count"
attr unit pk
scalar HostsWithHub.hostC.eth.queue.classifier packetLengths:sum 12185264
attr interpolationmode none
attr recordingmode sum
attr source packetLength(packetPushed)
attr title "packet lengths, sum"
attr unit b
statistic HostsWithHub.hostC.eth.queue.classifier packetLengths:histogram
field count 2316
field mean 5261.3402417962
field stddev 4336.3461769894
field min 328
field max 12128
field sum 12185264
field sqrsum 107641844096
attr interpolationmode none
attr recordingmode histogram
attr source packetLength(packetPushed)
attr title "packet lengths"
attr unit b
bin	-inf	0
bin	0	0
bin	200	151
bin	400	349
bin	600	254
bin	800	0
bin	1000	0
bin	1200	0
bin	1400	0
bin	1600	0
bin	1800	0
bin	2000	0
bin	2200	0
bin	2400	0
bin	2600	0
bin	2800	0
bin	3000	0
bin	3200	0
bin	3400	0
bin	3600	0
bin	3800	90
bin	4000	489
bin	4200	194
bin	4400	0
bin	4600	0
bin	4800	0
bin	5000	0
bin	5200	0
bin	5400	0
bin	5600	0
bin	5800	0
bin	6000	0
bin	6200	0
bin	6400	0
bin	6600	0
bin	6800	0
bin	7000	0
bin	7200	0
bin	7400	0
bin	7600	0
bin	7800	0
bin	8000	0
bin	8200	0
bin	8400	0
bin	8600	0
bin	8800	0
bin	9000	0
bin	9200	0
bin	9400	0
bin	9600	13
bin	9800	69
bin	10000	67
bin	10200	75
bin	10400	61
bin	10600	80
bin	10800	69
bin	11000	68
bin	11200	58
bin	11400	63
bin	11600	61
bin	11800	58
bin	12000	47
bin	12200	0
bin	12400	0
bin	12600	0
bin	12800	0
bin	13000	0
bin	13200	0
bin	13400	0
bin	13600	0
bin	13800	0
bin	14000	0
bin	14200	0
bin	14400	0
bin	14600	0
bin	14800	0
bin	15000	0
scalar HostsWithHub.hostC.eth.queue.pauseQueue queueLength:last 0
attr autoWarmupFilter false
attr interpolationmode sample-hold
attr recordingmode last
attr source "warmup(atomic(constant0(packetPushEnded) + count(packetPushStarted) - count(packetPulled) - count(packetRemoved) - count(packetDropped)))"
attr title "queue length, last"
attr unit pk
scalar HostsWithHub.hostC.eth.queue.pauseQueue queueLength:max 0
attr autoWarmupFilter false
attr interpolationmode sample-hold
attr recordingmode max
attr source "warmup(atomic(constant0(packetPushEnded) + count(packetPushStarted) - count(packetPulled) - count(packetRemoved) - count(packetDropped)))"
attr title "queue length, max"
attr unit pk
scalar HostsWithHub.hostC.eth.queue.pauseQueue queueLength:timeavg 0
attr autoWarmupFilter false
attr interpolationmode sample-hold
attr recordingmode timeavg
attr source "warmup(atomic(constant0(packetPushEnded) + count(packetPushStarted) - count(packetPulled) - count(packetRemoved) - count(packetDropped)))"
attr title "queue length, timeavg"
attr unit pk
scalar HostsWithHub.hostC.eth.queue.pauseQueue queueBitLength:last 0
attr autoWarmupFilter false
attr interpolationmode sample-hold
attr recordingmode last
attr source "warmup(atomic(constant0(packetPushEnded) + sum(packetLength(packetPushStarted)) - sum(packetLength(packetPulled)) - sum(packetLength(packetRemoved)) - sum(packetLength(packetDropped))))"
attr title "queue bit length, last"
attr unit b
scalar HostsWithHub.hostC.eth.queue.pauseQueue queueBitLength:max 0
attr autoWarmupFilter false
attr interpolationmode sample-hold
attr recordingmode max
attr source "warmup(atomic(constant0(packetPushEnded) + sum(packetLength(packetPushStarted)) - sum(packetLength(packetPulled)) - sum(packetLength(packetRemoved)) - sum(packetLength(packetDropped))))"
attr title "queue bit length, max"
attr unit b
scalar HostsWithHub.hostC.eth.queue.pauseQueue queueBitLength:timeavg 0
attr autoWarmupFilter false
attr interpolationmode sample-hold
attr recordingmode timeavg
attr source "warmup(atomic(constant0(packetPushEnded) + sum(packetLength(packetPushStarted)) - sum(packetLength(packetPulled)) - sum(packetLength(packetRemoved)) - sum(packetLength(packetDropped))))"
attr title "queue bit length, timeavg"
attr unit b
statistic HostsWithHub.hostC.eth.queue.pauseQueue queueingTime:histogram
field count 0
field mean -nan
field stddev nan
field min nan
field max nan
field sum 0
field sqrsum 0
attr interpolationmode none
attr recordingmode histogram
attr source queueingTime(packetPulled)
attr title "queueing times"
attr unit s
bin	-inf	0
bin	0	0
bin	1	0
scalar HostsWithHub.hostC.eth.queue.pauseQueue outgoingPackets:count 0
attr recordingmode count
attr source packetPulled
attr title "outgoing packets, count"
attr unit pk
scalar HostsWithHub.hostC.eth.queue.pauseQueue outgoingPacketLengths:sum 0
attr interpolationmode none
attr recordingmode sum
attr source packetLength(packetPulled)
attr title "outgoing packet lengths, sum"
attr unit b
statistic HostsWithHub.hostC.eth.queue.pauseQueue outgoingPacketLengths:histogram
field count 0
field mean -nan
field stddev nan
field min nan
field max nan
field sum 0
field sqrsum 0
attr interpolationmode none
attr recordingmode histogram
attr source packetLength(packetPulled)
attr title "outgoing packet lengths"
attr unit b
bin	-inf	0
bin	0	0
bin	1	0
statistic HostsWithHub.hostC.eth.queue.pauseQueue flowQueueingTime:histogram
field count 0
field mean -nan
field stddev nan
field min nan
field max nan
field sum 0
field sqrsum 0
attr interpolationmode none
attr recordingmode histogram
attr source queueingTime(demuxFlow(packetPulled))
attr title "flow queueing times"
attr unit s
bin	-inf	0
bin	0	0
bin	1	0
scalar HostsWithHub.hostC.eth.queue.pauseQueue incomingPackets:count 0
attr recordingmode count
attr source packetPushStarted
attr title "incoming packets, count"
attr unit pk
scalar HostsWithHub.hostC.eth.queue.pauseQueue incomingPacketLengths:sum 0
attr interpolationmode none
attr recordingmode sum
attr source packetLength(packetPushStarted)
attr title "incoming packet lengths, sum"
attr unit b
statistic HostsWithHub.hostC.eth.queue.pauseQueue incomingPacketLengths:histogram
field count 0
field mean -nan
field stddev nan
field min nan
field max nan
field sum 0
field sqrsum 0
attr interpolationmode none
attr recordingmode histogram
attr source packetLength(packetPushStarted)
attr title "incoming packet lengths"
attr unit b
bin	-inf	0
bin	0	0
bin	1	0
scalar HostsWithHub.hostC.eth.queue.pauseQueue droppedPacketsQueueOverflow:count 0
attr interpolationmode none
attr recordingmode count
attr source packetDropReasonIsQueueOverflow(packetDropped)
attr title "dropped packets: queue overflow, count"
attr unit pk
scalar HostsWithHub.hostC.eth.queue.pauseQueue droppedPacketLengthsQueueOverflow:sum 0
attr interpolationmode none
attr recordingmode sum
attr source packetLength(packetDropReasonIsQueueOverflow(packetDropped))
attr title "dropped packet lengths: queue overflow, sum"
attr unit b
scalar HostsWithHub.hostC.eth.queue.dataQueue queueLength:last 10
attr autoWarmupFilter false
attr interpolationmode sample-hold
attr recordingmode last
attr source "warmup(atomic(constant0(packetPushEnded) + count(packetPushStarted) - count(packetPulled) - count(packetRemoved) - count(packetDropped)))"
attr title "queue length, last"
attr unit pk
scalar HostsWithHub.hostC.eth.queue.dataQueue queueLength:max 70
attr autoWarmupFilter false
attr interpolationmode sample-hold
attr recordingmode max
attr source "warmup(atomic(constant0(packetPushEnded) + count(packetPushStarted) - count(packetPulled) - count(packetRemoved) - count(packetDropped)))"
attr title "queue length, max"
attr unit pk
scalar HostsWithHub.hostC.eth.queue.dataQueue queueLength:timeavg 5.9690393653846
attr autoWarmupFilter false
attr interpolationmode sample-hold
attr recordingmode timeavg
attr source "warmup(atomic(constant0(packetPushEnded) + count(packetPushStarted) - count(packetPulled) - count(packetRemoved) - count(packetDropped)))"
attr title "queue length, timeavg"
attr unit pk
scalar HostsWithHub.hostC.eth.queue.dataQueue queueBitLength:last 50128
attr autoWarmupFilter false
attr interpolationmode sample-hold
attr recordingmode last
attr source "warmup(atomic(constant0(packetPushEnded) + sum(packetLength(packetPushStarted)) - sum(packetLength(packetPulled)) - sum(packetLength(packetRemoved)) - sum(packetLength(packetDropped))))"
attr title "queue bit length, last"
attr unit b
scalar HostsWithHub.hostC.eth.queue.dataQueue queueBitLength:max 418328
attr autoWarmupFilter false
attr interpolationmode sample-hold
attr recordingmode max
attr source "warmup(atomic(constant0(packetPushEnded) + sum(packetLength(packetPushStarted)) - sum(packetLength(packetPulled)) - sum(packetLength(packetRemoved)) - sum(packetLength(packetDropped))))"
attr title "queue bit length, max"
attr unit b
scalar HostsWithHub.hostC.eth.queue.dataQueue queueBitLength:timeavg 31963.392590769
attr autoWarmupFilter false
attr interpolationmode sample-hold
attr recordingmode timeavg
attr source "warmup(atomic(constant0(packetPushEnded) + sum(packetLength(packetPushStarted)) - sum(packetLength(packetPulled)) - sum(packetLength(packetRemoved)) - sum(packetLength(packetDropped))))"
attr title "queue bit length, timeavg"
attr unit b
statistic HostsWithHub.hostC.eth.queue.dataQueue queueingTime:histogram
field count 2306
field mean 0.01327797254987
field stddev 0.019746293030839
field min 0
field max 0.0929096
field sum 30.6190047
field sqrsum 1.3053148878107
attr interpolationmode none
attr recordingmode histogram
attr source queueingTime(packetPulled)
attr title "queueing times"
attr unit s
bin	-inf	0
bin	0	598
bin	0.0015	288
bin	0.003	258
bin	0.0045	195
bin	0.006	131
bin	0.0075	91
bin	0.009	72
bin	0.0105	42
bin	0.012	40
bin	0.0135	36
bin	0.015	27
bin	0.0165	25
bin	0.018	21
bin	0.0195	22
bin	0.021	14
bin	0.0225	22
bin	0.024	12
bin	0.0255	17
bin	0.027	17
bin	0.0285	11
bin	0.03	16
bin	0.0315	5
bin	0.033	14
bin	0.0345	13
bin	0.036	4
bin	0.0375	7
bin	0.039	11
bin	0.0405	10
bin	0.042	12
bin	0.0435	19
bin	0.045	17
bin	0.0465	24
bin	0.048	30
bin	0.0495	15
bin	0.051	19
bin	0.0525	14
bin	0.054	8
bin	0.0555	4
bin	0.057	7
bin	0.0585	10
bin	0.06	8
bin	0.0615	3
bin	0.063	3
bin	0.0645	6
bin	0.066	7
bin	0.0675	9
bin	0.069	7
bin	0.0705	3
bin	0.072	0
bin	0.0735	1
bin	0.075	4
bin	0.0765	10
bin	0.078	10
bin	0.0795	5
bin	0.081	4
bin	0.0825	6
bin	0.084	9
bin	0.0855	4
bin	0.087	3
bin	0.0885	5
bin	0.09	0
bin	0.0915	1
bin	0.093	0
scalar HostsWithHub.hostC.eth.queue.dataQueue outgoingPackets:count 2306
attr recordingmode count
attr source packetPulled
attr title "outgoing packets, count"
attr unit pk
scalar HostsWithHub.hostC.eth.queue.dataQueue outgoingPacketLengths:sum 12135136
attr interpolationmode none
attr recordingmode sum
attr source packetLength(packetPulled)
attr title "outgoing packet lengths, sum"
attr unit b
statistic HostsWithHub.hostC.eth.queue.dataQueue outgoingPacketLengths:histogram
field count 2306
field mean 5262.4180398959
field stddev 4337.4463487407
field min 328
field max 12128
field sum 12135136
field sqrsum 107225139712
attr interpolationmode none
attr recordingmode histogram
attr source packetLength(packetPulled)
attr title "outgoing packet lengths"
attr unit b
bin	-inf	0
bin	0	0
bin	200	150
bin	400	348
bin	600	253
bin	800	0
bin	1000	0
bin	1200	0
bin	1400	0
bin	1600	0
bin	1800	0
bin	2000	0
bin	2200	0
bin	2400	0
bin	2600	0
bin	2800	0
bin	3000	0
bin	3200	0
bin	3400	0
bin	3600	0
bin	3800	89
bin	4000	486
bin	4200	194
bin	4400	0
bin	4600	0
bin	4800	0
bin	5000	0
bin	5200	0
bin	5400	0
bin	5600	0
bin	5800	0
bin	6000	0
bin	6200	0
bin	6400	0
bin	6600	0
bin	6800	0
bin	7000	0
bin	7200	0
bin	7400	0
bin	7600	0
bin	7800	0
bin	8000	0
bin	8200	0
bin	8400	0
bin	8600	0
bin	8800	0
bin	9000	0
bin	9200	0
bin	9400	0
bin	9600	13
bin	9800	68
bin	10000	67
bin	10200	75
bin	10400	61
bin	10600	79
bin	10800	69
bin	11000	68
bin	11200	58
bin	11400	62
bin	11600	61
bin	11800	58
bin	12000	47
bin	12200	0
bin	12400	0
bin	12600	0
bin	12800	0
bin	13000	0
bin	13200	0
bin	13400	0
bin	13600	0
bin	13800	0
bin	14000	0
bin	14200	0
bin	14400	0
bin	14600	0
bin	14800	0
bin	15000	0
statistic HostsWithHub.hostC.eth.queue.dataQueue flowQueueingTime:histogram
field count 0
field mean -nan
field stddev nan
field min nan
field max nan
field sum 0
field sqrsum 0
attr interpolationmode none
attr recordingmode histogram
attr source queueingTime(demuxFlow(packetPulled))
attr title "flow queueing times"
attr unit s
bin	-inf	0
bin	0	0
bin	1	0
scalar HostsWithHub.hostC.eth.queue.dataQueue incomingPackets:count 2316
attr recordingmode count
attr source packetPushStarted
attr title "incoming packets, count"
attr unit pk
scalar HostsWithHub.hostC.eth.queue.dataQueue incomingPacketLengths:sum 12185264
attr interpolationmode none
attr recordingmode sum
attr source packetLength(packetPushStarted)
attr title "incoming packet lengths, sum"
attr unit b
statistic HostsWithHub.hostC.eth.queue.dataQueue incomingPacketLengths:histogram
field count 2316
field mean 5261.3402417962
field stddev 4336.3461769894
field min 328
field max 12128
field sum 12185264
field sqrsum 107641844096
attr interpolationmode none
attr recordingmode histogram
attr source packetLength(packetPushStarted)
attr title "incoming packet lengths"
attr unit b
bin	-inf	0
bin	0	0
bin	200	151
bin	400	349
bin	600	254
bin	800	0
bin	1000	0
bin	1200	0
bin	1400	0
bin	1600	0
bin	1800	0
bin	2000	0
bin	2200	0
bin	2400	0
bin	2600	0
bin	2800	0
bin	3000	0
bin	3200	0
bin	3400	0
bin	3600	0
bin	3800	90
bin	4000	489
bin	4200	194
bin	4400	0
bin	4600	0
bin	4800	0
bin	5000	0
bin	5200	0
bin	5400	0
bin	5600	0
bin	5800	0
bin	6000	0
bin	6200	0
bin	6400	0
bin	6600	0
bin	6800	0
bin	7000	0
bin	7200	0
bin	7400	0
bin	7600	0
bin	7800	0
bin	8000	0
bin	8200	0
bin	8400	0
bin	8600	0
bin	8800	0
bin	9000	0
bin	9200	0
bin	9400	0
bin	9600	13
bin	9800	69
bin	10000	67
bin	10200	75
bin	10400	61
bin	10600	80
bin	10800	69
bin	11000	68
bin	11200	58
bin	11400	63
bin	11600	61
bin	11800	58
bin	12000	47
bin	12200	0
bin	12400	0
bin	12600	0
bin	12800	0
bin	13000	0
bin	13200	0
bin	13400	0
bin	13600	0
bin	13800	0
bin	14000	0
bin	14200	0
bin	14400	0
bin	14600	0
bin	14800	0
bin	15000	0
scalar HostsWithHub.hostC.eth.queue.dataQueue droppedPacketsQueueOverflow:count 0
attr interpolationmode none
attr recordingmode count
attr source packetDropReasonIsQueueOverflow(packetDropped)
attr title "dropped packets: queue overflow, count"
attr unit pk
scalar HostsWithHub.hostC.eth.queue.dataQueue droppedPacketLengthsQueueOverflow:sum 0
attr interpolationmode none
attr recordingmode sum
attr source packetLength(packetDropReasonIsQueueOverflow(packetDropped))
attr title "dropped packet lengths: queue overflow, sum"
attr unit b
scalar HostsWithHub.hostC.eth.queue.scheduler packets:count 2306
attr recordingmode count
attr source packetPulled
attr title "packets, count"
attr unit pk
scalar HostsWithHub.hostC.eth.queue.scheduler packetLengths:sum 12135136
attr interpolationmode none
attr recordingmode sum
attr source packetLength(packetPulled)
attr title "packet lengths, sum"
attr unit b
statistic HostsWithHub.hostC.eth.queue.scheduler packetLengths:histogram
field count 2306
field mean 5262.4180398959
field stddev 4337.4463487407
field min 328
field max 12128
field sum 12135136
field sqrsum 107225139712
attr interpolationmode none
attr recordingmode histogram
attr source packetLength(packetPulled)
attr title "packet lengths"
attr unit b
bin	-inf	0
bin	0	0
bin	200	150
bin	400	348
bin	600	253
bin	800	0
bin	1000	0
bin	1200	0
bin	1400	0
bin	1600	0
bin	1800	0
bin	2000	0
bin	2200	0
bin	2400	0
bin	2600	0
bin	2800	0
bin	3000	0
bin	3200	0
bin	3400	0
bin	3600	0
bin	3800	89
bin	4000	486
bin	4200	194
bin	4400	0
bin	4600	0
bin	4800	0
bin	5000	0
bin	5200	0
bin	5400	0
bin	5600	0
bin	5800	0
bin	6000	0
bin	6200	0
bin	6400	0
bin	6600	0
bin	6800	0
bin	7000	0
bin	7200	0
bin	7400	0
bin	7600	0
bin	7800	0
bin	8000	0
bin	8200	0
bin	8400	0
bin	8600	0
bin	8800	0
bin	9000	0
bin	9200	0
bin	9400	0
bin	9600	13
bin	9800	68
bin	10000	67
bin	10200	75
bin	10400	61
bin	10600	79
bin	10800	69
bin	11000	68
bin	11200	58
bin	11400	62
bin	11600	61
bin	11800	58
bin	12000	47
bin	12200	0
bin	12400	0
bin	12600	0
bin	12800	0
bin	13000	0
bin	13200	0
bin	13400	0
bin	13600	0
bin	13800	0
bin	14000	0
bin	14200	0
bin	14400	0
bin	14600	0
bin	14800	0
bin	15000	0
scalar HostsWithHub.hostC.eth.queue queueLength:last -2306
attr autoWarmupFilter false
attr interpolationmode sample-hold
attr recordingmode last
attr source "warmup(atomic(constant0(localSignal(packetPushEnded)) + count(localSignal(packetPushStarted)) - count(localSignal(packetPulled)) - count(localSignal(packetRemoved)) - count(localSignal(packetDropped))))"
attr title "queue length, last"
attr unit pk
scalar HostsWithHub.hostC.eth.queue queueLength:max 0
attr autoWarmupFilter false
attr interpolationmode sample-hold
attr recordingmode max
attr source "warmup(atomic(constant0(localSignal(packetPushEnded)) + count(localSignal(packetPushStarted)) - count(localSignal(packetPulled)) - count(localSignal(packetRemoved)) - count(localSignal(packetDropped))))"
attr title "queue length, max"
attr unit pk
scalar HostsWithHub.hostC.eth.queue queueLength:timeavg -1192.94634525
attr autoWarmupFilter false
attr interpolationmode sample-hold
attr recordingmode timeavg
attr source "warmup(atomic(constant0(localSignal(packetPushEnded)) + count(localSignal(packetPushStarted)) - count(localSignal(packetPulled)) - count(localSignal(packetRemoved)) - count(localSignal(packetDropped))))"
attr title "queue length, timeavg"
attr unit pk
scalar HostsWithHub.hostC.eth.queue queueBitLength:last -12135136
attr autoWarmupFilter false
attr interpolationmode sample-hold
attr recordingmode last
attr source "warmup(atomic(constant0(localSignal(packetPushEnded)) + sum(packetLength(localSignal(packetPushStarted))) - sum(packetLength(localSignal(packetPulled))) - sum(packetLength(localSignal(packetRemoved))) - sum(packetLength(localSignal(packetDropped)))))"
attr title "queue bit length, last"
attr unit b
scalar HostsWithHub.hostC.eth.queue queueBitLength:max 0
attr autoWarmupFilter false
attr interpolationmode sample-hold
attr recordingmode max
attr source "warmup(atomic(constant0(localSignal(packetPushEnded)) + sum(packetLength(localSignal(packetPushStarted))) - sum(packetLength(localSignal(packetPulled))) - sum(packetLength(localSignal(packetRemoved))) - sum(packetLength(localSignal(packetDropped)))))"
attr title "queue bit length, max"
attr unit b
scalar HostsWithHub.hostC.eth.queue queueBitLength:timeavg -6343700.4689477
attr autoWarmupFilter false
attr interpolationmode sample-hold
attr recordingmode timeavg
attr source "warmup(atomic(constant0(localSignal(packetPushEnded)) + sum(packetLength(localSignal(packetPushStarted))) - sum(packetLength(localSignal(packetPulled))) - sum(packetLength(localSignal(packetRemoved))) - sum(packetLength(localSignal(packetDropped)))))"
attr title "queue bit length, timeavg"
attr unit b
statistic HostsWithHub.hostC.eth.queue queueingTime:histogram
field count 2306
field mean 0
field stddev 0
field min 0
field max 0
field sum 0
field sqrsum 0
attr interpolationmode none
attr recordingmode histogram
attr source queueingTime(localSignal(packetPulled))
attr title "queueing times"
attr unit s
bin	-inf	0
bin	-0.5	0
bin	-0.48	0
bin	-0.46	0
bin	-0.44	0
bin	-0.42	0
bin	-0.4	0
bin	-0.38	0
bin	-0.36	0
bin	-0.34	0
bin	-0.32	0
bin	-0.3	0
bin	-0.28	0
bin	-0.26	0
bin	-0.24	0
bin	-0.22	0
bin	-0.2	0
bin	-0.18	0
bin	-0.16	0
bin	-0.14	0
bin	-0.12	0
bin	-0.1	0
bin	-0.08	0
bin	-0.06	0
bin	-0.04	0
bin	-0.02	0
bin	0	2306
bin	0.02	0
bin	0.04	0
bin	0.06	0
bin	0.08	0
bin	0.1	0
bin	0.12	0
bin	0.14	0
bin	0.16	0
bin	0.18	0
bin	0.2	0
bin	0.22	0
bin	0.24	0
bin	0.26	0
bin	0.28	0
bin	0.3	0
bin	0.32	0
bin	0.34	0
bin	0.36	0
bin	0.38	0
bin	0.4	0
bin	0.42	0
bin	0.44	0
bin	0.46	0
bin	0.48	0
bin	0.5	0
scalar HostsWithHub.hostC.eth.queue outgoingPackets:count 2306
attr recordingmode count
attr source localSignal(packetPulled)
attr title "outgoing packets, count"
attr unit pk
scalar HostsWithHub.hostC.eth.queue outgoingPacketLengths:sum 12135136
attr interpolationmode none
attr recordingmode sum
attr source packetLength(localSignal(packetPulled))
attr title "outgoing packet lengths, sum"
attr unit b
statistic HostsWithHub.hostC.eth.queue outgoingPacketLengths:histogram
field count 2306
field mean 5262.4180398959
field stddev 4337.4463487407
field min 328
field max 12128
field sum 12135136
field sqrsum 107225139712
attr interpolationmode none
attr recordingmode histogram
attr source packetLength(localSignal(packetPulled))
attr title "outgoing packet lengths"
attr unit b
bin	-inf	0
bin	0	0
bin	200	150
bin	400	348
bin	600	253
bin	800	0
bin	1000	0
bin	1200	0
bin	1400	0
bin	1600	0
bin	1800	0
bin	2000	0
bin	2200	0
bin	2400	0
bin	2600	0
bin	2800	0
bin	3000	0
bin	3200	0
bin	3400	0
bin	3600	0
bin	3800	89
bin	4000	486
bin	4200	194
bin	4400	0
bin	4600	0
bin	4800	0
bin	5000	0
bin	5200	0
bin	5400	0
bin	5600	0
bin	5800	0
bin	6000	0
bin	6200	0
bin	6400	0
bin	6600	0
bin	6800	0
bin	7000	0
bin	7200	0
bin	7400	0
bin	7600	0
bin	7800	0
bin	8000	0
bin	8200	0
bin	8400	0
bin	8600	0
bin	8800	0
bin	9000	0
bin	9200	0
bin	9400	0
bin	9600	13
bin	9800	68
bin	10000	67
bin	10200	75
bin	10400	61
bin	10600	79
bin	10800	69
bin	11000	68
bin	11200	58
bin	11400	62
bin	11600	61
bin	11800	58
bin	12000	47
bin	12200	0
bin	12400	0
bin	12600	0
bin	12800	0
bin	13000	0
bin	13200	0
bin	13400	0
bin	13600	0
bin	13800	0
bin	14000	0
bin	14200	0
bin	14400	0
bin	14600	0
bin	14800	0
bin	15000	0
statistic HostsWithHub.hostC.eth.queue flowQueueingTime:histogram
field count 0
field mean -nan
field stddev nan
field min nan
field max nan
field sum 0
field sqrsum 0
attr interpolationmode none
attr recordingmode histogram
attr source queueingTime(demuxFlow(localSignal(packetPulled)))
attr title "flow queueing times"
attr unit s
bin	-inf	0
bin	0	0
bin	1	0
scalar HostsWithHub.hostC.eth.queue incomingPackets:count 0
attr recordingmode count
attr source localSignal(packetPushStarted)
attr title "incoming packets, count"
attr unit pk
scalar HostsWithHub.hostC.eth.queue incomingPacketLengths:sum 0
attr interpolationmode none
attr recordingmode sum
attr source packetLength(localSignal(packetPushStarted))
attr title "incoming packet lengths, sum"
attr unit b
statistic HostsWithHub.hostC.eth.queue incomingPacketLengths:histogram
field count 0
field mean -nan
field stddev nan
field min nan
field max nan
field sum 0
field sqrsum 0
attr interpolationmode none
attr recordingmode histogram
attr source packetLength(localSignal(packetPushStarted))
attr title "incoming packet lengths"
attr unit b
bin	-inf	0
bin	0	0
bin	1	0
scalar HostsWithHub.hostC.eth.queue droppedPacketsQueueOverflow:count 0
attr interpolationmode none
attr recordingmode count
attr source packetDropReasonIsQueueOverflow(localSignal(packetDropped))
attr title "dropped packets: queue overflow, count"
attr unit pk
scalar HostsWithHub.hostC.eth.queue droppedPacketLengthsQueueOverflow:sum 0
attr interpolationmode none
attr recordingmode sum
attr source packetLength(packetDropReasonIsQueueOverflow(localSignal(packetDropped)))
attr title "dropped packet lengths: queue overflow, sum"
attr unit b
scalar HostsWithHub.hostC.eth.mac "simulated time" 5.2
scalar HostsWithHub.hostC.eth.mac full-duplex 0
scalar HostsWithHub.hostC.eth.mac "frames/sec sent" 430.96153846154
scalar HostsWithHub.hostC.eth.mac "frames/sec rcvd" 326.53846153846
scalar HostsWithHub.hostC.eth.mac "bits/sec sent" 2281416.9230769
scalar HostsWithHub.hostC.eth.mac "bits/sec rcvd" 1683086.1538462
scalar HostsWithHub.hostC.eth.mac "rx channel idle (%)" 39.867788461538
scalar HostsWithHub.hostC.eth.mac "rx channel utilization (%)" 59.990338461538
scalar HostsWithHub.hostC.eth.mac "rx channel collision (%)" 0.14187307692308
scalar HostsWithHub.hostC.eth.mac collisions 2124
scalar HostsWithHub.hostC.eth.mac backoffs 1672
scalar HostsWithHub.hostC.eth.mac backoffSlotsGenerated:count 1672
attr interpolationmode none
attr recordingmode count
attr title "backoff, count"
scalar HostsWithHub.hostC.eth.mac collision:count 2124
attr interpolationmode none
attr recordingmode count
attr title "collision, count"
scalar HostsWithHub.hostC.eth.mac rxPausePkUnits:count 0
attr interpolationmode none
attr recordingmode count
attr title "pause units received, count"
scalar HostsWithHub.hostC.eth.mac rxPausePkUnits:sum 0
attr interpolationmode none
attr recordingmode sum
attr title "pause units received, sum"
scalar HostsWithHub.hostC.eth.mac txPausePkUnits:count 0
attr interpolationmode none
attr recordingmode count
attr title "pause units sent, count"
scalar HostsWithHub.hostC.eth.mac txPausePkUnits:sum 0
attr interpolationmode none
attr recordingmode sum
attr title "pause units sent, sum"
scalar HostsWithHub.hostC.eth.mac rxPkOk:count 1698
attr interpolationmode none
attr recordingmode count
attr source rxPkOk
attr title "packets received OK, count"
scalar HostsWithHub.hostC.eth.mac rxPkOk:sum(packetBytes) 1094006
attr interpolationmode none
attr recordingmode sum(packetBytes)
attr source rxPkOk
attr title "packets received OK, sum(packetBytes)"
scalar HostsWithHub.hostC.eth.mac txPk:count 2241
attr interpolationmode none
attr recordingmode count
attr source packetSentToLower
attr title "packets transmitted, count"
scalar HostsWithHub.hostC.eth.mac txPk:sum(packetBytes) 1482921
attr interpolationmode none
attr recordingmode sum(packetBytes)
attr source packetSentToLower
attr title "packets transmitted, sum(packetBytes)"
scalar HostsWithHub.hostC.eth.mac packetReceivedFromUpper:count 2306
attr interpolationmode none
attr recordingmode count
attr source packetReceivedFromUpper
attr title "packet bytes from higher layer, count"
scalar HostsWithHub.hostC.eth.mac packetReceivedFromUpper:sum(packetBytes) 1516892
attr interpolationmode none
attr recordingmode sum(packetBytes)
attr source packetReceivedFromUpper
attr title "packet bytes from higher layer, sum(packetBytes)"
scalar HostsWithHub.hostC.eth.mac passedUpPk:count 1698
attr interpolationmode none
attr recordingmode count
attr source packetSentToUpper
attr title "packets passed to higher layer, count"
scalar HostsWithHub.hostC.eth.mac passedUpPk:sum(packetBytes) 1094006
attr interpolationmode none
attr recordingmode sum(packetBytes)
attr source packetSentToUpper
attr title "packets passed to higher layer, sum(packetBytes)"
scalar HostsWithHub.hostC.eth.mac packetDropIncorrectlyReceived:count 0
attr interpolationmode none
attr recordingmode count
attr source packetDropReasonIsIncorrectlyReceived(packetDropped)
attr title "packet drop: incorrectly received, count"
scalar HostsWithHub.hostC.eth.mac packetDropIncorrectlyReceived:sum(packetBytes) 0
attr interpolationmode none
attr recordingmode sum(packetBytes)
attr source packetDropReasonIsIncorrectlyReceived(packetDropped)
attr title "packet drop: incorrectly received, sum(packetBytes)"
scalar HostsWithHub.hostC.eth.mac packetDropInterfaceDown:count 64
attr interpolationmode none
attr recordingmode count
attr source packetDropReasonIsInterfaceDown(packetDropped)
attr title "packet drop: interface down, count"
scalar HostsWithHub.hostC.eth.mac packetDropInterfaceDown:sum(packetBytes) 38130
attr interpolationmode none
attr recordingmode sum(packetBytes)
attr source packetDropReasonIsInterfaceDown(packetDropped)
attr title "packet drop: interface down, sum(packetBytes)"
scalar HostsWithHub.hostC.eth.mac packetDropNotAddressedToUs:count 1914
attr interpolationmode none
attr recordingmode count
attr source packetDropReasonIsNotAddressedToUs(packetDropped)
attr title "packet drop: not addressed to us, count"
scalar HostsWithHub.hostC.eth.mac packetDropNotAddressedToUs:sum(packetBytes) 1275621
attr interpolationmode none
attr recordingmode sum(packetBytes)
attr source packetDropReasonIsNotAddressedToUs(packetDropped)
attr title "packet drop: not addressed to us, sum(packetBytes)"
scalar HostsWithHub.hostC.eth packetDropInterfaceDown:count 64
attr interpolationmode none
attr recordingmode count
attr source packetDropReasonIsInterfaceDown(packetDropped)
attr title "packet drops: interface down, count"
scalar HostsWithHub.hostC.eth packetDropInterfaceDown:sum(packetBytes) 38130
attr interpolationmode none
attr recordingmode sum(packetBytes)
attr source packetDropReasonIsInterfaceDown(packetDropped)
attr title "packet drops: interface down, sum(packetBytes)"
scalar HostsWithHub.hostC.eth packetDropNoCarrier:count 0
attr interpolationmode none
attr recordingmode count
attr source packetDropReasonIsNoCarrier(packetDropped)
attr title "packet drops: no carrier, count"
scalar HostsWithHub.hostC.eth packetDropNoCarrier:sum(packetBytes) 0
attr interpolationmode none
attr recordingmode sum(packetBytes)
attr source packetDropReasonIsNoCarrier(packetDropped)
attr title "packet drops: no carrier, sum(packetBytes)"
scalar HostsWithHub.hub packetReceived:count 20237
attr interpolationmode none
attr recordingmode count
attr source packetReceived
attr title "packets, count"
scalar HostsWithHub.hub packetReceived:sum(packetBytes) 7125053
attr interpolationmode none
attr recordingmode sum(packetBytes)
attr source packetReceived
attr title "packets, sum(packetBytes)"

