version 3
run General-0-20230426-16:27:41-214209
attr configname General
attr datetime 20230426-16:27:41
attr datetimef 20230426-162741
attr experiment General
attr inifile ethernet-hub-reconnect.ini
attr iterationvars "$datarate=10Mbps, $csmacd=true, $duplex=false, $burst=true, $queue=\"EthernetQosQueue\""
attr iterationvarsd datarate=10Mbps/csmacd=true/duplex=false/burst=true/queue=EthernetQosQueue
attr iterationvarsf datarate=10Mbps,csmacd=true,duplex=false,burst=true,queue=EthernetQosQueue-
attr measurement "$datarate=10Mbps, $csmacd=true, $duplex=false, $burst=true, $queue=\"EthernetQosQueue\""
attr network inet.tests.ethernet.HostsWithHub
attr processid 214209
attr repetition 0
attr replication #0
attr resultdir results
attr runnumber 0
attr seedset 0
itervar burst true
itervar csmacd true
itervar datarate 10Mbps
itervar duplex false
itervar queue "\"EthernetQosQueue\""
config **.param-recording false
config **.vector-recording false
config image-path /home/levy/workspace/inet/images
config output-scalar-file results/ethernet-hub-reconnect.ini-General-#0.sca
config sim-time-limit 5.2s
config sim-time-limit 5.2s
config network inet.tests.ethernet.HostsWithHub
config **.vector-recording false
config **.channel.datarate 10Mbps
config **.channel.delay 10s/200000000
config **.csmacdSupport true
config **.duplexMode false
config **.frameBursting true
config **.queue.typename EthernetQosQueue
config **.queue.dataQueue.typename DropTailQueue
config **.queue.dataQueue.packetCapacity 100000
config **.queue.packetCapacity 100000
config **.hostA.app.destAddress "\"hostB\""
config **.hostB.app.destAddress "\"hostC\""
config **.hostC.app.destAddress "\"hostA\""
config **.app.packetLength "select(intuniform(0,2), intWithUnit(uniform(20B,70B)), intWithUnit(uniform(474B,514B)), intWithUnit(uniform(1200B,1497B)))"
config **.app.numPacketsPerBurst geometric(1/5)
config **.app.sendInterval 10ms
config **.scenarioManager.script "xmldoc(\"ethernet-hub-reconnect.xml\")"

scalar HostsWithHub.hostA.app packetReceived:count 2192
attr interpolationmode none
attr recordingmode count
attr source packetReceived
attr title "packets received, count"
scalar HostsWithHub.hostA.app packetReceived:sum(packetBytes) 1399169
attr interpolationmode none
attr recordingmode sum(packetBytes)
attr source packetReceived
attr title "packets received, sum(packetBytes)"
statistic HostsWithHub.hostA.app endToEndDelay:histogram
field count 2192
field mean 0.01513470205292
field stddev 0.020283439649583
field min 5.77e-05
field max 0.0939865
field sum 33.1752669
field sqrsum 1.4035144515816
attr interpolationmode none
attr recordingmode histogram
attr source dataAge(packetReceived)
attr title "end-to-end delay"
attr unit s
bin	-inf	0
bin	0	274
bin	0.0015	319
bin	0.003	290
bin	0.0045	223
bin	0.006	165
bin	0.0075	109
bin	0.009	80
bin	0.0105	50
bin	0.012	44
bin	0.0135	41
bin	0.015	33
bin	0.0165	34
bin	0.018	22
bin	0.0195	24
bin	0.021	15
bin	0.0225	24
bin	0.024	15
bin	0.0255	19
bin	0.027	16
bin	0.0285	11
bin	0.03	18
bin	0.0315	6
bin	0.033	13
bin	0.0345	14
bin	0.036	6
bin	0.0375	5
bin	0.039	9
bin	0.0405	11
bin	0.042	12
bin	0.0435	19
bin	0.045	17
bin	0.0465	22
bin	0.048	31
bin	0.0495	18
bin	0.051	18
bin	0.0525	17
bin	0.054	10
bin	0.0555	4
bin	0.057	7
bin	0.0585	11
bin	0.06	9
bin	0.0615	3
bin	0.063	3
bin	0.0645	5
bin	0.066	8
bin	0.0675	9
bin	0.069	6
bin	0.0705	4
bin	0.072	0
bin	0.0735	0
bin	0.075	4
bin	0.0765	10
bin	0.078	13
bin	0.0795	3
bin	0.081	4
bin	0.0825	5
bin	0.084	11
bin	0.0855	5
bin	0.087	4
bin	0.0885	6
bin	0.09	2
bin	0.0915	1
bin	0.093	1
bin	0.0945	0
scalar HostsWithHub.hostA.app packetSent:count 2098
attr interpolationmode none
attr recordingmode count
attr source packetSent
attr title "packets sent, count"
scalar HostsWithHub.hostA.app packetSent:sum(packetBytes) 1348307
attr interpolationmode none
attr recordingmode sum(packetBytes)
attr source packetSent
attr title "packets sent, sum(packetBytes)"
scalar HostsWithHub.hostA.ethernet pauseSent:count 0
attr recordingmode count
attr title "pause sent, count"
scalar HostsWithHub.hostA.ethernet pauseSent:sum 0
attr recordingmode sum
attr title "pause sent, sum"
scalar HostsWithHub.hostA.ethernet decapPk:count 2192
attr interpolationmode none
attr recordingmode count
attr source decapPk
attr title "packets decapsulated, count"
scalar HostsWithHub.hostA.ethernet decapPk:sum(packetBytes) 1405745
attr interpolationmode none
attr recordingmode sum(packetBytes)
attr source decapPk
attr title "packets decapsulated, sum(packetBytes)"
scalar HostsWithHub.hostA.ethernet encapPk:count 2098
attr interpolationmode none
attr recordingmode count
attr source encapPk
attr title "packets encapsulated, count"
scalar HostsWithHub.hostA.ethernet encapPk:sum(packetBytes) 1354601
attr interpolationmode none
attr recordingmode sum(packetBytes)
attr source encapPk
attr title "packets encapsulated, sum(packetBytes)"
scalar HostsWithHub.hostA.eth.queue.classifier packets:count 2098
attr recordingmode count
attr source packetPushed
attr title "packets, count"
attr unit pk
scalar HostsWithHub.hostA.eth.queue.classifier packetLengths:sum 11138920
attr interpolationmode none
attr recordingmode sum
attr source packetLength(packetPushed)
attr title "packet lengths, sum"
attr unit b
statistic HostsWithHub.hostA.eth.queue.classifier packetLengths:histogram
field count 2098
field mean 5309.304099142
field stddev 4353.293079623
field min 328
field max 12136
field sum 11138920
field sqrsum 98880497472
attr interpolationmode none
attr recordingmode histogram
attr source packetLength(packetPushed)
attr title "packet lengths"
attr unit b
bin	-inf	0
bin	0	0
bin	200	136
bin	400	324
bin	600	212
bin	800	0
bin	1000	0
bin	1200	0
bin	1400	0
bin	1600	0
bin	1800	0
bin	2000	0
bin	2200	0
bin	2400	0
bin	2600	0
bin	2800	0
bin	3000	0
bin	3200	0
bin	3400	0
bin	3600	0
bin	3800	85
bin	4000	457
bin	4200	164
bin	4400	0
bin	4600	0
bin	4800	0
bin	5000	0
bin	5200	0
bin	5400	0
bin	5600	0
bin	5800	0
bin	6000	0
bin	6200	0
bin	6400	0
bin	6600	0
bin	6800	0
bin	7000	0
bin	7200	0
bin	7400	0
bin	7600	0
bin	7800	0
bin	8000	0
bin	8200	0
bin	8400	0
bin	8600	0
bin	8800	0
bin	9000	0
bin	9200	0
bin	9400	0
bin	9600	10
bin	9800	69
bin	10000	63
bin	10200	51
bin	10400	60
bin	10600	60
bin	10800	59
bin	11000	61
bin	11200	47
bin	11400	66
bin	11600	70
bin	11800	54
bin	12000	50
bin	12200	0
bin	12400	0
bin	12600	0
bin	12800	0
bin	13000	0
bin	13200	0
bin	13400	0
bin	13600	0
bin	13800	0
bin	14000	0
bin	14200	0
bin	14400	0
bin	14600	0
bin	14800	0
bin	15000	0
bin	15200	0
scalar HostsWithHub.hostA.eth.queue.pauseQueue queueLength:last nan
attr autoWarmupFilter false
attr interpolationmode sample-hold
attr recordingmode last
attr source "warmup(atomic(constant0(packetPushEnded) + count(packetPushStarted) - count(packetPulled) - count(packetRemoved) - count(packetDropped)))"
attr title "queue length, last"
attr unit pk
scalar HostsWithHub.hostA.eth.queue.pauseQueue queueLength:max nan
attr autoWarmupFilter false
attr interpolationmode sample-hold
attr recordingmode max
attr source "warmup(atomic(constant0(packetPushEnded) + count(packetPushStarted) - count(packetPulled) - count(packetRemoved) - count(packetDropped)))"
attr title "queue length, max"
attr unit pk
scalar HostsWithHub.hostA.eth.queue.pauseQueue queueLength:timeavg -nan
attr autoWarmupFilter false
attr interpolationmode sample-hold
attr recordingmode timeavg
attr source "warmup(atomic(constant0(packetPushEnded) + count(packetPushStarted) - count(packetPulled) - count(packetRemoved) - count(packetDropped)))"
attr title "queue length, timeavg"
attr unit pk
scalar HostsWithHub.hostA.eth.queue.pauseQueue queueBitLength:last nan
attr autoWarmupFilter false
attr interpolationmode sample-hold
attr recordingmode last
attr source "warmup(atomic(constant0(packetPushEnded) + sum(packetLength(packetPushStarted)) - sum(packetLength(packetPulled)) - sum(packetLength(packetRemoved)) - sum(packetLength(packetDropped))))"
attr title "queue bit length, last"
attr unit b
scalar HostsWithHub.hostA.eth.queue.pauseQueue queueBitLength:max nan
attr autoWarmupFilter false
attr interpolationmode sample-hold
attr recordingmode max
attr source "warmup(atomic(constant0(packetPushEnded) + sum(packetLength(packetPushStarted)) - sum(packetLength(packetPulled)) - sum(packetLength(packetRemoved)) - sum(packetLength(packetDropped))))"
attr title "queue bit length, max"
attr unit b
scalar HostsWithHub.hostA.eth.queue.pauseQueue queueBitLength:timeavg -nan
attr autoWarmupFilter false
attr interpolationmode sample-hold
attr recordingmode timeavg
attr source "warmup(atomic(constant0(packetPushEnded) + sum(packetLength(packetPushStarted)) - sum(packetLength(packetPulled)) - sum(packetLength(packetRemoved)) - sum(packetLength(packetDropped))))"
attr title "queue bit length, timeavg"
attr unit b
statistic HostsWithHub.hostA.eth.queue.pauseQueue queueingTime:histogram
field count 0
field mean -nan
field stddev nan
field min nan
field max nan
field sum 0
field sqrsum 0
attr interpolationmode none
attr recordingmode histogram
attr source queueingTime(packetPulled)
attr title "queueing times"
attr unit s
bin	-inf	0
bin	0	0
bin	1	0
scalar HostsWithHub.hostA.eth.queue.pauseQueue outgoingPackets:count 0
attr recordingmode count
attr source packetPulled
attr title "outgoing packets, count"
attr unit pk
scalar HostsWithHub.hostA.eth.queue.pauseQueue outgoingPacketLengths:sum 0
attr interpolationmode none
attr recordingmode sum
attr source packetLength(packetPulled)
attr title "outgoing packet lengths, sum"
attr unit b
statistic HostsWithHub.hostA.eth.queue.pauseQueue outgoingPacketLengths:histogram
field count 0
field mean -nan
field stddev nan
field min nan
field max nan
field sum 0
field sqrsum 0
attr interpolationmode none
attr recordingmode histogram
attr source packetLength(packetPulled)
attr title "outgoing packet lengths"
attr unit b
bin	-inf	0
bin	0	0
bin	1	0
statistic HostsWithHub.hostA.eth.queue.pauseQueue flowQueueingTime:histogram
field count 0
field mean -nan
field stddev nan
field min nan
field max nan
field sum 0
field sqrsum 0
attr interpolationmode none
attr recordingmode histogram
attr source queueingTime(demuxFlow(packetPulled))
attr title "flow queueing times"
attr unit s
bin	-inf	0
bin	0	0
bin	1	0
scalar HostsWithHub.hostA.eth.queue.pauseQueue incomingPackets:count 0
attr recordingmode count
attr source packetPushStarted
attr title "incoming packets, count"
attr unit pk
scalar HostsWithHub.hostA.eth.queue.pauseQueue incomingPacketLengths:sum 0
attr interpolationmode none
attr recordingmode sum
attr source packetLength(packetPushStarted)
attr title "incoming packet lengths, sum"
attr unit b
statistic HostsWithHub.hostA.eth.queue.pauseQueue incomingPacketLengths:histogram
field count 0
field mean -nan
field stddev nan
field min nan
field max nan
field sum 0
field sqrsum 0
attr interpolationmode none
attr recordingmode histogram
attr source packetLength(packetPushStarted)
attr title "incoming packet lengths"
attr unit b
bin	-inf	0
bin	0	0
bin	1	0
scalar HostsWithHub.hostA.eth.queue.pauseQueue droppedPacketsQueueOverflow:count 0
attr interpolationmode none
attr recordingmode count
attr source packetDropReasonIsQueueOverflow(packetDropped)
attr title "dropped packets: queue overflow, count"
attr unit pk
scalar HostsWithHub.hostA.eth.queue.pauseQueue droppedPacketLengthsQueueOverflow:sum 0
attr interpolationmode none
attr recordingmode sum
attr source packetLength(packetDropReasonIsQueueOverflow(packetDropped))
attr title "dropped packet lengths: queue overflow, sum"
attr unit b
scalar HostsWithHub.hostA.eth.queue.dataQueue queueLength:last 48
attr autoWarmupFilter false
attr interpolationmode sample-hold
attr recordingmode last
attr source "warmup(atomic(constant0(packetPushEnded) + count(packetPushStarted) - count(packetPulled) - count(packetRemoved) - count(packetDropped)))"
attr title "queue length, last"
attr unit pk
scalar HostsWithHub.hostA.eth.queue.dataQueue queueLength:max 81
attr autoWarmupFilter false
attr interpolationmode sample-hold
attr recordingmode max
attr source "warmup(atomic(constant0(packetPushEnded) + count(packetPushStarted) - count(packetPulled) - count(packetRemoved) - count(packetDropped)))"
attr title "queue length, max"
attr unit pk
scalar HostsWithHub.hostA.eth.queue.dataQueue queueLength:timeavg 8.9892913294798
attr autoWarmupFilter false
attr interpolationmode sample-hold
attr recordingmode timeavg
attr source "warmup(atomic(constant0(packetPushEnded) + count(packetPushStarted) - count(packetPulled) - count(packetRemoved) - count(packetDropped)))"
attr title "queue length, timeavg"
attr unit pk
scalar HostsWithHub.hostA.eth.queue.dataQueue queueBitLength:last 263304
attr autoWarmupFilter false
attr interpolationmode sample-hold
attr recordingmode last
attr source "warmup(atomic(constant0(packetPushEnded) + sum(packetLength(packetPushStarted)) - sum(packetLength(packetPulled)) - sum(packetLength(packetRemoved)) - sum(packetLength(packetDropped))))"
attr title "queue bit length, last"
attr unit b
scalar HostsWithHub.hostA.eth.queue.dataQueue queueBitLength:max 446128
attr autoWarmupFilter false
attr interpolationmode sample-hold
attr recordingmode max
attr source "warmup(atomic(constant0(packetPushEnded) + sum(packetLength(packetPushStarted)) - sum(packetLength(packetPulled)) - sum(packetLength(packetRemoved)) - sum(packetLength(packetDropped))))"
attr title "queue bit length, max"
attr unit b
scalar HostsWithHub.hostA.eth.queue.dataQueue queueBitLength:timeavg 47933.337693256
attr autoWarmupFilter false
attr interpolationmode sample-hold
attr recordingmode timeavg
attr source "warmup(atomic(constant0(packetPushEnded) + sum(packetLength(packetPushStarted)) - sum(packetLength(packetPulled)) - sum(packetLength(packetRemoved)) - sum(packetLength(packetDropped))))"
attr title "queue bit length, timeavg"
attr unit b
statistic HostsWithHub.hostA.eth.queue.dataQueue queueingTime:histogram
field count 2050
field mean 0.021650937560976
field stddev 0.036680592033729
field min 0
field max 0.2100821
field sum 44.384422
field sqrsum 3.717823839057
attr interpolationmode none
attr recordingmode histogram
attr source queueingTime(packetPulled)
attr title "queueing times"
attr unit s
bin	-inf	0
bin	0	744
bin	0.0032	314
bin	0.0064	189
bin	0.0096	89
bin	0.0128	57
bin	0.016	63
bin	0.0192	43
bin	0.0224	43
bin	0.0256	50
bin	0.0288	45
bin	0.032	49
bin	0.0352	26
bin	0.0384	18
bin	0.0416	13
bin	0.0448	19
bin	0.048	14
bin	0.0512	25
bin	0.0544	3
bin	0.0576	12
bin	0.0608	16
bin	0.064	25
bin	0.0672	19
bin	0.0704	4
bin	0.0736	5
bin	0.0768	15
bin	0.08	8
bin	0.0832	4
bin	0.0864	3
bin	0.0896	4
bin	0.0928	4
bin	0.096	8
bin	0.0992	5
bin	0.1024	0
bin	0.1056	8
bin	0.1088	2
bin	0.112	10
bin	0.1152	11
bin	0.1184	6
bin	0.1216	0
bin	0.1248	5
bin	0.128	7
bin	0.1312	7
bin	0.1344	1
bin	0.1376	1
bin	0.1408	0
bin	0.144	4
bin	0.1472	4
bin	0.1504	2
bin	0.1536	10
bin	0.1568	5
bin	0.16	7
bin	0.1632	1
bin	0.1664	0
bin	0.1696	2
bin	0.1728	0
bin	0.176	2
bin	0.1792	0
bin	0.1824	4
bin	0.1856	3
bin	0.1888	2
bin	0.192	0
bin	0.1952	0
bin	0.1984	3
bin	0.2016	2
bin	0.2048	1
bin	0.208	4
bin	0.2112	0
scalar HostsWithHub.hostA.eth.queue.dataQueue outgoingPackets:count 2050
attr recordingmode count
attr source packetPulled
attr title "outgoing packets, count"
attr unit pk
scalar HostsWithHub.hostA.eth.queue.dataQueue outgoingPacketLengths:sum 10875616
attr interpolationmode none
attr recordingmode sum
attr source packetLength(packetPulled)
attr title "outgoing packet lengths, sum"
attr unit b
statistic HostsWithHub.hostA.eth.queue.dataQueue outgoingPacketLengths:histogram
field count 2050
field mean 5305.1785365854
field stddev 4358.9199337789
field min 328
field max 12136
field sum 10875616
field sqrsum 96628459520
attr interpolationmode none
attr recordingmode histogram
attr source packetLength(packetPulled)
attr title "outgoing packet lengths"
attr unit b
bin	-inf	0
bin	0	0
bin	200	135
bin	400	316
bin	600	209
bin	800	0
bin	1000	0
bin	1200	0
bin	1400	0
bin	1600	0
bin	1800	0
bin	2000	0
bin	2200	0
bin	2400	0
bin	2600	0
bin	2800	0
bin	3000	0
bin	3200	0
bin	3400	0
bin	3600	0
bin	3800	83
bin	4000	445
bin	4200	158
bin	4400	0
bin	4600	0
bin	4800	0
bin	5000	0
bin	5200	0
bin	5400	0
bin	5600	0
bin	5800	0
bin	6000	0
bin	6200	0
bin	6400	0
bin	6600	0
bin	6800	0
bin	7000	0
bin	7200	0
bin	7400	0
bin	7600	0
bin	7800	0
bin	8000	0
bin	8200	0
bin	8400	0
bin	8600	0
bin	8800	0
bin	9000	0
bin	9200	0
bin	9400	0
bin	9600	10
bin	9800	66
bin	10000	60
bin	10200	51
bin	10400	59
bin	10600	59
bin	10800	58
bin	11000	60
bin	11200	47
bin	11400	66
bin	11600	66
bin	11800	53
bin	12000	49
bin	12200	0
bin	12400	0
bin	12600	0
bin	12800	0
bin	13000	0
bin	13200	0
bin	13400	0
bin	13600	0
bin	13800	0
bin	14000	0
bin	14200	0
bin	14400	0
bin	14600	0
bin	14800	0
bin	15000	0
bin	15200	0
statistic HostsWithHub.hostA.eth.queue.dataQueue flowQueueingTime:histogram
field count 0
field mean -nan
field stddev nan
field min nan
field max nan
field sum 0
field sqrsum 0
attr interpolationmode none
attr recordingmode histogram
attr source queueingTime(demuxFlow(packetPulled))
attr title "flow queueing times"
attr unit s
bin	-inf	0
bin	0	0
bin	1	0
scalar HostsWithHub.hostA.eth.queue.dataQueue incomingPackets:count 2098
attr recordingmode count
attr source packetPushStarted
attr title "incoming packets, count"
attr unit pk
scalar HostsWithHub.hostA.eth.queue.dataQueue incomingPacketLengths:sum 11138920
attr interpolationmode none
attr recordingmode sum
attr source packetLength(packetPushStarted)
attr title "incoming packet lengths, sum"
attr unit b
statistic HostsWithHub.hostA.eth.queue.dataQueue incomingPacketLengths:histogram
field count 2098
field mean 5309.304099142
field stddev 4353.293079623
field min 328
field max 12136
field sum 11138920
field sqrsum 98880497472
attr interpolationmode none
attr recordingmode histogram
attr source packetLength(packetPushStarted)
attr title "incoming packet lengths"
attr unit b
bin	-inf	0
bin	0	0
bin	200	136
bin	400	324
bin	600	212
bin	800	0
bin	1000	0
bin	1200	0
bin	1400	0
bin	1600	0
bin	1800	0
bin	2000	0
bin	2200	0
bin	2400	0
bin	2600	0
bin	2800	0
bin	3000	0
bin	3200	0
bin	3400	0
bin	3600	0
bin	3800	85
bin	4000	457
bin	4200	164
bin	4400	0
bin	4600	0
bin	4800	0
bin	5000	0
bin	5200	0
bin	5400	0
bin	5600	0
bin	5800	0
bin	6000	0
bin	6200	0
bin	6400	0
bin	6600	0
bin	6800	0
bin	7000	0
bin	7200	0
bin	7400	0
bin	7600	0
bin	7800	0
bin	8000	0
bin	8200	0
bin	8400	0
bin	8600	0
bin	8800	0
bin	9000	0
bin	9200	0
bin	9400	0
bin	9600	10
bin	9800	69
bin	10000	63
bin	10200	51
bin	10400	60
bin	10600	60
bin	10800	59
bin	11000	61
bin	11200	47
bin	11400	66
bin	11600	70
bin	11800	54
bin	12000	50
bin	12200	0
bin	12400	0
bin	12600	0
bin	12800	0
bin	13000	0
bin	13200	0
bin	13400	0
bin	13600	0
bin	13800	0
bin	14000	0
bin	14200	0
bin	14400	0
bin	14600	0
bin	14800	0
bin	15000	0
bin	15200	0
scalar HostsWithHub.hostA.eth.queue.dataQueue droppedPacketsQueueOverflow:count 0
attr interpolationmode none
attr recordingmode count
attr source packetDropReasonIsQueueOverflow(packetDropped)
attr title "dropped packets: queue overflow, count"
attr unit pk
scalar HostsWithHub.hostA.eth.queue.dataQueue droppedPacketLengthsQueueOverflow:sum 0
attr interpolationmode none
attr recordingmode sum
attr source packetLength(packetDropReasonIsQueueOverflow(packetDropped))
attr title "dropped packet lengths: queue overflow, sum"
attr unit b
scalar HostsWithHub.hostA.eth.queue.scheduler packets:count 2050
attr recordingmode count
attr source packetPulled
attr title "packets, count"
attr unit pk
scalar HostsWithHub.hostA.eth.queue.scheduler packetLengths:sum 10875616
attr interpolationmode none
attr recordingmode sum
attr source packetLength(packetPulled)
attr title "packet lengths, sum"
attr unit b
statistic HostsWithHub.hostA.eth.queue.scheduler packetLengths:histogram
field count 2050
field mean 5305.1785365854
field stddev 4358.9199337789
field min 328
field max 12136
field sum 10875616
field sqrsum 96628459520
attr interpolationmode none
attr recordingmode histogram
attr source packetLength(packetPulled)
attr title "packet lengths"
attr unit b
bin	-inf	0
bin	0	0
bin	200	135
bin	400	316
bin	600	209
bin	800	0
bin	1000	0
bin	1200	0
bin	1400	0
bin	1600	0
bin	1800	0
bin	2000	0
bin	2200	0
bin	2400	0
bin	2600	0
bin	2800	0
bin	3000	0
bin	3200	0
bin	3400	0
bin	3600	0
bin	3800	83
bin	4000	445
bin	4200	158
bin	4400	0
bin	4600	0
bin	4800	0
bin	5000	0
bin	5200	0
bin	5400	0
bin	5600	0
bin	5800	0
bin	6000	0
bin	6200	0
bin	6400	0
bin	6600	0
bin	6800	0
bin	7000	0
bin	7200	0
bin	7400	0
bin	7600	0
bin	7800	0
bin	8000	0
bin	8200	0
bin	8400	0
bin	8600	0
bin	8800	0
bin	9000	0
bin	9200	0
bin	9400	0
bin	9600	10
bin	9800	66
bin	10000	60
bin	10200	51
bin	10400	59
bin	10600	59
bin	10800	58
bin	11000	60
bin	11200	47
bin	11400	66
bin	11600	66
bin	11800	53
bin	12000	49
bin	12200	0
bin	12400	0
bin	12600	0
bin	12800	0
bin	13000	0
bin	13200	0
bin	13400	0
bin	13600	0
bin	13800	0
bin	14000	0
bin	14200	0
bin	14400	0
bin	14600	0
bin	14800	0
bin	15000	0
bin	15200	0
scalar HostsWithHub.hostA.eth.queue queueLength:last nan
attr autoWarmupFilter false
attr interpolationmode sample-hold
attr recordingmode last
attr source "warmup(atomic(constant0(localSignal(packetPushEnded)) + count(localSignal(packetPushStarted)) - count(localSignal(packetPulled)) - count(localSignal(packetRemoved)) - count(localSignal(packetDropped))))"
attr title "queue length, last"
attr unit pk
scalar HostsWithHub.hostA.eth.queue queueLength:max nan
attr autoWarmupFilter false
attr interpolationmode sample-hold
attr recordingmode max
attr source "warmup(atomic(constant0(localSignal(packetPushEnded)) + count(localSignal(packetPushStarted)) - count(localSignal(packetPulled)) - count(localSignal(packetRemoved)) - count(localSignal(packetDropped))))"
attr title "queue length, max"
attr unit pk
scalar HostsWithHub.hostA.eth.queue queueLength:timeavg -nan
attr autoWarmupFilter false
attr interpolationmode sample-hold
attr recordingmode timeavg
attr source "warmup(atomic(constant0(localSignal(packetPushEnded)) + count(localSignal(packetPushStarted)) - count(localSignal(packetPulled)) - count(localSignal(packetRemoved)) - count(localSignal(packetDropped))))"
attr title "queue length, timeavg"
attr unit pk
scalar HostsWithHub.hostA.eth.queue queueBitLength:last nan
attr autoWarmupFilter false
attr interpolationmode sample-hold
attr recordingmode last
attr source "warmup(atomic(constant0(localSignal(packetPushEnded)) + sum(packetLength(localSignal(packetPushStarted))) - sum(packetLength(localSignal(packetPulled))) - sum(packetLength(localSignal(packetRemoved))) - sum(packetLength(localSignal(packetDropped)))))"
attr title "queue bit length, last"
attr unit b
scalar HostsWithHub.hostA.eth.queue queueBitLength:max nan
attr autoWarmupFilter false
attr interpolationmode sample-hold
attr recordingmode max
attr source "warmup(atomic(constant0(localSignal(packetPushEnded)) + sum(packetLength(localSignal(packetPushStarted))) - sum(packetLength(localSignal(packetPulled))) - sum(packetLength(localSignal(packetRemoved))) - sum(packetLength(localSignal(packetDropped)))))"
attr title "queue bit length, max"
attr unit b
scalar HostsWithHub.hostA.eth.queue queueBitLength:timeavg -nan
attr autoWarmupFilter false
attr interpolationmode sample-hold
attr recordingmode timeavg
attr source "warmup(atomic(constant0(localSignal(packetPushEnded)) + sum(packetLength(localSignal(packetPushStarted))) - sum(packetLength(localSignal(packetPulled))) - sum(packetLength(localSignal(packetRemoved))) - sum(packetLength(localSignal(packetDropped)))))"
attr title "queue bit length, timeavg"
attr unit b
statistic HostsWithHub.hostA.eth.queue queueingTime:histogram
field count 2050
field mean 0
field stddev 0
field min 0
field max 0
field sum 0
field sqrsum 0
attr interpolationmode none
attr recordingmode histogram
attr source queueingTime(localSignal(packetPulled))
attr title "queueing times"
attr unit s
bin	-inf	0
bin	-0.5	0
bin	-0.48	0
bin	-0.46	0
bin	-0.44	0
bin	-0.42	0
bin	-0.4	0
bin	-0.38	0
bin	-0.36	0
bin	-0.34	0
bin	-0.32	0
bin	-0.3	0
bin	-0.28	0
bin	-0.26	0
bin	-0.24	0
bin	-0.22	0
bin	-0.2	0
bin	-0.18	0
bin	-0.16	0
bin	-0.14	0
bin	-0.12	0
bin	-0.1	0
bin	-0.08	0
bin	-0.06	0
bin	-0.04	0
bin	-0.02	0
bin	0	2050
bin	0.02	0
bin	0.04	0
bin	0.06	0
bin	0.08	0
bin	0.1	0
bin	0.12	0
bin	0.14	0
bin	0.16	0
bin	0.18	0
bin	0.2	0
bin	0.22	0
bin	0.24	0
bin	0.26	0
bin	0.28	0
bin	0.3	0
bin	0.32	0
bin	0.34	0
bin	0.36	0
bin	0.38	0
bin	0.4	0
bin	0.42	0
bin	0.44	0
bin	0.46	0
bin	0.48	0
bin	0.5	0
scalar HostsWithHub.hostA.eth.queue outgoingPackets:count 2050
attr recordingmode count
attr source localSignal(packetPulled)
attr title "outgoing packets, count"
attr unit pk
scalar HostsWithHub.hostA.eth.queue outgoingPacketLengths:sum 10875616
attr interpolationmode none
attr recordingmode sum
attr source packetLength(localSignal(packetPulled))
attr title "outgoing packet lengths, sum"
attr unit b
statistic HostsWithHub.hostA.eth.queue outgoingPacketLengths:histogram
field count 2050
field mean 5305.1785365854
field stddev 4358.9199337789
field min 328
field max 12136
field sum 10875616
field sqrsum 96628459520
attr interpolationmode none
attr recordingmode histogram
attr source packetLength(localSignal(packetPulled))
attr title "outgoing packet lengths"
attr unit b
bin	-inf	0
bin	0	0
bin	200	135
bin	400	316
bin	600	209
bin	800	0
bin	1000	0
bin	1200	0
bin	1400	0
bin	1600	0
bin	1800	0
bin	2000	0
bin	2200	0
bin	2400	0
bin	2600	0
bin	2800	0
bin	3000	0
bin	3200	0
bin	3400	0
bin	3600	0
bin	3800	83
bin	4000	445
bin	4200	158
bin	4400	0
bin	4600	0
bin	4800	0
bin	5000	0
bin	5200	0
bin	5400	0
bin	5600	0
bin	5800	0
bin	6000	0
bin	6200	0
bin	6400	0
bin	6600	0
bin	6800	0
bin	7000	0
bin	7200	0
bin	7400	0
bin	7600	0
bin	7800	0
bin	8000	0
bin	8200	0
bin	8400	0
bin	8600	0
bin	8800	0
bin	9000	0
bin	9200	0
bin	9400	0
bin	9600	10
bin	9800	66
bin	10000	60
bin	10200	51
bin	10400	59
bin	10600	59
bin	10800	58
bin	11000	60
bin	11200	47
bin	11400	66
bin	11600	66
bin	11800	53
bin	12000	49
bin	12200	0
bin	12400	0
bin	12600	0
bin	12800	0
bin	13000	0
bin	13200	0
bin	13400	0
bin	13600	0
bin	13800	0
bin	14000	0
bin	14200	0
bin	14400	0
bin	14600	0
bin	14800	0
bin	15000	0
bin	15200	0
statistic HostsWithHub.hostA.eth.queue flowQueueingTime:histogram
field count 0
field mean -nan
field stddev nan
field min nan
field max nan
field sum 0
field sqrsum 0
attr interpolationmode none
attr recordingmode histogram
attr source queueingTime(demuxFlow(localSignal(packetPulled)))
attr title "flow queueing times"
attr unit s
bin	-inf	0
bin	0	0
bin	1	0
scalar HostsWithHub.hostA.eth.queue incomingPackets:count 0
attr recordingmode count
attr source localSignal(packetPushStarted)
attr title "incoming packets, count"
attr unit pk
scalar HostsWithHub.hostA.eth.queue incomingPacketLengths:sum 0
attr interpolationmode none
attr recordingmode sum
attr source packetLength(localSignal(packetPushStarted))
attr title "incoming packet lengths, sum"
attr unit b
statistic HostsWithHub.hostA.eth.queue incomingPacketLengths:histogram
field count 0
field mean -nan
field stddev nan
field min nan
field max nan
field sum 0
field sqrsum 0
attr interpolationmode none
attr recordingmode histogram
attr source packetLength(localSignal(packetPushStarted))
attr title "incoming packet lengths"
attr unit b
bin	-inf	0
bin	0	0
bin	1	0
scalar HostsWithHub.hostA.eth.queue droppedPacketsQueueOverflow:count 0
attr interpolationmode none
attr recordingmode count
attr source packetDropReasonIsQueueOverflow(localSignal(packetDropped))
attr title "dropped packets: queue overflow, count"
attr unit pk
scalar HostsWithHub.hostA.eth.queue droppedPacketLengthsQueueOverflow:sum 0
attr interpolationmode none
attr recordingmode sum
attr source packetLength(packetDropReasonIsQueueOverflow(localSignal(packetDropped)))
attr title "dropped packet lengths: queue overflow, sum"
attr unit b
scalar HostsWithHub.hostA.eth.mac "simulated time" 5.2
scalar HostsWithHub.hostA.eth.mac full-duplex 0
scalar HostsWithHub.hostA.eth.mac "frames/sec sent" 375.57692307692
scalar HostsWithHub.hostA.eth.mac "frames/sec rcvd" 421.53846153846
scalar HostsWithHub.hostA.eth.mac "bits/sec sent" 2014418.4615385
scalar HostsWithHub.hostA.eth.mac "bits/sec rcvd" 2229840
scalar HostsWithHub.hostA.eth.mac "rx channel idle (%)" 38.135086538462
scalar HostsWithHub.hostA.eth.mac "rx channel utilization (%)" 59.687707692308
scalar HostsWithHub.hostA.eth.mac "rx channel collision (%)" 2.1772057692308
scalar HostsWithHub.hostA.eth.mac collisions 2109
scalar HostsWithHub.hostA.eth.mac backoffs 1557
scalar HostsWithHub.hostA.eth.mac backoffSlotsGenerated:count 1557
attr interpolationmode none
attr recordingmode count
attr title "backoff, count"
scalar HostsWithHub.hostA.eth.mac collision:count 2109
attr interpolationmode none
attr recordingmode count
attr title "collision, count"
scalar HostsWithHub.hostA.eth.mac rxPausePkUnits:count 0
attr interpolationmode none
attr recordingmode count
attr title "pause units received, count"
scalar HostsWithHub.hostA.eth.mac rxPausePkUnits:sum 0
attr interpolationmode none
attr recordingmode sum
attr title "pause units received, sum"
scalar HostsWithHub.hostA.eth.mac txPausePkUnits:count 0
attr interpolationmode none
attr recordingmode count
attr title "pause units sent, count"
scalar HostsWithHub.hostA.eth.mac txPausePkUnits:sum 0
attr interpolationmode none
attr recordingmode sum
attr title "pause units sent, sum"
scalar HostsWithHub.hostA.eth.mac rxPkOk:count 2192
attr interpolationmode none
attr recordingmode count
attr source rxPkOk
attr title "packets received OK, count"
scalar HostsWithHub.hostA.eth.mac rxPkOk:sum(packetBytes) 1449396
attr interpolationmode none
attr recordingmode sum(packetBytes)
attr source rxPkOk
attr title "packets received OK, sum(packetBytes)"
scalar HostsWithHub.hostA.eth.mac txPk:count 1953
attr interpolationmode none
attr recordingmode count
attr source packetSentToLower
attr title "packets transmitted, count"
scalar HostsWithHub.hostA.eth.mac txPk:sum(packetBytes) 1309372
attr interpolationmode none
attr recordingmode sum(packetBytes)
attr source packetSentToLower
attr title "packets transmitted, sum(packetBytes)"
scalar HostsWithHub.hostA.eth.mac packetReceivedFromUpper:count 2050
attr interpolationmode none
attr recordingmode count
attr source packetReceivedFromUpper
attr title "packet bytes from higher layer, count"
scalar HostsWithHub.hostA.eth.mac packetReceivedFromUpper:sum(packetBytes) 1359452
attr interpolationmode none
attr recordingmode sum(packetBytes)
attr source packetReceivedFromUpper
attr title "packet bytes from higher layer, sum(packetBytes)"
scalar HostsWithHub.hostA.eth.mac passedUpPk:count 2192
attr interpolationmode none
attr recordingmode count
attr source packetSentToUpper
attr title "packets passed to higher layer, count"
scalar HostsWithHub.hostA.eth.mac passedUpPk:sum(packetBytes) 1449396
attr interpolationmode none
attr recordingmode sum(packetBytes)
attr source packetSentToUpper
attr title "packets passed to higher layer, sum(packetBytes)"
scalar HostsWithHub.hostA.eth.mac packetDropIncorrectlyReceived:count 0
attr interpolationmode none
attr recordingmode count
attr source packetDropReasonIsIncorrectlyReceived(packetDropped)
attr title "packet drop: incorrectly received, count"
scalar HostsWithHub.hostA.eth.mac packetDropIncorrectlyReceived:sum(packetBytes) 0
attr interpolationmode none
attr recordingmode sum(packetBytes)
attr source packetDropReasonIsIncorrectlyReceived(packetDropped)
attr title "packet drop: incorrectly received, sum(packetBytes)"
scalar HostsWithHub.hostA.eth.mac packetDropInterfaceDown:count 95
attr interpolationmode none
attr recordingmode count
attr source packetDropReasonIsInterfaceDown(packetDropped)
attr title "packet drop: interface down, count"
scalar HostsWithHub.hostA.eth.mac packetDropInterfaceDown:sum(packetBytes) 53669
attr interpolationmode none
attr recordingmode sum(packetBytes)
attr source packetDropReasonIsInterfaceDown(packetDropped)
attr title "packet drop: interface down, sum(packetBytes)"
scalar HostsWithHub.hostA.eth.mac packetDropNotAddressedToUs:count 1668
attr interpolationmode none
attr recordingmode count
attr source packetDropReasonIsNotAddressedToUs(packetDropped)
attr title "packet drop: not addressed to us, count"
scalar HostsWithHub.hostA.eth.mac packetDropNotAddressedToUs:sum(packetBytes) 1074429
attr interpolationmode none
attr recordingmode sum(packetBytes)
attr source packetDropReasonIsNotAddressedToUs(packetDropped)
attr title "packet drop: not addressed to us, sum(packetBytes)"
scalar HostsWithHub.hostA.eth packetDropInterfaceDown:count 95
attr interpolationmode none
attr recordingmode count
attr source packetDropReasonIsInterfaceDown(packetDropped)
attr title "packet drops: interface down, count"
scalar HostsWithHub.hostA.eth packetDropInterfaceDown:sum(packetBytes) 53669
attr interpolationmode none
attr recordingmode sum(packetBytes)
attr source packetDropReasonIsInterfaceDown(packetDropped)
attr title "packet drops: interface down, sum(packetBytes)"
scalar HostsWithHub.hostA.eth packetDropNoCarrier:count 0
attr interpolationmode none
attr recordingmode count
attr source packetDropReasonIsNoCarrier(packetDropped)
attr title "packet drops: no carrier, count"
scalar HostsWithHub.hostA.eth packetDropNoCarrier:sum(packetBytes) 0
attr interpolationmode none
attr recordingmode sum(packetBytes)
attr source packetDropReasonIsNoCarrier(packetDropped)
attr title "packet drops: no carrier, sum(packetBytes)"
scalar HostsWithHub.hostB.app packetReceived:count 1895
attr interpolationmode none
attr recordingmode count
attr source packetReceived
attr title "packets received, count"
scalar HostsWithHub.hostB.app packetReceived:sum(packetBytes) 1228364
attr interpolationmode none
attr recordingmode sum(packetBytes)
attr source packetReceived
attr title "packets received, sum(packetBytes)"
statistic HostsWithHub.hostB.app endToEndDelay:histogram
field count 1895
field mean 0.024548828707124
field stddev 0.037871010758225
field min 5.77e-05
field max 0.2110579
field sum 46.5200304
field sqrsum 3.858412543119
attr interpolationmode none
attr recordingmode histogram
attr source dataAge(packetReceived)
attr title "end-to-end delay"
attr unit s
bin	-inf	0
bin	0	691
bin	0.005	387
bin	0.01	118
bin	0.015	96
bin	0.02	60
bin	0.025	87
bin	0.03	73
bin	0.035	49
bin	0.04	16
bin	0.045	29
bin	0.05	34
bin	0.055	8
bin	0.06	25
bin	0.065	39
bin	0.07	11
bin	0.075	17
bin	0.08	10
bin	0.085	6
bin	0.09	6
bin	0.095	15
bin	0.1	3
bin	0.105	9
bin	0.11	9
bin	0.115	16
bin	0.12	3
bin	0.125	8
bin	0.13	10
bin	0.135	2
bin	0.14	1
bin	0.145	8
bin	0.15	3
bin	0.155	13
bin	0.16	9
bin	0.165	0
bin	0.17	2
bin	0.175	2
bin	0.18	3
bin	0.185	5
bin	0.19	1
bin	0.195	1
bin	0.2	3
bin	0.205	5
bin	0.21	2
bin	0.215	0
bin	0.22	0
bin	0.225	0
bin	0.23	0
bin	0.235	0
bin	0.24	0
scalar HostsWithHub.hostB.app packetSent:count 1911
attr interpolationmode none
attr recordingmode count
attr source packetSent
attr title "packets sent, count"
scalar HostsWithHub.hostB.app packetSent:sum(packetBytes) 1187554
attr interpolationmode none
attr recordingmode sum(packetBytes)
attr source packetSent
attr title "packets sent, sum(packetBytes)"
scalar HostsWithHub.hostB.ethernet pauseSent:count 0
attr recordingmode count
attr title "pause sent, count"
scalar HostsWithHub.hostB.ethernet pauseSent:sum 0
attr recordingmode sum
attr title "pause sent, sum"
scalar HostsWithHub.hostB.ethernet decapPk:count 1895
attr interpolationmode none
attr recordingmode count
attr source decapPk
attr title "packets decapsulated, count"
scalar HostsWithHub.hostB.ethernet decapPk:sum(packetBytes) 1234049
attr interpolationmode none
attr recordingmode sum(packetBytes)
attr source decapPk
attr title "packets decapsulated, sum(packetBytes)"
scalar HostsWithHub.hostB.ethernet encapPk:count 1911
attr interpolationmode none
attr recordingmode count
attr source encapPk
attr title "packets encapsulated, count"
scalar HostsWithHub.hostB.ethernet encapPk:sum(packetBytes) 1193287
attr interpolationmode none
attr recordingmode sum(packetBytes)
attr source encapPk
attr title "packets encapsulated, sum(packetBytes)"
scalar HostsWithHub.hostB.eth.queue.classifier packets:count 1911
attr recordingmode count
attr source packetPushed
attr title "packets, count"
attr unit pk
scalar HostsWithHub.hostB.eth.queue.classifier packetLengths:sum 9821480
attr interpolationmode none
attr recordingmode sum
attr source packetLength(packetPushed)
attr title "packet lengths, sum"
attr unit b
statistic HostsWithHub.hostB.eth.queue.classifier packetLengths:histogram
field count 1911
field mean 5139.4453165882
field stddev 4371.6623066722
field min 328
field max 12136
field sum 9821480
field sqrsum 86979793216
attr interpolationmode none
attr recordingmode histogram
attr source packetLength(packetPushed)
attr title "packet lengths"
attr unit b
bin	-inf	0
bin	0	0
bin	200	126
bin	400	337
bin	600	202
bin	800	0
bin	1000	0
bin	1200	0
bin	1400	0
bin	1600	0
bin	1800	0
bin	2000	0
bin	2200	0
bin	2400	0
bin	2600	0
bin	2800	0
bin	3000	0
bin	3200	0
bin	3400	0
bin	3600	0
bin	3800	87
bin	4000	355
bin	4200	165
bin	4400	0
bin	4600	0
bin	4800	0
bin	5000	0
bin	5200	0
bin	5400	0
bin	5600	0
bin	5800	0
bin	6000	0
bin	6200	0
bin	6400	0
bin	6600	0
bin	6800	0
bin	7000	0
bin	7200	0
bin	7400	0
bin	7600	0
bin	7800	0
bin	8000	0
bin	8200	0
bin	8400	0
bin	8600	0
bin	8800	0
bin	9000	0
bin	9200	0
bin	9400	0
bin	9600	4
bin	9800	54
bin	10000	67
bin	10200	44
bin	10400	67
bin	10600	58
bin	10800	52
bin	11000	62
bin	11200	48
bin	11400	47
bin	11600	50
bin	11800	58
bin	12000	28
bin	12200	0
bin	12400	0
bin	12600	0
bin	12800	0
bin	13000	0
bin	13200	0
bin	13400	0
bin	13600	0
bin	13800	0
bin	14000	0
bin	14200	0
bin	14400	0
bin	14600	0
bin	14800	0
bin	15000	0
bin	15200	0
scalar HostsWithHub.hostB.eth.queue.pauseQueue queueLength:last nan
attr autoWarmupFilter false
attr interpolationmode sample-hold
attr recordingmode last
attr source "warmup(atomic(constant0(packetPushEnded) + count(packetPushStarted) - count(packetPulled) - count(packetRemoved) - count(packetDropped)))"
attr title "queue length, last"
attr unit pk
scalar HostsWithHub.hostB.eth.queue.pauseQueue queueLength:max nan
attr autoWarmupFilter false
attr interpolationmode sample-hold
attr recordingmode max
attr source "warmup(atomic(constant0(packetPushEnded) + count(packetPushStarted) - count(packetPulled) - count(packetRemoved) - count(packetDropped)))"
attr title "queue length, max"
attr unit pk
scalar HostsWithHub.hostB.eth.queue.pauseQueue queueLength:timeavg -nan
attr autoWarmupFilter false
attr interpolationmode sample-hold
attr recordingmode timeavg
attr source "warmup(atomic(constant0(packetPushEnded) + count(packetPushStarted) - count(packetPulled) - count(packetRemoved) - count(packetDropped)))"
attr title "queue length, timeavg"
attr unit pk
scalar HostsWithHub.hostB.eth.queue.pauseQueue queueBitLength:last nan
attr autoWarmupFilter false
attr interpolationmode sample-hold
attr recordingmode last
attr source "warmup(atomic(constant0(packetPushEnded) + sum(packetLength(packetPushStarted)) - sum(packetLength(packetPulled)) - sum(packetLength(packetRemoved)) - sum(packetLength(packetDropped))))"
attr title "queue bit length, last"
attr unit b
scalar HostsWithHub.hostB.eth.queue.pauseQueue queueBitLength:max nan
attr autoWarmupFilter false
attr interpolationmode sample-hold
attr recordingmode max
attr source "warmup(atomic(constant0(packetPushEnded) + sum(packetLength(packetPushStarted)) - sum(packetLength(packetPulled)) - sum(packetLength(packetRemoved)) - sum(packetLength(packetDropped))))"
attr title "queue bit length, max"
attr unit b
scalar HostsWithHub.hostB.eth.queue.pauseQueue queueBitLength:timeavg -nan
attr autoWarmupFilter false
attr interpolationmode sample-hold
attr recordingmode timeavg
attr source "warmup(atomic(constant0(packetPushEnded) + sum(packetLength(packetPushStarted)) - sum(packetLength(packetPulled)) - sum(packetLength(packetRemoved)) - sum(packetLength(packetDropped))))"
attr title "queue bit length, timeavg"
attr unit b
statistic HostsWithHub.hostB.eth.queue.pauseQueue queueingTime:histogram
field count 0
field mean -nan
field stddev nan
field min nan
field max nan
field sum 0
field sqrsum 0
attr interpolationmode none
attr recordingmode histogram
attr source queueingTime(packetPulled)
attr title "queueing times"
attr unit s
bin	-inf	0
bin	0	0
bin	1	0
scalar HostsWithHub.hostB.eth.queue.pauseQueue outgoingPackets:count 0
attr recordingmode count
attr source packetPulled
attr title "outgoing packets, count"
attr unit pk
scalar HostsWithHub.hostB.eth.queue.pauseQueue outgoingPacketLengths:sum 0
attr interpolationmode none
attr recordingmode sum
attr source packetLength(packetPulled)
attr title "outgoing packet lengths, sum"
attr unit b
statistic HostsWithHub.hostB.eth.queue.pauseQueue outgoingPacketLengths:histogram
field count 0
field mean -nan
field stddev nan
field min nan
field max nan
field sum 0
field sqrsum 0
attr interpolationmode none
attr recordingmode histogram
attr source packetLength(packetPulled)
attr title "outgoing packet lengths"
attr unit b
bin	-inf	0
bin	0	0
bin	1	0
statistic HostsWithHub.hostB.eth.queue.pauseQueue flowQueueingTime:histogram
field count 0
field mean -nan
field stddev nan
field min nan
field max nan
field sum 0
field sqrsum 0
attr interpolationmode none
attr recordingmode histogram
attr source queueingTime(demuxFlow(packetPulled))
attr title "flow queueing times"
attr unit s
bin	-inf	0
bin	0	0
bin	1	0
scalar HostsWithHub.hostB.eth.queue.pauseQueue incomingPackets:count 0
attr recordingmode count
attr source packetPushStarted
attr title "incoming packets, count"
attr unit pk
scalar HostsWithHub.hostB.eth.queue.pauseQueue incomingPacketLengths:sum 0
attr interpolationmode none
attr recordingmode sum
attr source packetLength(packetPushStarted)
attr title "incoming packet lengths, sum"
attr unit b
statistic HostsWithHub.hostB.eth.queue.pauseQueue incomingPacketLengths:histogram
field count 0
field mean -nan
field stddev nan
field min nan
field max nan
field sum 0
field sqrsum 0
attr interpolationmode none
attr recordingmode histogram
attr source packetLength(packetPushStarted)
attr title "incoming packet lengths"
attr unit b
bin	-inf	0
bin	0	0
bin	1	0
scalar HostsWithHub.hostB.eth.queue.pauseQueue droppedPacketsQueueOverflow:count 0
attr interpolationmode none
attr recordingmode count
attr source packetDropReasonIsQueueOverflow(packetDropped)
attr title "dropped packets: queue overflow, count"
attr unit pk
scalar HostsWithHub.hostB.eth.queue.pauseQueue droppedPacketLengthsQueueOverflow:sum 0
attr interpolationmode none
attr recordingmode sum
attr source packetLength(packetDropReasonIsQueueOverflow(packetDropped))
attr title "dropped packet lengths: queue overflow, sum"
attr unit b
scalar HostsWithHub.hostB.eth.queue.dataQueue queueLength:last 6
attr autoWarmupFilter false
attr interpolationmode sample-hold
attr recordingmode last
attr source "warmup(atomic(constant0(packetPushEnded) + count(packetPushStarted) - count(packetPulled) - count(packetRemoved) - count(packetDropped)))"
attr title "queue length, last"
attr unit pk
scalar HostsWithHub.hostB.eth.queue.dataQueue queueLength:max 82
attr autoWarmupFilter false
attr interpolationmode sample-hold
attr recordingmode max
attr source "warmup(atomic(constant0(packetPushEnded) + count(packetPushStarted) - count(packetPulled) - count(packetRemoved) - count(packetDropped)))"
attr title "queue length, max"
attr unit pk
scalar HostsWithHub.hostB.eth.queue.dataQueue queueLength:timeavg 6.7996533526012
attr autoWarmupFilter false
attr interpolationmode sample-hold
attr recordingmode timeavg
attr source "warmup(atomic(constant0(packetPushEnded) + count(packetPushStarted) - count(packetPulled) - count(packetRemoved) - count(packetDropped)))"
attr title "queue length, timeavg"
attr unit pk
scalar HostsWithHub.hostB.eth.queue.dataQueue queueBitLength:last 24240
attr autoWarmupFilter false
attr interpolationmode sample-hold
attr recordingmode last
attr source "warmup(atomic(constant0(packetPushEnded) + sum(packetLength(packetPushStarted)) - sum(packetLength(packetPulled)) - sum(packetLength(packetRemoved)) - sum(packetLength(packetDropped))))"
attr title "queue bit length, last"
attr unit b
scalar HostsWithHub.hostB.eth.queue.dataQueue queueBitLength:max 318272
attr autoWarmupFilter false
attr interpolationmode sample-hold
attr recordingmode max
attr source "warmup(atomic(constant0(packetPushEnded) + sum(packetLength(packetPushStarted)) - sum(packetLength(packetPulled)) - sum(packetLength(packetRemoved)) - sum(packetLength(packetDropped))))"
attr title "queue bit length, max"
attr unit b
scalar HostsWithHub.hostB.eth.queue.dataQueue queueBitLength:timeavg 34912.03198659
attr autoWarmupFilter false
attr interpolationmode sample-hold
attr recordingmode timeavg
attr source "warmup(atomic(constant0(packetPushEnded) + sum(packetLength(packetPushStarted)) - sum(packetLength(packetPulled)) - sum(packetLength(packetRemoved)) - sum(packetLength(packetDropped))))"
attr title "queue bit length, timeavg"
attr unit b
statistic HostsWithHub.hostB.eth.queue.dataQueue queueingTime:histogram
field count 1905
field mean 0.018477795748031
field stddev 0.029607184564779
field min 0
field max 0.1752316
field sum 35.2002009
field sqrsum 2.3194406819517
attr interpolationmode none
attr recordingmode histogram
attr source queueingTime(packetPulled)
attr title "queueing times"
attr unit s
bin	-inf	0
bin	0	645
bin	0.0024	264
bin	0.0048	178
bin	0.0072	96
bin	0.0096	61
bin	0.012	48
bin	0.0144	53
bin	0.0168	54
bin	0.0192	41
bin	0.0216	38
bin	0.024	22
bin	0.0264	23
bin	0.0288	23
bin	0.0312	11
bin	0.0336	15
bin	0.036	13
bin	0.0384	40
bin	0.0408	14
bin	0.0432	15
bin	0.0456	10
bin	0.048	10
bin	0.0504	6
bin	0.0528	6
bin	0.0552	4
bin	0.0576	16
bin	0.06	20
bin	0.0624	6
bin	0.0648	5
bin	0.0672	14
bin	0.0696	16
bin	0.072	9
bin	0.0744	10
bin	0.0768	8
bin	0.0792	10
bin	0.0816	10
bin	0.084	9
bin	0.0864	5
bin	0.0888	5
bin	0.0912	3
bin	0.0936	3
bin	0.096	3
bin	0.0984	5
bin	0.1008	0
bin	0.1032	0
bin	0.1056	0
bin	0.108	4
bin	0.1104	3
bin	0.1128	0
bin	0.1152	3
bin	0.1176	11
bin	0.12	0
bin	0.1224	0
bin	0.1248	4
bin	0.1272	0
bin	0.1296	3
bin	0.132	7
bin	0.1344	1
bin	0.1368	7
bin	0.1392	3
bin	0.1416	1
bin	0.144	0
bin	0.1464	1
bin	0.1488	3
bin	0.1512	0
bin	0.1536	0
bin	0.156	0
bin	0.1584	3
bin	0.1608	0
bin	0.1632	0
bin	0.1656	3
bin	0.168	0
bin	0.1704	0
bin	0.1728	0
bin	0.1752	1
bin	0.1776	0
scalar HostsWithHub.hostB.eth.queue.dataQueue outgoingPackets:count 1905
attr recordingmode count
attr source packetPulled
attr title "outgoing packets, count"
attr unit pk
scalar HostsWithHub.hostB.eth.queue.dataQueue outgoingPacketLengths:sum 9797240
attr interpolationmode none
attr recordingmode sum
attr source packetLength(packetPulled)
attr title "outgoing packet lengths, sum"
attr unit b
statistic HostsWithHub.hostB.eth.queue.dataQueue outgoingPacketLengths:histogram
field count 1905
field mean 5142.9081364829
field stddev 4369.3209999364
field min 328
field max 12136
field sum 9797240
field sqrsum 86735504576
attr interpolationmode none
attr recordingmode histogram
attr source packetLength(packetPulled)
attr title "outgoing packet lengths"
attr unit b
bin	-inf	0
bin	0	0
bin	200	126
bin	400	335
bin	600	200
bin	800	0
bin	1000	0
bin	1200	0
bin	1400	0
bin	1600	0
bin	1800	0
bin	2000	0
bin	2200	0
bin	2400	0
bin	2600	0
bin	2800	0
bin	3000	0
bin	3200	0
bin	3400	0
bin	3600	0
bin	3800	87
bin	4000	355
bin	4200	165
bin	4400	0
bin	4600	0
bin	4800	0
bin	5000	0
bin	5200	0
bin	5400	0
bin	5600	0
bin	5800	0
bin	6000	0
bin	6200	0
bin	6400	0
bin	6600	0
bin	6800	0
bin	7000	0
bin	7200	0
bin	7400	0
bin	7600	0
bin	7800	0
bin	8000	0
bin	8200	0
bin	8400	0
bin	8600	0
bin	8800	0
bin	9000	0
bin	9200	0
bin	9400	0
bin	9600	4
bin	9800	53
bin	10000	67
bin	10200	44
bin	10400	67
bin	10600	58
bin	10800	52
bin	11000	62
bin	11200	48
bin	11400	47
bin	11600	50
bin	11800	58
bin	12000	27
bin	12200	0
bin	12400	0
bin	12600	0
bin	12800	0
bin	13000	0
bin	13200	0
bin	13400	0
bin	13600	0
bin	13800	0
bin	14000	0
bin	14200	0
bin	14400	0
bin	14600	0
bin	14800	0
bin	15000	0
bin	15200	0
statistic HostsWithHub.hostB.eth.queue.dataQueue flowQueueingTime:histogram
field count 0
field mean -nan
field stddev nan
field min nan
field max nan
field sum 0
field sqrsum 0
attr interpolationmode none
attr recordingmode histogram
attr source queueingTime(demuxFlow(packetPulled))
attr title "flow queueing times"
attr unit s
bin	-inf	0
bin	0	0
bin	1	0
scalar HostsWithHub.hostB.eth.queue.dataQueue incomingPackets:count 1911
attr recordingmode count
attr source packetPushStarted
attr title "incoming packets, count"
attr unit pk
scalar HostsWithHub.hostB.eth.queue.dataQueue incomingPacketLengths:sum 9821480
attr interpolationmode none
attr recordingmode sum
attr source packetLength(packetPushStarted)
attr title "incoming packet lengths, sum"
attr unit b
statistic HostsWithHub.hostB.eth.queue.dataQueue incomingPacketLengths:histogram
field count 1911
field mean 5139.4453165882
field stddev 4371.6623066722
field min 328
field max 12136
field sum 9821480
field sqrsum 86979793216
attr interpolationmode none
attr recordingmode histogram
attr source packetLength(packetPushStarted)
attr title "incoming packet lengths"
attr unit b
bin	-inf	0
bin	0	0
bin	200	126
bin	400	337
bin	600	202
bin	800	0
bin	1000	0
bin	1200	0
bin	1400	0
bin	1600	0
bin	1800	0
bin	2000	0
bin	2200	0
bin	2400	0
bin	2600	0
bin	2800	0
bin	3000	0
bin	3200	0
bin	3400	0
bin	3600	0
bin	3800	87
bin	4000	355
bin	4200	165
bin	4400	0
bin	4600	0
bin	4800	0
bin	5000	0
bin	5200	0
bin	5400	0
bin	5600	0
bin	5800	0
bin	6000	0
bin	6200	0
bin	6400	0
bin	6600	0
bin	6800	0
bin	7000	0
bin	7200	0
bin	7400	0
bin	7600	0
bin	7800	0
bin	8000	0
bin	8200	0
bin	8400	0
bin	8600	0
bin	8800	0
bin	9000	0
bin	9200	0
bin	9400	0
bin	9600	4
bin	9800	54
bin	10000	67
bin	10200	44
bin	10400	67
bin	10600	58
bin	10800	52
bin	11000	62
bin	11200	48
bin	11400	47
bin	11600	50
bin	11800	58
bin	12000	28
bin	12200	0
bin	12400	0
bin	12600	0
bin	12800	0
bin	13000	0
bin	13200	0
bin	13400	0
bin	13600	0
bin	13800	0
bin	14000	0
bin	14200	0
bin	14400	0
bin	14600	0
bin	14800	0
bin	15000	0
bin	15200	0
scalar HostsWithHub.hostB.eth.queue.dataQueue droppedPacketsQueueOverflow:count 0
attr interpolationmode none
attr recordingmode count
attr source packetDropReasonIsQueueOverflow(packetDropped)
attr title "dropped packets: queue overflow, count"
attr unit pk
scalar HostsWithHub.hostB.eth.queue.dataQueue droppedPacketLengthsQueueOverflow:sum 0
attr interpolationmode none
attr recordingmode sum
attr source packetLength(packetDropReasonIsQueueOverflow(packetDropped))
attr title "dropped packet lengths: queue overflow, sum"
attr unit b
scalar HostsWithHub.hostB.eth.queue.scheduler packets:count 1905
attr recordingmode count
attr source packetPulled
attr title "packets, count"
attr unit pk
scalar HostsWithHub.hostB.eth.queue.scheduler packetLengths:sum 9797240
attr interpolationmode none
attr recordingmode sum
attr source packetLength(packetPulled)
attr title "packet lengths, sum"
attr unit b
statistic HostsWithHub.hostB.eth.queue.scheduler packetLengths:histogram
field count 1905
field mean 5142.9081364829
field stddev 4369.3209999364
field min 328
field max 12136
field sum 9797240
field sqrsum 86735504576
attr interpolationmode none
attr recordingmode histogram
attr source packetLength(packetPulled)
attr title "packet lengths"
attr unit b
bin	-inf	0
bin	0	0
bin	200	126
bin	400	335
bin	600	200
bin	800	0
bin	1000	0
bin	1200	0
bin	1400	0
bin	1600	0
bin	1800	0
bin	2000	0
bin	2200	0
bin	2400	0
bin	2600	0
bin	2800	0
bin	3000	0
bin	3200	0
bin	3400	0
bin	3600	0
bin	3800	87
bin	4000	355
bin	4200	165
bin	4400	0
bin	4600	0
bin	4800	0
bin	5000	0
bin	5200	0
bin	5400	0
bin	5600	0
bin	5800	0
bin	6000	0
bin	6200	0
bin	6400	0
bin	6600	0
bin	6800	0
bin	7000	0
bin	7200	0
bin	7400	0
bin	7600	0
bin	7800	0
bin	8000	0
bin	8200	0
bin	8400	0
bin	8600	0
bin	8800	0
bin	9000	0
bin	9200	0
bin	9400	0
bin	9600	4
bin	9800	53
bin	10000	67
bin	10200	44
bin	10400	67
bin	10600	58
bin	10800	52
bin	11000	62
bin	11200	48
bin	11400	47
bin	11600	50
bin	11800	58
bin	12000	27
bin	12200	0
bin	12400	0
bin	12600	0
bin	12800	0
bin	13000	0
bin	13200	0
bin	13400	0
bin	13600	0
bin	13800	0
bin	14000	0
bin	14200	0
bin	14400	0
bin	14600	0
bin	14800	0
bin	15000	0
bin	15200	0
scalar HostsWithHub.hostB.eth.queue queueLength:last nan
attr autoWarmupFilter false
attr interpolationmode sample-hold
attr recordingmode last
attr source "warmup(atomic(constant0(localSignal(packetPushEnded)) + count(localSignal(packetPushStarted)) - count(localSignal(packetPulled)) - count(localSignal(packetRemoved)) - count(localSignal(packetDropped))))"
attr title "queue length, last"
attr unit pk
scalar HostsWithHub.hostB.eth.queue queueLength:max nan
attr autoWarmupFilter false
attr interpolationmode sample-hold
attr recordingmode max
attr source "warmup(atomic(constant0(localSignal(packetPushEnded)) + count(localSignal(packetPushStarted)) - count(localSignal(packetPulled)) - count(localSignal(packetRemoved)) - count(localSignal(packetDropped))))"
attr title "queue length, max"
attr unit pk
scalar HostsWithHub.hostB.eth.queue queueLength:timeavg -nan
attr autoWarmupFilter false
attr interpolationmode sample-hold
attr recordingmode timeavg
attr source "warmup(atomic(constant0(localSignal(packetPushEnded)) + count(localSignal(packetPushStarted)) - count(localSignal(packetPulled)) - count(localSignal(packetRemoved)) - count(localSignal(packetDropped))))"
attr title "queue length, timeavg"
attr unit pk
scalar HostsWithHub.hostB.eth.queue queueBitLength:last nan
attr autoWarmupFilter false
attr interpolationmode sample-hold
attr recordingmode last
attr source "warmup(atomic(constant0(localSignal(packetPushEnded)) + sum(packetLength(localSignal(packetPushStarted))) - sum(packetLength(localSignal(packetPulled))) - sum(packetLength(localSignal(packetRemoved))) - sum(packetLength(localSignal(packetDropped)))))"
attr title "queue bit length, last"
attr unit b
scalar HostsWithHub.hostB.eth.queue queueBitLength:max nan
attr autoWarmupFilter false
attr interpolationmode sample-hold
attr recordingmode max
attr source "warmup(atomic(constant0(localSignal(packetPushEnded)) + sum(packetLength(localSignal(packetPushStarted))) - sum(packetLength(localSignal(packetPulled))) - sum(packetLength(localSignal(packetRemoved))) - sum(packetLength(localSignal(packetDropped)))))"
attr title "queue bit length, max"
attr unit b
scalar HostsWithHub.hostB.eth.queue queueBitLength:timeavg -nan
attr autoWarmupFilter false
attr interpolationmode sample-hold
attr recordingmode timeavg
attr source "warmup(atomic(constant0(localSignal(packetPushEnded)) + sum(packetLength(localSignal(packetPushStarted))) - sum(packetLength(localSignal(packetPulled))) - sum(packetLength(localSignal(packetRemoved))) - sum(packetLength(localSignal(packetDropped)))))"
attr title "queue bit length, timeavg"
attr unit b
statistic HostsWithHub.hostB.eth.queue queueingTime:histogram
field count 1905
field mean 0
field stddev 0
field min 0
field max 0
field sum 0
field sqrsum 0
attr interpolationmode none
attr recordingmode histogram
attr source queueingTime(localSignal(packetPulled))
attr title "queueing times"
attr unit s
bin	-inf	0
bin	-0.5	0
bin	-0.48	0
bin	-0.46	0
bin	-0.44	0
bin	-0.42	0
bin	-0.4	0
bin	-0.38	0
bin	-0.36	0
bin	-0.34	0
bin	-0.32	0
bin	-0.3	0
bin	-0.28	0
bin	-0.26	0
bin	-0.24	0
bin	-0.22	0
bin	-0.2	0
bin	-0.18	0
bin	-0.16	0
bin	-0.14	0
bin	-0.12	0
bin	-0.1	0
bin	-0.08	0
bin	-0.06	0
bin	-0.04	0
bin	-0.02	0
bin	0	1905
bin	0.02	0
bin	0.04	0
bin	0.06	0
bin	0.08	0
bin	0.1	0
bin	0.12	0
bin	0.14	0
bin	0.16	0
bin	0.18	0
bin	0.2	0
bin	0.22	0
bin	0.24	0
bin	0.26	0
bin	0.28	0
bin	0.3	0
bin	0.32	0
bin	0.34	0
bin	0.36	0
bin	0.38	0
bin	0.4	0
bin	0.42	0
bin	0.44	0
bin	0.46	0
bin	0.48	0
bin	0.5	0
scalar HostsWithHub.hostB.eth.queue outgoingPackets:count 1905
attr recordingmode count
attr source localSignal(packetPulled)
attr title "outgoing packets, count"
attr unit pk
scalar HostsWithHub.hostB.eth.queue outgoingPacketLengths:sum 9797240
attr interpolationmode none
attr recordingmode sum
attr source packetLength(localSignal(packetPulled))
attr title "outgoing packet lengths, sum"
attr unit b
statistic HostsWithHub.hostB.eth.queue outgoingPacketLengths:histogram
field count 1905
field mean 5142.9081364829
field stddev 4369.3209999364
field min 328
field max 12136
field sum 9797240
field sqrsum 86735504576
attr interpolationmode none
attr recordingmode histogram
attr source packetLength(localSignal(packetPulled))
attr title "outgoing packet lengths"
attr unit b
bin	-inf	0
bin	0	0
bin	200	126
bin	400	335
bin	600	200
bin	800	0
bin	1000	0
bin	1200	0
bin	1400	0
bin	1600	0
bin	1800	0
bin	2000	0
bin	2200	0
bin	2400	0
bin	2600	0
bin	2800	0
bin	3000	0
bin	3200	0
bin	3400	0
bin	3600	0
bin	3800	87
bin	4000	355
bin	4200	165
bin	4400	0
bin	4600	0
bin	4800	0
bin	5000	0
bin	5200	0
bin	5400	0
bin	5600	0
bin	5800	0
bin	6000	0
bin	6200	0
bin	6400	0
bin	6600	0
bin	6800	0
bin	7000	0
bin	7200	0
bin	7400	0
bin	7600	0
bin	7800	0
bin	8000	0
bin	8200	0
bin	8400	0
bin	8600	0
bin	8800	0
bin	9000	0
bin	9200	0
bin	9400	0
bin	9600	4
bin	9800	53
bin	10000	67
bin	10200	44
bin	10400	67
bin	10600	58
bin	10800	52
bin	11000	62
bin	11200	48
bin	11400	47
bin	11600	50
bin	11800	58
bin	12000	27
bin	12200	0
bin	12400	0
bin	12600	0
bin	12800	0
bin	13000	0
bin	13200	0
bin	13400	0
bin	13600	0
bin	13800	0
bin	14000	0
bin	14200	0
bin	14400	0
bin	14600	0
bin	14800	0
bin	15000	0
bin	15200	0
statistic HostsWithHub.hostB.eth.queue flowQueueingTime:histogram
field count 0
field mean -nan
field stddev nan
field min nan
field max nan
field sum 0
field sqrsum 0
attr interpolationmode none
attr recordingmode histogram
attr source queueingTime(demuxFlow(localSignal(packetPulled)))
attr title "flow queueing times"
attr unit s
bin	-inf	0
bin	0	0
bin	1	0
scalar HostsWithHub.hostB.eth.queue incomingPackets:count 0
attr recordingmode count
attr source localSignal(packetPushStarted)
attr title "incoming packets, count"
attr unit pk
scalar HostsWithHub.hostB.eth.queue incomingPacketLengths:sum 0
attr interpolationmode none
attr recordingmode sum
attr source packetLength(localSignal(packetPushStarted))
attr title "incoming packet lengths, sum"
attr unit b
statistic HostsWithHub.hostB.eth.queue incomingPacketLengths:histogram
field count 0
field mean -nan
field stddev nan
field min nan
field max nan
field sum 0
field sqrsum 0
attr interpolationmode none
attr recordingmode histogram
attr source packetLength(localSignal(packetPushStarted))
attr title "incoming packet lengths"
attr unit b
bin	-inf	0
bin	0	0
bin	1	0
scalar HostsWithHub.hostB.eth.queue droppedPacketsQueueOverflow:count 0
attr interpolationmode none
attr recordingmode count
attr source packetDropReasonIsQueueOverflow(localSignal(packetDropped))
attr title "dropped packets: queue overflow, count"
attr unit pk
scalar HostsWithHub.hostB.eth.queue droppedPacketLengthsQueueOverflow:sum 0
attr interpolationmode none
attr recordingmode sum
attr source packetLength(packetDropReasonIsQueueOverflow(localSignal(packetDropped)))
attr title "dropped packet lengths: queue overflow, sum"
attr unit b
scalar HostsWithHub.hostB.eth.mac "simulated time" 5.2
scalar HostsWithHub.hostB.eth.mac full-duplex 0
scalar HostsWithHub.hostB.eth.mac "frames/sec sent" 344.03846153846
scalar HostsWithHub.hostB.eth.mac "frames/sec rcvd" 364.42307692308
scalar HostsWithHub.hostB.eth.mac "bits/sec sent" 1770306.1538462
scalar HostsWithHub.hostB.eth.mac "bits/sec rcvd" 1956516.9230769
scalar HostsWithHub.hostB.eth.mac "rx channel idle (%)" 39.587486538462
scalar HostsWithHub.hostB.eth.mac "rx channel utilization (%)" 60.270507692308
scalar HostsWithHub.hostB.eth.mac "rx channel collision (%)" 0.14200576923077
scalar HostsWithHub.hostB.eth.mac collisions 2129
scalar HostsWithHub.hostB.eth.mac backoffs 1533
scalar HostsWithHub.hostB.eth.mac backoffSlotsGenerated:count 1533
attr interpolationmode none
attr recordingmode count
attr title "backoff, count"
scalar HostsWithHub.hostB.eth.mac collision:count 2129
attr interpolationmode none
attr recordingmode count
attr title "collision, count"
scalar HostsWithHub.hostB.eth.mac rxPausePkUnits:count 0
attr interpolationmode none
attr recordingmode count
attr title "pause units received, count"
scalar HostsWithHub.hostB.eth.mac rxPausePkUnits:sum 0
attr interpolationmode none
attr recordingmode sum
attr title "pause units received, sum"
scalar HostsWithHub.hostB.eth.mac txPausePkUnits:count 0
attr interpolationmode none
attr recordingmode count
attr title "pause units sent, count"
scalar HostsWithHub.hostB.eth.mac txPausePkUnits:sum 0
attr interpolationmode none
attr recordingmode sum
attr title "pause units sent, sum"
scalar HostsWithHub.hostB.eth.mac rxPkOk:count 1895
attr interpolationmode none
attr recordingmode count
attr source rxPkOk
attr title "packets received OK, count"
scalar HostsWithHub.hostB.eth.mac rxPkOk:sum(packetBytes) 1271736
attr interpolationmode none
attr recordingmode sum(packetBytes)
attr source rxPkOk
attr title "packets received OK, sum(packetBytes)"
scalar HostsWithHub.hostB.eth.mac txPk:count 1789
attr interpolationmode none
attr recordingmode count
attr source packetSentToLower
attr title "packets transmitted, count"
scalar HostsWithHub.hostB.eth.mac txPk:sum(packetBytes) 1150699
attr interpolationmode none
attr recordingmode sum(packetBytes)
attr source packetSentToLower
attr title "packets transmitted, sum(packetBytes)"
scalar HostsWithHub.hostB.eth.mac packetReceivedFromUpper:count 1905
attr interpolationmode none
attr recordingmode count
attr source packetReceivedFromUpper
attr title "packet bytes from higher layer, count"
scalar HostsWithHub.hostB.eth.mac packetReceivedFromUpper:sum(packetBytes) 1224655
attr interpolationmode none
attr recordingmode sum(packetBytes)
attr source packetReceivedFromUpper
attr title "packet bytes from higher layer, sum(packetBytes)"
scalar HostsWithHub.hostB.eth.mac passedUpPk:count 1895
attr interpolationmode none
attr recordingmode count
attr source packetSentToUpper
attr title "packets passed to higher layer, count"
scalar HostsWithHub.hostB.eth.mac passedUpPk:sum(packetBytes) 1271736
attr interpolationmode none
attr recordingmode sum(packetBytes)
attr source packetSentToUpper
attr title "packets passed to higher layer, sum(packetBytes)"
scalar HostsWithHub.hostB.eth.mac packetDropIncorrectlyReceived:count 0
attr interpolationmode none
attr recordingmode count
attr source packetDropReasonIsIncorrectlyReceived(packetDropped)
attr title "packet drop: incorrectly received, count"
scalar HostsWithHub.hostB.eth.mac packetDropIncorrectlyReceived:sum(packetBytes) 0
attr interpolationmode none
attr recordingmode sum(packetBytes)
attr source packetDropReasonIsIncorrectlyReceived(packetDropped)
attr title "packet drop: incorrectly received, sum(packetBytes)"
scalar HostsWithHub.hostB.eth.mac packetDropInterfaceDown:count 115
attr interpolationmode none
attr recordingmode count
attr source packetDropReasonIsInterfaceDown(packetDropped)
attr title "packet drop: interface down, count"
scalar HostsWithHub.hostB.eth.mac packetDropInterfaceDown:sum(packetBytes) 77517
attr interpolationmode none
attr recordingmode sum(packetBytes)
attr source packetDropReasonIsInterfaceDown(packetDropped)
attr title "packet drop: interface down, sum(packetBytes)"
scalar HostsWithHub.hostB.eth.mac packetDropNotAddressedToUs:count 2196
attr interpolationmode none
attr recordingmode count
attr source packetDropReasonIsNotAddressedToUs(packetDropped)
attr title "packet drop: not addressed to us, count"
scalar HostsWithHub.hostB.eth.mac packetDropNotAddressedToUs:sum(packetBytes) 1448108
attr interpolationmode none
attr recordingmode sum(packetBytes)
attr source packetDropReasonIsNotAddressedToUs(packetDropped)
attr title "packet drop: not addressed to us, sum(packetBytes)"
scalar HostsWithHub.hostB.eth packetDropInterfaceDown:count 115
attr interpolationmode none
attr recordingmode count
attr source packetDropReasonIsInterfaceDown(packetDropped)
attr title "packet drops: interface down, count"
scalar HostsWithHub.hostB.eth packetDropInterfaceDown:sum(packetBytes) 77517
attr interpolationmode none
attr recordingmode sum(packetBytes)
attr source packetDropReasonIsInterfaceDown(packetDropped)
attr title "packet drops: interface down, sum(packetBytes)"
scalar HostsWithHub.hostB.eth packetDropNoCarrier:count 0
attr interpolationmode none
attr recordingmode count
attr source packetDropReasonIsNoCarrier(packetDropped)
attr title "packet drops: no carrier, count"
scalar HostsWithHub.hostB.eth packetDropNoCarrier:sum(packetBytes) 0
attr interpolationmode none
attr recordingmode sum(packetBytes)
attr source packetDropReasonIsNoCarrier(packetDropped)
attr title "packet drops: no carrier, sum(packetBytes)"
scalar HostsWithHub.hostC.app packetReceived:count 1706
attr interpolationmode none
attr recordingmode count
attr source packetReceived
attr title "packets received, count"
scalar HostsWithHub.hostC.app packetReceived:sum(packetBytes) 1061439
attr interpolationmode none
attr recordingmode sum(packetBytes)
attr source packetReceived
attr title "packets received, sum(packetBytes)"
statistic HostsWithHub.hostC.app endToEndDelay:histogram
field count 1706
field mean 0.020740150293083
field stddev 0.031009218730299
field min 5.77e-05
field max 0.1852221
field sum 35.3826964
field sqrsum 2.3733220979899
attr interpolationmode none
attr recordingmode histogram
attr source dataAge(packetReceived)
attr title "end-to-end delay"
attr unit s
bin	-inf	0
bin	0	586
bin	0.004	328
bin	0.008	147
bin	0.012	81
bin	0.016	90
bin	0.02	61
bin	0.024	48
bin	0.028	35
bin	0.032	23
bin	0.036	24
bin	0.04	22
bin	0.044	22
bin	0.048	16
bin	0.052	9
bin	0.056	17
bin	0.06	17
bin	0.064	14
bin	0.068	19
bin	0.072	18
bin	0.076	11
bin	0.08	19
bin	0.084	15
bin	0.088	9
bin	0.092	5
bin	0.096	8
bin	0.1	1
bin	0.104	0
bin	0.108	4
bin	0.112	2
bin	0.116	15
bin	0.12	1
bin	0.124	4
bin	0.128	2
bin	0.132	8
bin	0.136	8
bin	0.14	4
bin	0.144	2
bin	0.148	3
bin	0.152	0
bin	0.156	3
bin	0.16	0
bin	0.164	2
bin	0.168	1
bin	0.172	0
bin	0.176	1
bin	0.18	0
bin	0.184	1
bin	0.188	0
scalar HostsWithHub.hostC.app packetSent:count 2357
attr interpolationmode none
attr recordingmode count
attr source packetSent
attr title "packets sent, count"
scalar HostsWithHub.hostC.app packetSent:sum(packetBytes) 1498709
attr interpolationmode none
attr recordingmode sum(packetBytes)
attr source packetSent
attr title "packets sent, sum(packetBytes)"
scalar HostsWithHub.hostC.ethernet pauseSent:count 0
attr recordingmode count
attr title "pause sent, count"
scalar HostsWithHub.hostC.ethernet pauseSent:sum 0
attr recordingmode sum
attr title "pause sent, sum"
scalar HostsWithHub.hostC.ethernet decapPk:count 1706
attr interpolationmode none
attr recordingmode count
attr source decapPk
attr title "packets decapsulated, count"
scalar HostsWithHub.hostC.ethernet decapPk:sum(packetBytes) 1066557
attr interpolationmode none
attr recordingmode sum(packetBytes)
attr source decapPk
attr title "packets decapsulated, sum(packetBytes)"
scalar HostsWithHub.hostC.ethernet encapPk:count 2357
attr interpolationmode none
attr recordingmode count
attr source encapPk
attr title "packets encapsulated, count"
scalar HostsWithHub.hostC.ethernet encapPk:sum(packetBytes) 1505780
attr interpolationmode none
attr recordingmode sum(packetBytes)
attr source encapPk
attr title "packets encapsulated, sum(packetBytes)"
scalar HostsWithHub.hostC.eth.queue.classifier packets:count 2357
attr recordingmode count
attr source packetPushed
attr title "packets, count"
attr unit pk
scalar HostsWithHub.hostC.eth.queue.classifier packetLengths:sum 12385648
attr interpolationmode none
attr recordingmode sum
attr source packetLength(packetPushed)
attr title "packet lengths, sum"
attr unit b
statistic HostsWithHub.hostC.eth.queue.classifier packetLengths:histogram
field count 2357
field mean 5254.8358082308
field stddev 4335.2293750233
field min 328
field max 12128
field sum 12385648
field sqrsum 109363714176
attr interpolationmode none
attr recordingmode histogram
attr source packetLength(packetPushed)
attr title "packet lengths"
attr unit b
bin	-inf	0
bin	0	0
bin	200	152
bin	400	359
bin	600	258
bin	800	0
bin	1000	0
bin	1200	0
bin	1400	0
bin	1600	0
bin	1800	0
bin	2000	0
bin	2200	0
bin	2400	0
bin	2600	0
bin	2800	0
bin	3000	0
bin	3200	0
bin	3400	0
bin	3600	0
bin	3800	92
bin	4000	497
bin	4200	197
bin	4400	0
bin	4600	0
bin	4800	0
bin	5000	0
bin	5200	0
bin	5400	0
bin	5600	0
bin	5800	0
bin	6000	0
bin	6200	0
bin	6400	0
bin	6600	0
bin	6800	0
bin	7000	0
bin	7200	0
bin	7400	0
bin	7600	0
bin	7800	0
bin	8000	0
bin	8200	0
bin	8400	0
bin	8600	0
bin	8800	0
bin	9000	0
bin	9200	0
bin	9400	0
bin	9600	14
bin	9800	70
bin	10000	68
bin	10200	75
bin	10400	64
bin	10600	82
bin	10800	69
bin	11000	70
bin	11200	59
bin	11400	64
bin	11600	61
bin	11800	59
bin	12000	47
bin	12200	0
bin	12400	0
bin	12600	0
bin	12800	0
bin	13000	0
bin	13200	0
bin	13400	0
bin	13600	0
bin	13800	0
bin	14000	0
bin	14200	0
bin	14400	0
bin	14600	0
bin	14800	0
bin	15000	0
scalar HostsWithHub.hostC.eth.queue.pauseQueue queueLength:last nan
attr autoWarmupFilter false
attr interpolationmode sample-hold
attr recordingmode last
attr source "warmup(atomic(constant0(packetPushEnded) + count(packetPushStarted) - count(packetPulled) - count(packetRemoved) - count(packetDropped)))"
attr title "queue length, last"
attr unit pk
scalar HostsWithHub.hostC.eth.queue.pauseQueue queueLength:max nan
attr autoWarmupFilter false
attr interpolationmode sample-hold
attr recordingmode max
attr source "warmup(atomic(constant0(packetPushEnded) + count(packetPushStarted) - count(packetPulled) - count(packetRemoved) - count(packetDropped)))"
attr title "queue length, max"
attr unit pk
scalar HostsWithHub.hostC.eth.queue.pauseQueue queueLength:timeavg -nan
attr autoWarmupFilter false
attr interpolationmode sample-hold
attr recordingmode timeavg
attr source "warmup(atomic(constant0(packetPushEnded) + count(packetPushStarted) - count(packetPulled) - count(packetRemoved) - count(packetDropped)))"
attr title "queue length, timeavg"
attr unit pk
scalar HostsWithHub.hostC.eth.queue.pauseQueue queueBitLength:last nan
attr autoWarmupFilter false
attr interpolationmode sample-hold
attr recordingmode last
attr source "warmup(atomic(constant0(packetPushEnded) + sum(packetLength(packetPushStarted)) - sum(packetLength(packetPulled)) - sum(packetLength(packetRemoved)) - sum(packetLength(packetDropped))))"
attr title "queue bit length, last"
attr unit b
scalar HostsWithHub.hostC.eth.queue.pauseQueue queueBitLength:max nan
attr autoWarmupFilter false
attr interpolationmode sample-hold
attr recordingmode max
attr source "warmup(atomic(constant0(packetPushEnded) + sum(packetLength(packetPushStarted)) - sum(packetLength(packetPulled)) - sum(packetLength(packetRemoved)) - sum(packetLength(packetDropped))))"
attr title "queue bit length, max"
attr unit b
scalar HostsWithHub.hostC.eth.queue.pauseQueue queueBitLength:timeavg -nan
attr autoWarmupFilter false
attr interpolationmode sample-hold
attr recordingmode timeavg
attr source "warmup(atomic(constant0(packetPushEnded) + sum(packetLength(packetPushStarted)) - sum(packetLength(packetPulled)) - sum(packetLength(packetRemoved)) - sum(packetLength(packetDropped))))"
attr title "queue bit length, timeavg"
attr unit b
statistic HostsWithHub.hostC.eth.queue.pauseQueue queueingTime:histogram
field count 0
field mean -nan
field stddev nan
field min nan
field max nan
field sum 0
field sqrsum 0
attr interpolationmode none
attr recordingmode histogram
attr source queueingTime(packetPulled)
attr title "queueing times"
attr unit s
bin	-inf	0
bin	0	0
bin	1	0
scalar HostsWithHub.hostC.eth.queue.pauseQueue outgoingPackets:count 0
attr recordingmode count
attr source packetPulled
attr title "outgoing packets, count"
attr unit pk
scalar HostsWithHub.hostC.eth.queue.pauseQueue outgoingPacketLengths:sum 0
attr interpolationmode none
attr recordingmode sum
attr source packetLength(packetPulled)
attr title "outgoing packet lengths, sum"
attr unit b
statistic HostsWithHub.hostC.eth.queue.pauseQueue outgoingPacketLengths:histogram
field count 0
field mean -nan
field stddev nan
field min nan
field max nan
field sum 0
field sqrsum 0
attr interpolationmode none
attr recordingmode histogram
attr source packetLength(packetPulled)
attr title "outgoing packet lengths"
attr unit b
bin	-inf	0
bin	0	0
bin	1	0
statistic HostsWithHub.hostC.eth.queue.pauseQueue flowQueueingTime:histogram
field count 0
field mean -nan
field stddev nan
field min nan
field max nan
field sum 0
field sqrsum 0
attr interpolationmode none
attr recordingmode histogram
attr source queueingTime(demuxFlow(packetPulled))
attr title "flow queueing times"
attr unit s
bin	-inf	0
bin	0	0
bin	1	0
scalar HostsWithHub.hostC.eth.queue.pauseQueue incomingPackets:count 0
attr recordingmode count
attr source packetPushStarted
attr title "incoming packets, count"
attr unit pk
scalar HostsWithHub.hostC.eth.queue.pauseQueue incomingPacketLengths:sum 0
attr interpolationmode none
attr recordingmode sum
attr source packetLength(packetPushStarted)
attr title "incoming packet lengths, sum"
attr unit b
statistic HostsWithHub.hostC.eth.queue.pauseQueue incomingPacketLengths:histogram
field count 0
field mean -nan
field stddev nan
field min nan
field max nan
field sum 0
field sqrsum 0
attr interpolationmode none
attr recordingmode histogram
attr source packetLength(packetPushStarted)
attr title "incoming packet lengths"
attr unit b
bin	-inf	0
bin	0	0
bin	1	0
scalar HostsWithHub.hostC.eth.queue.pauseQueue droppedPacketsQueueOverflow:count 0
attr interpolationmode none
attr recordingmode count
attr source packetDropReasonIsQueueOverflow(packetDropped)
attr title "dropped packets: queue overflow, count"
attr unit pk
scalar HostsWithHub.hostC.eth.queue.pauseQueue droppedPacketLengthsQueueOverflow:sum 0
attr interpolationmode none
attr recordingmode sum
attr source packetLength(packetDropReasonIsQueueOverflow(packetDropped))
attr title "dropped packet lengths: queue overflow, sum"
attr unit b
scalar HostsWithHub.hostC.eth.queue.dataQueue queueLength:last 4
attr autoWarmupFilter false
attr interpolationmode sample-hold
attr recordingmode last
attr source "warmup(atomic(constant0(packetPushEnded) + count(packetPushStarted) - count(packetPulled) - count(packetRemoved) - count(packetDropped)))"
attr title "queue length, last"
attr unit pk
scalar HostsWithHub.hostC.eth.queue.dataQueue queueLength:max 70
attr autoWarmupFilter false
attr interpolationmode sample-hold
attr recordingmode max
attr source "warmup(atomic(constant0(packetPushEnded) + count(packetPushStarted) - count(packetPulled) - count(packetRemoved) - count(packetDropped)))"
attr title "queue length, max"
attr unit pk
scalar HostsWithHub.hostC.eth.queue.dataQueue queueLength:timeavg 5.9749229094412
attr autoWarmupFilter false
attr interpolationmode sample-hold
attr recordingmode timeavg
attr source "warmup(atomic(constant0(packetPushEnded) + count(packetPushStarted) - count(packetPulled) - count(packetRemoved) - count(packetDropped)))"
attr title "queue length, timeavg"
attr unit pk
scalar HostsWithHub.hostC.eth.queue.dataQueue queueBitLength:last 8896
attr autoWarmupFilter false
attr interpolationmode sample-hold
attr recordingmode last
attr source "warmup(atomic(constant0(packetPushEnded) + sum(packetLength(packetPushStarted)) - sum(packetLength(packetPulled)) - sum(packetLength(packetRemoved)) - sum(packetLength(packetDropped))))"
attr title "queue bit length, last"
attr unit b
scalar HostsWithHub.hostC.eth.queue.dataQueue queueBitLength:max 418328
attr autoWarmupFilter false
attr interpolationmode sample-hold
attr recordingmode max
attr source "warmup(atomic(constant0(packetPushEnded) + sum(packetLength(packetPushStarted)) - sum(packetLength(packetPulled)) - sum(packetLength(packetRemoved)) - sum(packetLength(packetDropped))))"
attr title "queue bit length, max"
attr unit b
scalar HostsWithHub.hostC.eth.queue.dataQueue queueBitLength:timeavg 31935.437996763
attr autoWarmupFilter false
attr interpolationmode sample-hold
attr recordingmode timeavg
attr source "warmup(atomic(constant0(packetPushEnded) + sum(packetLength(packetPushStarted)) - sum(packetLength(packetPulled)) - sum(packetLength(packetRemoved)) - sum(packetLength(packetDropped))))"
attr title "queue bit length, timeavg"
attr unit b
statistic HostsWithHub.hostC.eth.queue.dataQueue queueingTime:histogram
field count 2353
field mean 0.013166107054824
field stddev 0.019575982568358
field min 0
field max 0.0929096
field sum 30.9798499
field sqrsum 1.309215328277
attr interpolationmode none
attr recordingmode histogram
attr source queueingTime(packetPulled)
attr title "queueing times"
attr unit s
bin	-inf	0
bin	0	602
bin	0.0015	293
bin	0.003	262
bin	0.0045	202
bin	0.006	135
bin	0.0075	98
bin	0.009	77
bin	0.0105	42
bin	0.012	42
bin	0.0135	40
bin	0.015	29
bin	0.0165	28
bin	0.018	21
bin	0.0195	22
bin	0.021	14
bin	0.0225	22
bin	0.024	12
bin	0.0255	17
bin	0.027	17
bin	0.0285	11
bin	0.03	16
bin	0.0315	5
bin	0.033	14
bin	0.0345	13
bin	0.036	4
bin	0.0375	7
bin	0.039	11
bin	0.0405	10
bin	0.042	12
bin	0.0435	19
bin	0.045	17
bin	0.0465	24
bin	0.048	30
bin	0.0495	15
bin	0.051	19
bin	0.0525	14
bin	0.054	8
bin	0.0555	4
bin	0.057	7
bin	0.0585	10
bin	0.06	8
bin	0.0615	3
bin	0.063	3
bin	0.0645	6
bin	0.066	7
bin	0.0675	9
bin	0.069	7
bin	0.0705	3
bin	0.072	0
bin	0.0735	1
bin	0.075	4
bin	0.0765	10
bin	0.078	10
bin	0.0795	5
bin	0.081	4
bin	0.0825	6
bin	0.084	9
bin	0.0855	4
bin	0.087	3
bin	0.0885	5
bin	0.09	0
bin	0.0915	1
bin	0.093	0
scalar HostsWithHub.hostC.eth.queue.dataQueue outgoingPackets:count 2353
attr recordingmode count
attr source packetPulled
attr title "outgoing packets, count"
attr unit pk
scalar HostsWithHub.hostC.eth.queue.dataQueue outgoingPacketLengths:sum 12376752
attr interpolationmode none
attr recordingmode sum
attr source packetLength(packetPulled)
attr title "outgoing packet lengths, sum"
attr unit b
statistic HostsWithHub.hostC.eth.queue.dataQueue outgoingPacketLengths:histogram
field count 2353
field mean 5259.9881002975
field stddev 4336.486273925
field min 328
field max 12128
field sum 12376752
field sqrsum 109331194496
attr interpolationmode none
attr recordingmode histogram
attr source packetLength(packetPulled)
attr title "outgoing packet lengths"
attr unit b
bin	-inf	0
bin	0	0
bin	200	152
bin	400	357
bin	600	258
bin	800	0
bin	1000	0
bin	1200	0
bin	1400	0
bin	1600	0
bin	1800	0
bin	2000	0
bin	2200	0
bin	2400	0
bin	2600	0
bin	2800	0
bin	3000	0
bin	3200	0
bin	3400	0
bin	3600	0
bin	3800	91
bin	4000	496
bin	4200	197
bin	4400	0
bin	4600	0
bin	4800	0
bin	5000	0
bin	5200	0
bin	5400	0
bin	5600	0
bin	5800	0
bin	6000	0
bin	6200	0
bin	6400	0
bin	6600	0
bin	6800	0
bin	7000	0
bin	7200	0
bin	7400	0
bin	7600	0
bin	7800	0
bin	8000	0
bin	8200	0
bin	8400	0
bin	8600	0
bin	8800	0
bin	9000	0
bin	9200	0
bin	9400	0
bin	9600	14
bin	9800	70
bin	10000	68
bin	10200	75
bin	10400	64
bin	10600	82
bin	10800	69
bin	11000	70
bin	11200	59
bin	11400	64
bin	11600	61
bin	11800	59
bin	12000	47
bin	12200	0
bin	12400	0
bin	12600	0
bin	12800	0
bin	13000	0
bin	13200	0
bin	13400	0
bin	13600	0
bin	13800	0
bin	14000	0
bin	14200	0
bin	14400	0
bin	14600	0
bin	14800	0
bin	15000	0
statistic HostsWithHub.hostC.eth.queue.dataQueue flowQueueingTime:histogram
field count 0
field mean -nan
field stddev nan
field min nan
field max nan
field sum 0
field sqrsum 0
attr interpolationmode none
attr recordingmode histogram
attr source queueingTime(demuxFlow(packetPulled))
attr title "flow queueing times"
attr unit s
bin	-inf	0
bin	0	0
bin	1	0
scalar HostsWithHub.hostC.eth.queue.dataQueue incomingPackets:count 2357
attr recordingmode count
attr source packetPushStarted
attr title "incoming packets, count"
attr unit pk
scalar HostsWithHub.hostC.eth.queue.dataQueue incomingPacketLengths:sum 12385648
attr interpolationmode none
attr recordingmode sum
attr source packetLength(packetPushStarted)
attr title "incoming packet lengths, sum"
attr unit b
statistic HostsWithHub.hostC.eth.queue.dataQueue incomingPacketLengths:histogram
field count 2357
field mean 5254.8358082308
field stddev 4335.2293750233
field min 328
field max 12128
field sum 12385648
field sqrsum 109363714176
attr interpolationmode none
attr recordingmode histogram
attr source packetLength(packetPushStarted)
attr title "incoming packet lengths"
attr unit b
bin	-inf	0
bin	0	0
bin	200	152
bin	400	359
bin	600	258
bin	800	0
bin	1000	0
bin	1200	0
bin	1400	0
bin	1600	0
bin	1800	0
bin	2000	0
bin	2200	0
bin	2400	0
bin	2600	0
bin	2800	0
bin	3000	0
bin	3200	0
bin	3400	0
bin	3600	0
bin	3800	92
bin	4000	497
bin	4200	197
bin	4400	0
bin	4600	0
bin	4800	0
bin	5000	0
bin	5200	0
bin	5400	0
bin	5600	0
bin	5800	0
bin	6000	0
bin	6200	0
bin	6400	0
bin	6600	0
bin	6800	0
bin	7000	0
bin	7200	0
bin	7400	0
bin	7600	0
bin	7800	0
bin	8000	0
bin	8200	0
bin	8400	0
bin	8600	0
bin	8800	0
bin	9000	0
bin	9200	0
bin	9400	0
bin	9600	14
bin	9800	70
bin	10000	68
bin	10200	75
bin	10400	64
bin	10600	82
bin	10800	69
bin	11000	70
bin	11200	59
bin	11400	64
bin	11600	61
bin	11800	59
bin	12000	47
bin	12200	0
bin	12400	0
bin	12600	0
bin	12800	0
bin	13000	0
bin	13200	0
bin	13400	0
bin	13600	0
bin	13800	0
bin	14000	0
bin	14200	0
bin	14400	0
bin	14600	0
bin	14800	0
bin	15000	0
scalar HostsWithHub.hostC.eth.queue.dataQueue droppedPacketsQueueOverflow:count 0
attr interpolationmode none
attr recordingmode count
attr source packetDropReasonIsQueueOverflow(packetDropped)
attr title "dropped packets: queue overflow, count"
attr unit pk
scalar HostsWithHub.hostC.eth.queue.dataQueue droppedPacketLengthsQueueOverflow:sum 0
attr interpolationmode none
attr recordingmode sum
attr source packetLength(packetDropReasonIsQueueOverflow(packetDropped))
attr title "dropped packet lengths: queue overflow, sum"
attr unit b
scalar HostsWithHub.hostC.eth.queue.scheduler packets:count 2353
attr recordingmode count
attr source packetPulled
attr title "packets, count"
attr unit pk
scalar HostsWithHub.hostC.eth.queue.scheduler packetLengths:sum 12376752
attr interpolationmode none
attr recordingmode sum
attr source packetLength(packetPulled)
attr title "packet lengths, sum"
attr unit b
statistic HostsWithHub.hostC.eth.queue.scheduler packetLengths:histogram
field count 2353
field mean 5259.9881002975
field stddev 4336.486273925
field min 328
field max 12128
field sum 12376752
field sqrsum 109331194496
attr interpolationmode none
attr recordingmode histogram
attr source packetLength(packetPulled)
attr title "packet lengths"
attr unit b
bin	-inf	0
bin	0	0
bin	200	152
bin	400	357
bin	600	258
bin	800	0
bin	1000	0
bin	1200	0
bin	1400	0
bin	1600	0
bin	1800	0
bin	2000	0
bin	2200	0
bin	2400	0
bin	2600	0
bin	2800	0
bin	3000	0
bin	3200	0
bin	3400	0
bin	3600	0
bin	3800	91
bin	4000	496
bin	4200	197
bin	4400	0
bin	4600	0
bin	4800	0
bin	5000	0
bin	5200	0
bin	5400	0
bin	5600	0
bin	5800	0
bin	6000	0
bin	6200	0
bin	6400	0
bin	6600	0
bin	6800	0
bin	7000	0
bin	7200	0
bin	7400	0
bin	7600	0
bin	7800	0
bin	8000	0
bin	8200	0
bin	8400	0
bin	8600	0
bin	8800	0
bin	9000	0
bin	9200	0
bin	9400	0
bin	9600	14
bin	9800	70
bin	10000	68
bin	10200	75
bin	10400	64
bin	10600	82
bin	10800	69
bin	11000	70
bin	11200	59
bin	11400	64
bin	11600	61
bin	11800	59
bin	12000	47
bin	12200	0
bin	12400	0
bin	12600	0
bin	12800	0
bin	13000	0
bin	13200	0
bin	13400	0
bin	13600	0
bin	13800	0
bin	14000	0
bin	14200	0
bin	14400	0
bin	14600	0
bin	14800	0
bin	15000	0
scalar HostsWithHub.hostC.eth.queue queueLength:last nan
attr autoWarmupFilter false
attr interpolationmode sample-hold
attr recordingmode last
attr source "warmup(atomic(constant0(localSignal(packetPushEnded)) + count(localSignal(packetPushStarted)) - count(localSignal(packetPulled)) - count(localSignal(packetRemoved)) - count(localSignal(packetDropped))))"
attr title "queue length, last"
attr unit pk
scalar HostsWithHub.hostC.eth.queue queueLength:max nan
attr autoWarmupFilter false
attr interpolationmode sample-hold
attr recordingmode max
attr source "warmup(atomic(constant0(localSignal(packetPushEnded)) + count(localSignal(packetPushStarted)) - count(localSignal(packetPulled)) - count(localSignal(packetRemoved)) - count(localSignal(packetDropped))))"
attr title "queue length, max"
attr unit pk
scalar HostsWithHub.hostC.eth.queue queueLength:timeavg -nan
attr autoWarmupFilter false
attr interpolationmode sample-hold
attr recordingmode timeavg
attr source "warmup(atomic(constant0(localSignal(packetPushEnded)) + count(localSignal(packetPushStarted)) - count(localSignal(packetPulled)) - count(localSignal(packetRemoved)) - count(localSignal(packetDropped))))"
attr title "queue length, timeavg"
attr unit pk
scalar HostsWithHub.hostC.eth.queue queueBitLength:last nan
attr autoWarmupFilter false
attr interpolationmode sample-hold
attr recordingmode last
attr source "warmup(atomic(constant0(localSignal(packetPushEnded)) + sum(packetLength(localSignal(packetPushStarted))) - sum(packetLength(localSignal(packetPulled))) - sum(packetLength(localSignal(packetRemoved))) - sum(packetLength(localSignal(packetDropped)))))"
attr title "queue bit length, last"
attr unit b
scalar HostsWithHub.hostC.eth.queue queueBitLength:max nan
attr autoWarmupFilter false
attr interpolationmode sample-hold
attr recordingmode max
attr source "warmup(atomic(constant0(localSignal(packetPushEnded)) + sum(packetLength(localSignal(packetPushStarted))) - sum(packetLength(localSignal(packetPulled))) - sum(packetLength(localSignal(packetRemoved))) - sum(packetLength(localSignal(packetDropped)))))"
attr title "queue bit length, max"
attr unit b
scalar HostsWithHub.hostC.eth.queue queueBitLength:timeavg -nan
attr autoWarmupFilter false
attr interpolationmode sample-hold
attr recordingmode timeavg
attr source "warmup(atomic(constant0(localSignal(packetPushEnded)) + sum(packetLength(localSignal(packetPushStarted))) - sum(packetLength(localSignal(packetPulled))) - sum(packetLength(localSignal(packetRemoved))) - sum(packetLength(localSignal(packetDropped)))))"
attr title "queue bit length, timeavg"
attr unit b
statistic HostsWithHub.hostC.eth.queue queueingTime:histogram
field count 2353
field mean 0
field stddev 0
field min 0
field max 0
field sum 0
field sqrsum 0
attr interpolationmode none
attr recordingmode histogram
attr source queueingTime(localSignal(packetPulled))
attr title "queueing times"
attr unit s
bin	-inf	0
bin	-0.5	0
bin	-0.48	0
bin	-0.46	0
bin	-0.44	0
bin	-0.42	0
bin	-0.4	0
bin	-0.38	0
bin	-0.36	0
bin	-0.34	0
bin	-0.32	0
bin	-0.3	0
bin	-0.28	0
bin	-0.26	0
bin	-0.24	0
bin	-0.22	0
bin	-0.2	0
bin	-0.18	0
bin	-0.16	0
bin	-0.14	0
bin	-0.12	0
bin	-0.1	0
bin	-0.08	0
bin	-0.06	0
bin	-0.04	0
bin	-0.02	0
bin	0	2353
bin	0.02	0
bin	0.04	0
bin	0.06	0
bin	0.08	0
bin	0.1	0
bin	0.12	0
bin	0.14	0
bin	0.16	0
bin	0.18	0
bin	0.2	0
bin	0.22	0
bin	0.24	0
bin	0.26	0
bin	0.28	0
bin	0.3	0
bin	0.32	0
bin	0.34	0
bin	0.36	0
bin	0.38	0
bin	0.4	0
bin	0.42	0
bin	0.44	0
bin	0.46	0
bin	0.48	0
bin	0.5	0
scalar HostsWithHub.hostC.eth.queue outgoingPackets:count 2353
attr recordingmode count
attr source localSignal(packetPulled)
attr title "outgoing packets, count"
attr unit pk
scalar HostsWithHub.hostC.eth.queue outgoingPacketLengths:sum 12376752
attr interpolationmode none
attr recordingmode sum
attr source packetLength(localSignal(packetPulled))
attr title "outgoing packet lengths, sum"
attr unit b
statistic HostsWithHub.hostC.eth.queue outgoingPacketLengths:histogram
field count 2353
field mean 5259.9881002975
field stddev 4336.486273925
field min 328
field max 12128
field sum 12376752
field sqrsum 109331194496
attr interpolationmode none
attr recordingmode histogram
attr source packetLength(localSignal(packetPulled))
attr title "outgoing packet lengths"
attr unit b
bin	-inf	0
bin	0	0
bin	200	152
bin	400	357
bin	600	258
bin	800	0
bin	1000	0
bin	1200	0
bin	1400	0
bin	1600	0
bin	1800	0
bin	2000	0
bin	2200	0
bin	2400	0
bin	2600	0
bin	2800	0
bin	3000	0
bin	3200	0
bin	3400	0
bin	3600	0
bin	3800	91
bin	4000	496
bin	4200	197
bin	4400	0
bin	4600	0
bin	4800	0
bin	5000	0
bin	5200	0
bin	5400	0
bin	5600	0
bin	5800	0
bin	6000	0
bin	6200	0
bin	6400	0
bin	6600	0
bin	6800	0
bin	7000	0
bin	7200	0
bin	7400	0
bin	7600	0
bin	7800	0
bin	8000	0
bin	8200	0
bin	8400	0
bin	8600	0
bin	8800	0
bin	9000	0
bin	9200	0
bin	9400	0
bin	9600	14
bin	9800	70
bin	10000	68
bin	10200	75
bin	10400	64
bin	10600	82
bin	10800	69
bin	11000	70
bin	11200	59
bin	11400	64
bin	11600	61
bin	11800	59
bin	12000	47
bin	12200	0
bin	12400	0
bin	12600	0
bin	12800	0
bin	13000	0
bin	13200	0
bin	13400	0
bin	13600	0
bin	13800	0
bin	14000	0
bin	14200	0
bin	14400	0
bin	14600	0
bin	14800	0
bin	15000	0
statistic HostsWithHub.hostC.eth.queue flowQueueingTime:histogram
field count 0
field mean -nan
field stddev nan
field min nan
field max nan
field sum 0
field sqrsum 0
attr interpolationmode none
attr recordingmode histogram
attr source queueingTime(demuxFlow(localSignal(packetPulled)))
attr title "flow queueing times"
attr unit s
bin	-inf	0
bin	0	0
bin	1	0
scalar HostsWithHub.hostC.eth.queue incomingPackets:count 0
attr recordingmode count
attr source localSignal(packetPushStarted)
attr title "incoming packets, count"
attr unit pk
scalar HostsWithHub.hostC.eth.queue incomingPacketLengths:sum 0
attr interpolationmode none
attr recordingmode sum
attr source packetLength(localSignal(packetPushStarted))
attr title "incoming packet lengths, sum"
attr unit b
statistic HostsWithHub.hostC.eth.queue incomingPacketLengths:histogram
field count 0
field mean -nan
field stddev nan
field min nan
field max nan
field sum 0
field sqrsum 0
attr interpolationmode none
attr recordingmode histogram
attr source packetLength(localSignal(packetPushStarted))
attr title "incoming packet lengths"
attr unit b
bin	-inf	0
bin	0	0
bin	1	0
scalar HostsWithHub.hostC.eth.queue droppedPacketsQueueOverflow:count 0
attr interpolationmode none
attr recordingmode count
attr source packetDropReasonIsQueueOverflow(localSignal(packetDropped))
attr title "dropped packets: queue overflow, count"
attr unit pk
scalar HostsWithHub.hostC.eth.queue droppedPacketLengthsQueueOverflow:sum 0
attr interpolationmode none
attr recordingmode sum
attr source packetLength(packetDropReasonIsQueueOverflow(localSignal(packetDropped)))
attr title "dropped packet lengths: queue overflow, sum"
attr unit b
scalar HostsWithHub.hostC.eth.mac "simulated time" 5.2
scalar HostsWithHub.hostC.eth.mac full-duplex 0
scalar HostsWithHub.hostC.eth.mac "frames/sec sent" 440
scalar HostsWithHub.hostC.eth.mac "frames/sec rcvd" 328.07692307692
scalar HostsWithHub.hostC.eth.mac "bits/sec sent" 2326247.6923077
scalar HostsWithHub.hostC.eth.mac "bits/sec rcvd" 1693456.9230769
scalar HostsWithHub.hostC.eth.mac "rx channel idle (%)" 39.706011538462
scalar HostsWithHub.hostC.eth.mac "rx channel utilization (%)" 60.151015384615
scalar HostsWithHub.hostC.eth.mac "rx channel collision (%)" 0.14297307692308
scalar HostsWithHub.hostC.eth.mac collisions 2142
scalar HostsWithHub.hostC.eth.mac backoffs 1685
scalar HostsWithHub.hostC.eth.mac backoffSlotsGenerated:count 1685
attr interpolationmode none
attr recordingmode count
attr title "backoff, count"
scalar HostsWithHub.hostC.eth.mac collision:count 2142
attr interpolationmode none
attr recordingmode count
attr title "collision, count"
scalar HostsWithHub.hostC.eth.mac rxPausePkUnits:count 0
attr interpolationmode none
attr recordingmode count
attr title "pause units received, count"
scalar HostsWithHub.hostC.eth.mac rxPausePkUnits:sum 0
attr interpolationmode none
attr recordingmode sum
attr title "pause units received, sum"
scalar HostsWithHub.hostC.eth.mac txPausePkUnits:count 0
attr interpolationmode none
attr recordingmode count
attr title "pause units sent, count"
scalar HostsWithHub.hostC.eth.mac txPausePkUnits:sum 0
attr interpolationmode none
attr recordingmode sum
attr title "pause units sent, sum"
scalar HostsWithHub.hostC.eth.mac rxPkOk:count 1706
attr interpolationmode none
attr recordingmode count
attr source rxPkOk
attr title "packets received OK, count"
scalar HostsWithHub.hostC.eth.mac rxPkOk:sum(packetBytes) 1100747
attr interpolationmode none
attr recordingmode sum(packetBytes)
attr source rxPkOk
attr title "packets received OK, sum(packetBytes)"
scalar HostsWithHub.hostC.eth.mac txPk:count 2288
attr interpolationmode none
attr recordingmode count
attr source packetSentToLower
attr title "packets transmitted, count"
scalar HostsWithHub.hostC.eth.mac txPk:sum(packetBytes) 1512061
attr interpolationmode none
attr recordingmode sum(packetBytes)
attr source packetSentToLower
attr title "packets transmitted, sum(packetBytes)"
scalar HostsWithHub.hostC.eth.mac packetReceivedFromUpper:count 2353
attr interpolationmode none
attr recordingmode count
attr source packetReceivedFromUpper
attr title "packet bytes from higher layer, count"
scalar HostsWithHub.hostC.eth.mac packetReceivedFromUpper:sum(packetBytes) 1547094
attr interpolationmode none
attr recordingmode sum(packetBytes)
attr source packetReceivedFromUpper
attr title "packet bytes from higher layer, sum(packetBytes)"
scalar HostsWithHub.hostC.eth.mac passedUpPk:count 1706
attr interpolationmode none
attr recordingmode count
attr source packetSentToUpper
attr title "packets passed to higher layer, count"
scalar HostsWithHub.hostC.eth.mac passedUpPk:sum(packetBytes) 1100747
attr interpolationmode none
attr recordingmode sum(packetBytes)
attr source packetSentToUpper
attr title "packets passed to higher layer, sum(packetBytes)"
scalar HostsWithHub.hostC.eth.mac packetDropIncorrectlyReceived:count 0
attr interpolationmode none
attr recordingmode count
attr source packetDropReasonIsIncorrectlyReceived(packetDropped)
attr title "packet drop: incorrectly received, count"
scalar HostsWithHub.hostC.eth.mac packetDropIncorrectlyReceived:sum(packetBytes) 0
attr interpolationmode none
attr recordingmode sum(packetBytes)
attr source packetDropReasonIsIncorrectlyReceived(packetDropped)
attr title "packet drop: incorrectly received, sum(packetBytes)"
scalar HostsWithHub.hostC.eth.mac packetDropInterfaceDown:count 64
attr interpolationmode none
attr recordingmode count
attr source packetDropReasonIsInterfaceDown(packetDropped)
attr title "packet drop: interface down, count"
scalar HostsWithHub.hostC.eth.mac packetDropInterfaceDown:sum(packetBytes) 38130
attr interpolationmode none
attr recordingmode sum(packetBytes)
attr source packetDropReasonIsInterfaceDown(packetDropped)
attr title "packet drop: interface down, sum(packetBytes)"
scalar HostsWithHub.hostC.eth.mac packetDropNotAddressedToUs:count 1879
attr interpolationmode none
attr recordingmode count
attr source packetDropReasonIsNotAddressedToUs(packetDropped)
attr title "packet drop: not addressed to us, count"
scalar HostsWithHub.hostC.eth.mac packetDropNotAddressedToUs:sum(packetBytes) 1250024
attr interpolationmode none
attr recordingmode sum(packetBytes)
attr source packetDropReasonIsNotAddressedToUs(packetDropped)
attr title "packet drop: not addressed to us, sum(packetBytes)"
scalar HostsWithHub.hostC.eth packetDropInterfaceDown:count 64
attr interpolationmode none
attr recordingmode count
attr source packetDropReasonIsInterfaceDown(packetDropped)
attr title "packet drops: interface down, count"
scalar HostsWithHub.hostC.eth packetDropInterfaceDown:sum(packetBytes) 38130
attr interpolationmode none
attr recordingmode sum(packetBytes)
attr source packetDropReasonIsInterfaceDown(packetDropped)
attr title "packet drops: interface down, sum(packetBytes)"
scalar HostsWithHub.hostC.eth packetDropNoCarrier:count 0
attr interpolationmode none
attr recordingmode count
attr source packetDropReasonIsNoCarrier(packetDropped)
attr title "packet drops: no carrier, count"
scalar HostsWithHub.hostC.eth packetDropNoCarrier:sum(packetBytes) 0
attr interpolationmode none
attr recordingmode sum(packetBytes)
attr source packetDropReasonIsNoCarrier(packetDropped)
attr title "packet drops: no carrier, sum(packetBytes)"
scalar HostsWithHub.hub packetReceived:count 20360
attr interpolationmode none
attr recordingmode count
attr source packetReceived
attr title "packets, count"
scalar HostsWithHub.hub packetReceived:sum(packetBytes) 7158441
attr interpolationmode none
attr recordingmode sum(packetBytes)
attr source packetReceived
attr title "packets, sum(packetBytes)"

