version 3
run CompletelyOverlappingFrequencyBands-0-20230411-10:34:48-43339
attr configname CompletelyOverlappingFrequencyBands
attr datetime 20230411-10:34:48
attr datetimef 20230411-103448
attr experiment CompletelyOverlappingFrequencyBands
attr inifile omnetpp.ini
attr iterationvars ""
attr iterationvarsd ""
attr iterationvarsf ""
attr measurement ""
attr network CrosstalkShowcaseOneScalarRadioMediumModule
attr processid 43339
attr repetition 0
attr replication #0
attr resultdir results
attr runnumber 0
attr seedset 0
config **.param-recording false
config image-path /home/levy/workspace/inet/images
config sim-time-limit 1s
config sim-time-limit 1s
config network CrosstalkShowcaseOneScalarRadioMediumModule
config **.arp.typename GlobalArp
config *.visualizer.*.dataLinkVisualizer.displayLinks true
config *.visualizer.*.physicalLinkVisualizer.displayLinks true
config *.visualizer.*.infoVisualizer.displayInfos true
config *.visualizer.*.infoVisualizer.modules "\"*.host*.app[0] OR *.host*.wlan[0].mac.dcf.channelAccess.contention\""
config *.visualizer.*.infoVisualizer.format "\"%t\""
config *.visualizer.*.mediumVisualizer.displaySignals true
config *.visualizer.**.fadeOutMode "\"animationTime\""
config *.host1.numApps 1
config *.host1.app[0].typename UdpBasicApp
config *.host1.app[*].destAddresses "\"host2\""
config *.host1.app[*].destPort 1000
config *.host1.app[*].messageLength 1000Byte
config *.host1.app[*].sendInterval 100ms
config *.host2.numApps 1
config *.host2.app[0].typename UdpSink
config *.host2.app[*].localPort 1000
config *.host3.numApps 1
config *.host3.app[0].typename UdpBasicApp
config *.host3.app[*].destAddresses "\"host4\""
config *.host3.app[*].destPort 1000
config *.host3.app[*].messageLength 1000Byte
config *.host3.app[*].sendInterval 100ms
config *.host4.numApps 1
config *.host4.app[0].typename UdpSink
config *.host4.app[*].localPort 1000

scalar CrosstalkShowcaseOneScalarRadioMediumModule.host1.lo[0].lo rcvdPkFromHl:count 0
attr interpolationmode none
attr recordingmode count
attr source packetReceivedFromUpper
attr title "packets received from higher layer, count"
scalar CrosstalkShowcaseOneScalarRadioMediumModule.host1.lo[0].lo rcvdPkFromHl:sum(packetBytes) 0
attr interpolationmode none
attr recordingmode sum(packetBytes)
attr source packetReceivedFromUpper
attr title "packets received from higher layer, sum(packetBytes)"
scalar CrosstalkShowcaseOneScalarRadioMediumModule.host1.lo[0].lo passedUpPk:count 0
attr interpolationmode none
attr recordingmode count
attr source packetSentToUpper
attr title "packets passed to higher layer, count"
scalar CrosstalkShowcaseOneScalarRadioMediumModule.host1.lo[0].lo passedUpPk:sum(packetBytes) 0
attr interpolationmode none
attr recordingmode sum(packetBytes)
attr source packetSentToUpper
attr title "packets passed to higher layer, sum(packetBytes)"
scalar CrosstalkShowcaseOneScalarRadioMediumModule.host1.lo[0] packetDropInterfaceDown:count 0
attr interpolationmode none
attr recordingmode count
attr source packetDropReasonIsInterfaceDown(packetDropped)
attr title "packet drops: interface down, count"
scalar CrosstalkShowcaseOneScalarRadioMediumModule.host1.lo[0] packetDropInterfaceDown:sum(packetBytes) 0
attr interpolationmode none
attr recordingmode sum(packetBytes)
attr source packetDropReasonIsInterfaceDown(packetDropped)
attr title "packet drops: interface down, sum(packetBytes)"
scalar CrosstalkShowcaseOneScalarRadioMediumModule.host1.lo[0] packetDropNoCarrier:count 0
attr interpolationmode none
attr recordingmode count
attr source packetDropReasonIsNoCarrier(packetDropped)
attr title "packet drops: no carrier, count"
scalar CrosstalkShowcaseOneScalarRadioMediumModule.host1.lo[0] packetDropNoCarrier:sum(packetBytes) 0
attr interpolationmode none
attr recordingmode sum(packetBytes)
attr source packetDropReasonIsNoCarrier(packetDropped)
attr title "packet drops: no carrier, sum(packetBytes)"
scalar CrosstalkShowcaseOneScalarRadioMediumModule.host1.wlan[0].mac.dcf.channelAccess.pendingQueue queueLength:last 0
attr autoWarmupFilter false
attr interpolationmode sample-hold
attr recordingmode last
attr source "warmup(atomic(constant0(packetPushEnded) + count(packetPushStarted) - count(packetPulled) - count(packetRemoved) - count(packetDropped)))"
attr title "queue length, last"
attr unit pk
scalar CrosstalkShowcaseOneScalarRadioMediumModule.host1.wlan[0].mac.dcf.channelAccess.pendingQueue queueLength:max 1
attr autoWarmupFilter false
attr interpolationmode sample-hold
attr recordingmode max
attr source "warmup(atomic(constant0(packetPushEnded) + count(packetPushStarted) - count(packetPulled) - count(packetRemoved) - count(packetDropped)))"
attr title "queue length, max"
attr unit pk
scalar CrosstalkShowcaseOneScalarRadioMediumModule.host1.wlan[0].mac.dcf.channelAccess.pendingQueue queueLength:timeavg 0
attr autoWarmupFilter false
attr interpolationmode sample-hold
attr recordingmode timeavg
attr source "warmup(atomic(constant0(packetPushEnded) + count(packetPushStarted) - count(packetPulled) - count(packetRemoved) - count(packetDropped)))"
attr title "queue length, timeavg"
attr unit pk
scalar CrosstalkShowcaseOneScalarRadioMediumModule.host1.wlan[0].mac.dcf.channelAccess.pendingQueue queueBitLength:last 0
attr autoWarmupFilter false
attr interpolationmode sample-hold
attr recordingmode last
attr source "warmup(atomic(constant0(packetPushEnded) + sum(packetLength(packetPushStarted)) - sum(packetLength(packetPulled)) - sum(packetLength(packetRemoved)) - sum(packetLength(packetDropped))))"
attr title "queue bit length, last"
attr unit b
scalar CrosstalkShowcaseOneScalarRadioMediumModule.host1.wlan[0].mac.dcf.channelAccess.pendingQueue queueBitLength:max 8512
attr autoWarmupFilter false
attr interpolationmode sample-hold
attr recordingmode max
attr source "warmup(atomic(constant0(packetPushEnded) + sum(packetLength(packetPushStarted)) - sum(packetLength(packetPulled)) - sum(packetLength(packetRemoved)) - sum(packetLength(packetDropped))))"
attr title "queue bit length, max"
attr unit b
scalar CrosstalkShowcaseOneScalarRadioMediumModule.host1.wlan[0].mac.dcf.channelAccess.pendingQueue queueBitLength:timeavg 0
attr autoWarmupFilter false
attr interpolationmode sample-hold
attr recordingmode timeavg
attr source "warmup(atomic(constant0(packetPushEnded) + sum(packetLength(packetPushStarted)) - sum(packetLength(packetPulled)) - sum(packetLength(packetRemoved)) - sum(packetLength(packetDropped))))"
attr title "queue bit length, timeavg"
attr unit b
statistic CrosstalkShowcaseOneScalarRadioMediumModule.host1.wlan[0].mac.dcf.channelAccess.pendingQueue queueingTime:histogram
field count 10
field mean 0
field stddev 0
field min 0
field max 0
field sum 0
field sqrsum 0
attr interpolationmode none
attr recordingmode histogram
attr source queueingTime(packetPulled)
attr title "queueing times"
attr unit s
bin	-inf	0
bin	-0.5	0
bin	-0.48	0
bin	-0.46	0
bin	-0.44	0
bin	-0.42	0
bin	-0.4	0
bin	-0.38	0
bin	-0.36	0
bin	-0.34	0
bin	-0.32	0
bin	-0.3	0
bin	-0.28	0
bin	-0.26	0
bin	-0.24	0
bin	-0.22	0
bin	-0.2	0
bin	-0.18	0
bin	-0.16	0
bin	-0.14	0
bin	-0.12	0
bin	-0.1	0
bin	-0.08	0
bin	-0.06	0
bin	-0.04	0
bin	-0.02	0
bin	0	10
bin	0.02	0
bin	0.04	0
bin	0.06	0
bin	0.08	0
bin	0.1	0
bin	0.12	0
bin	0.14	0
bin	0.16	0
bin	0.18	0
bin	0.2	0
bin	0.22	0
bin	0.24	0
bin	0.26	0
bin	0.28	0
bin	0.3	0
bin	0.32	0
bin	0.34	0
bin	0.36	0
bin	0.38	0
bin	0.4	0
bin	0.42	0
bin	0.44	0
bin	0.46	0
bin	0.48	0
bin	0.5	0
scalar CrosstalkShowcaseOneScalarRadioMediumModule.host1.wlan[0].mac.dcf.channelAccess.pendingQueue outgoingPackets:count 10
attr recordingmode count
attr source packetPulled
attr title "outgoing packets, count"
attr unit pk
scalar CrosstalkShowcaseOneScalarRadioMediumModule.host1.wlan[0].mac.dcf.channelAccess.pendingQueue outgoingPacketLengths:sum 85120
attr interpolationmode none
attr recordingmode sum
attr source packetLength(packetPulled)
attr title "outgoing packet lengths, sum"
attr unit b
statistic CrosstalkShowcaseOneScalarRadioMediumModule.host1.wlan[0].mac.dcf.channelAccess.pendingQueue outgoingPacketLengths:histogram
field count 10
field mean 8512
field stddev 0
field min 8512
field max 8512
field sum 85120
field sqrsum 724541440
attr interpolationmode none
attr recordingmode histogram
attr source packetLength(packetPulled)
attr title "outgoing packet lengths"
attr unit b
bin	-inf	0
bin	8511	0
bin	8512	10
bin	8513	0
statistic CrosstalkShowcaseOneScalarRadioMediumModule.host1.wlan[0].mac.dcf.channelAccess.pendingQueue flowQueueingTime:histogram
field count 0
field mean -nan
field stddev nan
field min nan
field max nan
field sum 0
field sqrsum 0
attr interpolationmode none
attr recordingmode histogram
attr source queueingTime(demuxFlow(packetPulled))
attr title "flow queueing times"
attr unit s
bin	-inf	0
bin	0	0
bin	1	0
scalar CrosstalkShowcaseOneScalarRadioMediumModule.host1.wlan[0].mac.dcf.channelAccess.pendingQueue incomingPackets:count 10
attr recordingmode count
attr source packetPushStarted
attr title "incoming packets, count"
attr unit pk
scalar CrosstalkShowcaseOneScalarRadioMediumModule.host1.wlan[0].mac.dcf.channelAccess.pendingQueue incomingPacketLengths:sum 85120
attr interpolationmode none
attr recordingmode sum
attr source packetLength(packetPushStarted)
attr title "incoming packet lengths, sum"
attr unit b
statistic CrosstalkShowcaseOneScalarRadioMediumModule.host1.wlan[0].mac.dcf.channelAccess.pendingQueue incomingPacketLengths:histogram
field count 10
field mean 8512
field stddev 0
field min 8512
field max 8512
field sum 85120
field sqrsum 724541440
attr interpolationmode none
attr recordingmode histogram
attr source packetLength(packetPushStarted)
attr title "incoming packet lengths"
attr unit b
bin	-inf	0
bin	8511	0
bin	8512	10
bin	8513	0
scalar CrosstalkShowcaseOneScalarRadioMediumModule.host1.wlan[0].mac.dcf.channelAccess.pendingQueue droppedPacketsQueueOverflow:count 0
attr interpolationmode none
attr recordingmode count
attr source packetDropReasonIsQueueOverflow(packetDropped)
attr title "dropped packets: queue overflow, count"
attr unit pk
scalar CrosstalkShowcaseOneScalarRadioMediumModule.host1.wlan[0].mac.dcf.channelAccess.pendingQueue droppedPacketLengthsQueueOverflow:sum 0
attr interpolationmode none
attr recordingmode sum
attr source packetLength(packetDropReasonIsQueueOverflow(packetDropped))
attr title "dropped packet lengths: queue overflow, sum"
attr unit b
statistic CrosstalkShowcaseOneScalarRadioMediumModule.host1.wlan[0].mac.dcf.channelAccess.inProgressFrames queueingTime:histogram
field count 9
field mean 0.0018748691608889
field stddev 0.00045943505964806
field min 0.001263521052
field max 0.002640747648
field sum 0.016873822448
field sqrsum 3.332485392634e-05
attr interpolationmode none
attr recordingmode histogram
attr source queueingTime(packetDequeued)
attr title "queueing times"
bin	-inf	0
bin	0.0009	0
bin	0.00092	0
bin	0.00094	0
bin	0.00096	0
bin	0.00098	0
bin	0.001	0
bin	0.00102	0
bin	0.00104	0
bin	0.00106	0
bin	0.00108	0
bin	0.0011	0
bin	0.00112	0
bin	0.00114	0
bin	0.00116	0
bin	0.00118	0
bin	0.0012	0
bin	0.00122	0
bin	0.00124	0
bin	0.00126	1
bin	0.00128	0
bin	0.0013	0
bin	0.00132	0
bin	0.00134	0
bin	0.00136	1
bin	0.00138	0
bin	0.0014	0
bin	0.00142	0
bin	0.00144	0
bin	0.00146	0
bin	0.00148	0
bin	0.0015	0
bin	0.00152	0
bin	0.00154	0
bin	0.00156	0
bin	0.00158	0
bin	0.0016	1
bin	0.00162	0
bin	0.00164	1
bin	0.00166	0
bin	0.00168	0
bin	0.0017	0
bin	0.00172	0
bin	0.00174	0
bin	0.00176	0
bin	0.00178	0
bin	0.0018	0
bin	0.00182	0
bin	0.00184	0
bin	0.00186	1
bin	0.00188	0
bin	0.0019	0
bin	0.00192	0
bin	0.00194	0
bin	0.00196	0
bin	0.00198	0
bin	0.002	0
bin	0.00202	1
bin	0.00204	0
bin	0.00206	1
bin	0.00208	0
bin	0.0021	0
bin	0.00212	0
bin	0.00214	0
bin	0.00216	0
bin	0.00218	0
bin	0.0022	0
bin	0.00222	0
bin	0.00224	0
bin	0.00226	0
bin	0.00228	0
bin	0.0023	0
bin	0.00232	0
bin	0.00234	0
bin	0.00236	0
bin	0.00238	0
bin	0.0024	1
bin	0.00242	0
bin	0.00244	0
bin	0.00246	0
bin	0.00248	0
bin	0.0025	0
bin	0.00252	0
bin	0.00254	0
bin	0.00256	0
bin	0.00258	0
bin	0.0026	0
bin	0.00262	0
bin	0.00264	1
bin	0.00266	0
bin	0.00268	0
bin	0.0027	0
bin	0.00272	0
bin	0.00274	0
bin	0.00276	0
bin	0.00278	0
bin	0.0028	0
bin	0.00282	0
bin	0.00284	0
bin	0.00286	0
bin	0.00288	0
bin	0.0029	0
bin	0.00292	0
bin	0.00294	0
bin	0.00296	0
bin	0.00298	0
bin	0.003	0
scalar CrosstalkShowcaseOneScalarRadioMediumModule.host1.wlan[0].mac.dcf.channelAccess.inProgressFrames queueLength:max 1
attr autoWarmupFilter false
attr interpolationmode sample-hold
attr recordingmode max
attr source "warmup(count(packetEnqueued) - count(packetDequeued))"
attr title "queue length, max"
scalar CrosstalkShowcaseOneScalarRadioMediumModule.host1.wlan[0].mac.dcf.channelAccess.inProgressFrames queueLength:timeavg 0.016873822448
attr autoWarmupFilter false
attr interpolationmode sample-hold
attr recordingmode timeavg
attr source "warmup(count(packetEnqueued) - count(packetDequeued))"
attr title "queue length, timeavg"
scalar CrosstalkShowcaseOneScalarRadioMediumModule.host1.wlan[0].mac.dcf.channelAccess.contention channelAccessGranted:count 20
attr recordingmode count
attr title "channel access granted, count"
scalar CrosstalkShowcaseOneScalarRadioMediumModule.host1.wlan[0].mac.dcf.channelAccess.contention stateChanged:count 232
attr enum IDLE,DEFER,IFS_AND_BACKOFF
attr interpolationmode none
attr recordingmode count
attr title "contention state changed, count"
attr type enum
scalar CrosstalkShowcaseOneScalarRadioMediumModule.host1.wlan[0].mac.dcf.channelAccess channelOwnershipChanged:count 39
attr interpolationmode sample-hold
attr recordingmode count
attr title "channel ownership, count"
scalar CrosstalkShowcaseOneScalarRadioMediumModule.host1.wlan[0].mac.dcf.originatorMacDataService packetAggregated:count 0
attr recordingmode count
attr title "packets aggregated, count"
scalar CrosstalkShowcaseOneScalarRadioMediumModule.host1.wlan[0].mac.dcf.originatorMacDataService packetFragmented:count 0
attr recordingmode count
attr title "packets fragmented, count"
scalar CrosstalkShowcaseOneScalarRadioMediumModule.host1.wlan[0].mac.dcf.recipientMacDataService packetDeaggregated:count 0
attr recordingmode count
attr title "packets deaggregated, count"
scalar CrosstalkShowcaseOneScalarRadioMediumModule.host1.wlan[0].mac.dcf.recipientMacDataService packetDefragmented:count 0
attr recordingmode count
attr title "packets defragmented, count"
scalar CrosstalkShowcaseOneScalarRadioMediumModule.host1.wlan[0].mac.dcf.recipientMacDataService packetDropDuplicateDetected:count 0
attr interpolationmode none
attr recordingmode count
attr source packetDropReasonIsDuplicateDetected(packetDropped)
attr title "packet drops: duplicate detected, count"
scalar CrosstalkShowcaseOneScalarRadioMediumModule.host1.wlan[0].mac.dcf.recipientMacDataService packetDropDuplicateDetected:sum(packetBytes) 0
attr interpolationmode none
attr recordingmode sum(packetBytes)
attr source packetDropReasonIsDuplicateDetected(packetDropped)
attr title "packet drops: duplicate detected, sum(packetBytes)"
scalar CrosstalkShowcaseOneScalarRadioMediumModule.host1.wlan[0].mac.dcf.recoveryProcedure retryLimitReached:count 0
attr recordingmode count
attr title "retry limit reached, count"
scalar CrosstalkShowcaseOneScalarRadioMediumModule.host1.wlan[0].mac.dcf frameSequenceFinished:count 19
attr recordingmode count
attr title "finished frame sequences, count"
statistic CrosstalkShowcaseOneScalarRadioMediumModule.host1.wlan[0].mac.dcf frameSequenceDuration:histogram
field count 19
field mean 0.000432509972
field stddev 4.8625977242745e-06
field min 0.000427521052
field max 0.000437
field sum 0.008217689468
field sqrsum 3.5546582491287e-06
attr recordingmode histogram
attr source frameSequenceDuration(frameSequenceFinished)
attr title "frame sequence durations"
bin	-inf	0
bin	0.000425	0
bin	0.0004252	0
bin	0.0004254	0
bin	0.0004256	0
bin	0.0004258	0
bin	0.000426	0
bin	0.0004262	0
bin	0.0004264	0
bin	0.0004266	0
bin	0.0004268	0
bin	0.000427	0
bin	0.0004272	0
bin	0.0004274	9
bin	0.0004276	0
bin	0.0004278	0
bin	0.000428	0
bin	0.0004282	0
bin	0.0004284	0
bin	0.0004286	0
bin	0.0004288	0
bin	0.000429	0
bin	0.0004292	0
bin	0.0004294	0
bin	0.0004296	0
bin	0.0004298	0
bin	0.00043	0
bin	0.0004302	0
bin	0.0004304	0
bin	0.0004306	0
bin	0.0004308	0
bin	0.000431	0
bin	0.0004312	0
bin	0.0004314	0
bin	0.0004316	0
bin	0.0004318	0
bin	0.000432	0
bin	0.0004322	0
bin	0.0004324	0
bin	0.0004326	0
bin	0.0004328	0
bin	0.000433	0
bin	0.0004332	0
bin	0.0004334	0
bin	0.0004336	0
bin	0.0004338	0
bin	0.000434	0
bin	0.0004342	0
bin	0.0004344	0
bin	0.0004346	0
bin	0.0004348	0
bin	0.000435	0
bin	0.0004352	0
bin	0.0004354	0
bin	0.0004356	0
bin	0.0004358	0
bin	0.000436	0
bin	0.0004362	0
bin	0.0004364	0
bin	0.0004366	0
bin	0.0004368	10
bin	0.000437	0
bin	0.0004372	0
bin	0.0004374	0
bin	0.0004376	0
bin	0.0004378	0
bin	0.000438	0
bin	0.0004382	0
bin	0.0004384	0
bin	0.0004386	0
bin	0.0004388	0
bin	0.000439	0
bin	0.0004392	0
bin	0.0004394	0
statistic CrosstalkShowcaseOneScalarRadioMediumModule.host1.wlan[0].mac.dcf frameSequenceNumPackets:histogram
field count 19
field mean 2
field stddev 0
field min 2
field max 2
field sum 38
field sqrsum 76
attr recordingmode histogram
attr source frameSequenceNumPackets(frameSequenceFinished)
attr title "frame sequences: number of packets"
bin	-inf	0
bin	1	0
bin	2	19
bin	3	0
scalar CrosstalkShowcaseOneScalarRadioMediumModule.host1.wlan[0].mac.dcf packetReceivedFromPeer:count 9
attr interpolationmode none
attr recordingmode count
attr title "packets received, count"
scalar CrosstalkShowcaseOneScalarRadioMediumModule.host1.wlan[0].mac.dcf packetReceivedFromPeer:sum(packetBytes) 126
attr interpolationmode none
attr recordingmode sum(packetBytes)
attr title "packets received, sum(packetBytes)"
scalar CrosstalkShowcaseOneScalarRadioMediumModule.host1.wlan[0].mac.dcf packetReceivedFromPeerUnicast:count 9
attr interpolationmode none
attr recordingmode count
attr source ieee80211Unicast(packetReceivedFromPeer)
attr title "packets received: unicast, count"
scalar CrosstalkShowcaseOneScalarRadioMediumModule.host1.wlan[0].mac.dcf packetReceivedFromPeerUnicast:sum(packetBytes) 126
attr interpolationmode none
attr recordingmode sum(packetBytes)
attr source ieee80211Unicast(packetReceivedFromPeer)
attr title "packets received: unicast, sum(packetBytes)"
scalar CrosstalkShowcaseOneScalarRadioMediumModule.host1.wlan[0].mac.dcf packetReceivedFromPeerMulticast:count 0
attr interpolationmode none
attr recordingmode count
attr source ieee80211Multicast(packetReceivedFromPeer)
attr title "packets received: multicast, count"
scalar CrosstalkShowcaseOneScalarRadioMediumModule.host1.wlan[0].mac.dcf packetReceivedFromPeerMulticast:sum(packetBytes) 0
attr interpolationmode none
attr recordingmode sum(packetBytes)
attr source ieee80211Multicast(packetReceivedFromPeer)
attr title "packets received: multicast, sum(packetBytes)"
scalar CrosstalkShowcaseOneScalarRadioMediumModule.host1.wlan[0].mac.dcf packetReceivedFromPeerBroadcast:count 0
attr interpolationmode none
attr recordingmode count
attr source ieee80211Broadcast(packetReceivedFromPeer)
attr title "packets received: broadcast, count"
scalar CrosstalkShowcaseOneScalarRadioMediumModule.host1.wlan[0].mac.dcf packetReceivedFromPeerBroadcast:sum(packetBytes) 0
attr interpolationmode none
attr recordingmode sum(packetBytes)
attr source ieee80211Broadcast(packetReceivedFromPeer)
attr title "packets received: broadcast, sum(packetBytes)"
scalar CrosstalkShowcaseOneScalarRadioMediumModule.host1.wlan[0].mac.dcf packetReceivedFromPeerWithRetry:count 0
attr interpolationmode none
attr recordingmode count
attr source ieee80211Retry(packetReceivedFromPeer)
attr title "packets received: with retry, count"
scalar CrosstalkShowcaseOneScalarRadioMediumModule.host1.wlan[0].mac.dcf packetReceivedFromPeerWithRetry:sum(packetBytes) 0
attr interpolationmode none
attr recordingmode sum(packetBytes)
attr source ieee80211Retry(packetReceivedFromPeer)
attr title "packets received: with retry, sum(packetBytes)"
scalar CrosstalkShowcaseOneScalarRadioMediumModule.host1.wlan[0].mac.dcf packetReceivedFromPeerWithoutRetry:count 9
attr interpolationmode none
attr recordingmode count
attr source ieee80211NotRetry(packetReceivedFromPeer)
attr title "packets received: without retry, count"
scalar CrosstalkShowcaseOneScalarRadioMediumModule.host1.wlan[0].mac.dcf packetReceivedFromPeerWithoutRetry:sum(packetBytes) 126
attr interpolationmode none
attr recordingmode sum(packetBytes)
attr source ieee80211NotRetry(packetReceivedFromPeer)
attr title "packets received: without retry, sum(packetBytes)"
scalar CrosstalkShowcaseOneScalarRadioMediumModule.host1.wlan[0].mac.dcf packetSentToPeer:count 19
attr interpolationmode none
attr recordingmode count
attr title "packets sent, count"
scalar CrosstalkShowcaseOneScalarRadioMediumModule.host1.wlan[0].mac.dcf packetSentToPeer:sum(packetBytes) 20216
attr interpolationmode none
attr recordingmode sum(packetBytes)
attr title "packets sent, sum(packetBytes)"
scalar CrosstalkShowcaseOneScalarRadioMediumModule.host1.wlan[0].mac.dcf packetSentToPeerUnicast:count 19
attr interpolationmode none
attr recordingmode count
attr source ieee80211Unicast(packetSentToPeer)
attr title "packets sent: unicast, count"
scalar CrosstalkShowcaseOneScalarRadioMediumModule.host1.wlan[0].mac.dcf packetSentToPeerUnicast:sum(packetBytes) 20216
attr interpolationmode none
attr recordingmode sum(packetBytes)
attr source ieee80211Unicast(packetSentToPeer)
attr title "packets sent: unicast, sum(packetBytes)"
scalar CrosstalkShowcaseOneScalarRadioMediumModule.host1.wlan[0].mac.dcf packetSentToPeerMulticast:count 0
attr interpolationmode none
attr recordingmode count
attr source ieee80211Multicast(packetSentToPeer)
attr title "packets sent: multicast, count"
scalar CrosstalkShowcaseOneScalarRadioMediumModule.host1.wlan[0].mac.dcf packetSentToPeerMulticast:sum(packetBytes) 0
attr interpolationmode none
attr recordingmode sum(packetBytes)
attr source ieee80211Multicast(packetSentToPeer)
attr title "packets sent: multicast, sum(packetBytes)"
scalar CrosstalkShowcaseOneScalarRadioMediumModule.host1.wlan[0].mac.dcf packetSentToPeerBroadcast:count 0
attr interpolationmode none
attr recordingmode count
attr source ieee80211Broadcast(packetSentToPeer)
attr title "packets sent: broadcast , count"
scalar CrosstalkShowcaseOneScalarRadioMediumModule.host1.wlan[0].mac.dcf packetSentToPeerBroadcast:sum(packetBytes) 0
attr interpolationmode none
attr recordingmode sum(packetBytes)
attr source ieee80211Broadcast(packetSentToPeer)
attr title "packets sent: broadcast , sum(packetBytes)"
scalar CrosstalkShowcaseOneScalarRadioMediumModule.host1.wlan[0].mac.dcf packetSentToPeerWithRetry:count 10
attr interpolationmode none
attr recordingmode count
attr source ieee80211Retry(packetSentToPeer)
attr title "packets sent: with retry, count"
scalar CrosstalkShowcaseOneScalarRadioMediumModule.host1.wlan[0].mac.dcf packetSentToPeerWithRetry:sum(packetBytes) 10640
attr interpolationmode none
attr recordingmode sum(packetBytes)
attr source ieee80211Retry(packetSentToPeer)
attr title "packets sent: with retry, sum(packetBytes)"
scalar CrosstalkShowcaseOneScalarRadioMediumModule.host1.wlan[0].mac.dcf packetSentToPeerWithoutRetry:count 9
attr interpolationmode none
attr recordingmode count
attr source ieee80211NotRetry(packetSentToPeer)
attr title "packets sent: without retry, count"
scalar CrosstalkShowcaseOneScalarRadioMediumModule.host1.wlan[0].mac.dcf packetSentToPeerWithoutRetry:sum(packetBytes) 9576
attr interpolationmode none
attr recordingmode sum(packetBytes)
attr source ieee80211NotRetry(packetSentToPeer)
attr title "packets sent: without retry, sum(packetBytes)"
scalar CrosstalkShowcaseOneScalarRadioMediumModule.host1.wlan[0].mac.dcf packetDrop:count 18
attr interpolationmode none
attr recordingmode count
attr source packetDropped
attr title "packet drops, count"
scalar CrosstalkShowcaseOneScalarRadioMediumModule.host1.wlan[0].mac.dcf packetDrop:sum(packetBytes) 9702
attr interpolationmode none
attr recordingmode sum(packetBytes)
attr source packetDropped
attr title "packet drops, sum(packetBytes)"
scalar CrosstalkShowcaseOneScalarRadioMediumModule.host1.wlan[0].mac.dcf packetDropNotAddressedToUs:count 18
attr interpolationmode none
attr recordingmode count
attr source packetDropReasonIsNotAddressedToUs(packetDropped)
attr title "packet drops: not addressed to us, count"
scalar CrosstalkShowcaseOneScalarRadioMediumModule.host1.wlan[0].mac.dcf packetDropNotAddressedToUs:sum(packetBytes) 9702
attr interpolationmode none
attr recordingmode sum(packetBytes)
attr source packetDropReasonIsNotAddressedToUs(packetDropped)
attr title "packet drops: not addressed to us, sum(packetBytes)"
scalar CrosstalkShowcaseOneScalarRadioMediumModule.host1.wlan[0].mac.dcf packetDropQueueOverflow:count 0
attr interpolationmode none
attr recordingmode count
attr source packetDropReasonIsQueueOverflow(packetDropped)
attr title "packet drops: queue overflow, count"
scalar CrosstalkShowcaseOneScalarRadioMediumModule.host1.wlan[0].mac.dcf packetDropQueueOverflow:sum(packetBytes) 0
attr interpolationmode none
attr recordingmode sum(packetBytes)
attr source packetDropReasonIsQueueOverflow(packetDropped)
attr title "packet drops: queue overflow, sum(packetBytes)"
scalar CrosstalkShowcaseOneScalarRadioMediumModule.host1.wlan[0].mac.dcf packetDropRetryLimitReached:count 0
attr interpolationmode none
attr recordingmode count
attr source packetDropReasonIsRetryLimitReached(packetDropped)
attr title "packet drops: retry limit reached, count"
scalar CrosstalkShowcaseOneScalarRadioMediumModule.host1.wlan[0].mac.dcf packetDropRetryLimitReached:sum(packetBytes) 0
attr interpolationmode none
attr recordingmode sum(packetBytes)
attr source packetDropReasonIsRetryLimitReached(packetDropped)
attr title "packet drops: retry limit reached, sum(packetBytes)"
scalar CrosstalkShowcaseOneScalarRadioMediumModule.host1.wlan[0].mac.dcf linkBroken:count 0
attr interpolationmode none
attr recordingmode count
attr title "link breaks, count"
scalar CrosstalkShowcaseOneScalarRadioMediumModule.host1.wlan[0].mac packetReceivedFromLower:count 27
attr interpolationmode none
attr recordingmode count
attr title "packets received from lower layer, count"
scalar CrosstalkShowcaseOneScalarRadioMediumModule.host1.wlan[0].mac packetReceivedFromLower:sum(packetBytes) 9828
attr interpolationmode none
attr recordingmode sum(packetBytes)
attr title "packets received from lower layer, sum(packetBytes)"
scalar CrosstalkShowcaseOneScalarRadioMediumModule.host1.wlan[0].mac packetSentToLower:count 20
attr interpolationmode none
attr recordingmode count
attr title "packets sent to lower layer, count"
scalar CrosstalkShowcaseOneScalarRadioMediumModule.host1.wlan[0].mac packetSentToLower:sum(packetBytes) 21280
attr interpolationmode none
attr recordingmode sum(packetBytes)
attr title "packets sent to lower layer, sum(packetBytes)"
scalar CrosstalkShowcaseOneScalarRadioMediumModule.host1.wlan[0].mac packetReceivedFromUpper:count 10
attr interpolationmode none
attr recordingmode count
attr title "packets received from upper layer, count"
scalar CrosstalkShowcaseOneScalarRadioMediumModule.host1.wlan[0].mac packetReceivedFromUpper:sum(packetBytes) 10360
attr interpolationmode none
attr recordingmode sum(packetBytes)
attr title "packets received from upper layer, sum(packetBytes)"
scalar CrosstalkShowcaseOneScalarRadioMediumModule.host1.wlan[0].mac packetSentToUpper:count 0
attr interpolationmode none
attr recordingmode count
attr title "packets sent to upper layer, count"
scalar CrosstalkShowcaseOneScalarRadioMediumModule.host1.wlan[0].mac packetSentToUpper:sum(packetBytes) 0
attr interpolationmode none
attr recordingmode sum(packetBytes)
attr title "packets sent to upper layer, sum(packetBytes)"
scalar CrosstalkShowcaseOneScalarRadioMediumModule.host1.wlan[0].mac packetDrop:count 18
attr interpolationmode none
attr recordingmode count
attr source packetDropped
attr title "packet drops, count"
scalar CrosstalkShowcaseOneScalarRadioMediumModule.host1.wlan[0].mac packetDrop:sum(packetBytes) 9702
attr interpolationmode none
attr recordingmode sum(packetBytes)
attr source packetDropped
attr title "packet drops, sum(packetBytes)"
scalar CrosstalkShowcaseOneScalarRadioMediumModule.host1.wlan[0].mac packetDropIncorrectlyReceived:count 0
attr interpolationmode none
attr recordingmode count
attr source packetDropReasonIsIncorrectlyReceived(packetDropped)
attr title "packet drops: incorrectly received, count"
scalar CrosstalkShowcaseOneScalarRadioMediumModule.host1.wlan[0].mac packetDropIncorrectlyReceived:sum(packetBytes) 0
attr interpolationmode none
attr recordingmode sum(packetBytes)
attr source packetDropReasonIsIncorrectlyReceived(packetDropped)
attr title "packet drops: incorrectly received, sum(packetBytes)"
scalar CrosstalkShowcaseOneScalarRadioMediumModule.host1.wlan[0].mac packetDropNotAddressedToUs:count 18
attr interpolationmode none
attr recordingmode count
attr source packetDropReasonIsNotAddressedToUs(packetDropped)
attr title "packet drops: not addressed to us, count"
scalar CrosstalkShowcaseOneScalarRadioMediumModule.host1.wlan[0].mac packetDropNotAddressedToUs:sum(packetBytes) 9702
attr interpolationmode none
attr recordingmode sum(packetBytes)
attr source packetDropReasonIsNotAddressedToUs(packetDropped)
attr title "packet drops: not addressed to us, sum(packetBytes)"
scalar CrosstalkShowcaseOneScalarRadioMediumModule.host1.wlan[0].mac packetDropQueueOverflow:count 0
attr interpolationmode none
attr recordingmode count
attr source packetDropReasonIsQueueOverflow(packetDropped)
attr title "packet drops: queue overflow, count"
scalar CrosstalkShowcaseOneScalarRadioMediumModule.host1.wlan[0].mac packetDropQueueOverflow:sum(packetBytes) 0
attr interpolationmode none
attr recordingmode sum(packetBytes)
attr source packetDropReasonIsQueueOverflow(packetDropped)
attr title "packet drops: queue overflow, sum(packetBytes)"
scalar CrosstalkShowcaseOneScalarRadioMediumModule.host1.wlan[0].mac packetDropRetryLimitReached:count 0
attr interpolationmode none
attr recordingmode count
attr source packetDropReasonIsRetryLimitReached(packetDropped)
attr title "packet drops: retry limit reached, count"
scalar CrosstalkShowcaseOneScalarRadioMediumModule.host1.wlan[0].mac packetDropRetryLimitReached:sum(packetBytes) 0
attr interpolationmode none
attr recordingmode sum(packetBytes)
attr source packetDropReasonIsRetryLimitReached(packetDropped)
attr title "packet drops: retry limit reached, sum(packetBytes)"
scalar CrosstalkShowcaseOneScalarRadioMediumModule.host1.wlan[0].mac packetDropDuplicateDetected:count 0
attr interpolationmode none
attr recordingmode count
attr source packetDropReasonIsDuplicateDetected(packetDropped)
attr title "packet drops: duplicate detected, count"
scalar CrosstalkShowcaseOneScalarRadioMediumModule.host1.wlan[0].mac packetDropDuplicateDetected:sum(packetBytes) 0
attr interpolationmode none
attr recordingmode sum(packetBytes)
attr source packetDropReasonIsDuplicateDetected(packetDropped)
attr title "packet drops: duplicate detected, sum(packetBytes)"
scalar CrosstalkShowcaseOneScalarRadioMediumModule.host1.wlan[0].mac packetDropOther:count 0
attr interpolationmode none
attr recordingmode count
attr source packetDropReasonIsOther(packetDropped)
attr title "packet drops: other, count"
scalar CrosstalkShowcaseOneScalarRadioMediumModule.host1.wlan[0].mac packetDropOther:sum(packetBytes) 0
attr interpolationmode none
attr recordingmode sum(packetBytes)
attr source packetDropReasonIsOther(packetDropped)
attr title "packet drops: other, sum(packetBytes)"
scalar CrosstalkShowcaseOneScalarRadioMediumModule.host1.wlan[0].mac linkBroken:count 0
attr interpolationmode none
attr recordingmode count
attr title "link breaks, count"
statistic CrosstalkShowcaseOneScalarRadioMediumModule.host1.wlan[0].radio radioChannel:histogram
field count 1
field mean 0
field stddev nan
field min 0
field max 0
field sum 0
field sqrsum 0
attr interpolationmode sample-hold
attr recordingmode histogram
attr source radioChannelChanged
attr title "Radio channel"
bin	-inf	0
bin	-0.5	0
bin	-0.48	0
bin	-0.46	0
bin	-0.44	0
bin	-0.42	0
bin	-0.4	0
bin	-0.38	0
bin	-0.36	0
bin	-0.34	0
bin	-0.32	0
bin	-0.3	0
bin	-0.28	0
bin	-0.26	0
bin	-0.24	0
bin	-0.22	0
bin	-0.2	0
bin	-0.18	0
bin	-0.16	0
bin	-0.14	0
bin	-0.12	0
bin	-0.1	0
bin	-0.08	0
bin	-0.06	0
bin	-0.04	0
bin	-0.02	0
bin	0	1
bin	0.02	0
bin	0.04	0
bin	0.06	0
bin	0.08	0
bin	0.1	0
bin	0.12	0
bin	0.14	0
bin	0.16	0
bin	0.18	0
bin	0.2	0
bin	0.22	0
bin	0.24	0
bin	0.26	0
bin	0.28	0
bin	0.3	0
bin	0.32	0
bin	0.34	0
bin	0.36	0
bin	0.38	0
bin	0.4	0
bin	0.42	0
bin	0.44	0
bin	0.46	0
bin	0.48	0
bin	0.5	0
scalar CrosstalkShowcaseOneScalarRadioMediumModule.host1.wlan[0].radio radioMode:count 42
attr interpolationmode sample-hold
attr recordingmode count
attr source radioModeChanged
attr title "Radio mode, count"
scalar CrosstalkShowcaseOneScalarRadioMediumModule.host1.wlan[0].radio receptionState:count 104
attr interpolationmode sample-hold
attr recordingmode count
attr source receptionStateChanged
attr title "Radio reception state, count"
scalar CrosstalkShowcaseOneScalarRadioMediumModule.host1.wlan[0].radio transmissionState:count 78
attr interpolationmode sample-hold
attr recordingmode count
attr source transmissionStateChanged
attr title "Radio transmission state, count"
statistic CrosstalkShowcaseOneScalarRadioMediumModule.host1.wlan[0].radio minSnir:histogram
field count 27
field mean 6587.2939825107
field stddev 2035.356225967
field min 3763.8072331946
field max 8068.3610396035
field sum 177856.93752779
field sqrsum 1279305483.4557
attr recordingmode histogram
attr source minimumSnir(packetSentToUpper)
attr title "Min SNIR"
bin	-inf	0
bin	2600	0
bin	2700	0
bin	2800	0
bin	2900	0
bin	3000	0
bin	3100	0
bin	3200	0
bin	3300	0
bin	3400	0
bin	3500	0
bin	3600	0
bin	3700	9
bin	3800	0
bin	3900	0
bin	4000	0
bin	4100	0
bin	4200	0
bin	4300	0
bin	4400	0
bin	4500	0
bin	4600	0
bin	4700	0
bin	4800	0
bin	4900	0
bin	5000	0
bin	5100	0
bin	5200	0
bin	5300	0
bin	5400	0
bin	5500	0
bin	5600	0
bin	5700	0
bin	5800	0
bin	5900	0
bin	6000	0
bin	6100	0
bin	6200	0
bin	6300	0
bin	6400	0
bin	6500	0
bin	6600	0
bin	6700	0
bin	6800	0
bin	6900	0
bin	7000	0
bin	7100	0
bin	7200	0
bin	7300	0
bin	7400	0
bin	7500	0
bin	7600	0
bin	7700	0
bin	7800	0
bin	7900	9
bin	8000	9
bin	8100	0
bin	8200	0
bin	8300	0
bin	8400	0
bin	8500	0
bin	8600	0
bin	8700	0
bin	8800	0
bin	8900	0
bin	9000	0
bin	9100	0
bin	9200	0
statistic CrosstalkShowcaseOneScalarRadioMediumModule.host1.wlan[0].radio packetErrorRate:histogram
field count 27
field mean 0
field stddev 0
field min 0
field max 0
field sum 0
field sqrsum 0
attr recordingmode histogram
attr source packetErrorRate(packetSentToUpper)
attr title "Packet error rate"
bin	-inf	0
bin	-0.5	0
bin	-0.48	0
bin	-0.46	0
bin	-0.44	0
bin	-0.42	0
bin	-0.4	0
bin	-0.38	0
bin	-0.36	0
bin	-0.34	0
bin	-0.32	0
bin	-0.3	0
bin	-0.28	0
bin	-0.26	0
bin	-0.24	0
bin	-0.22	0
bin	-0.2	0
bin	-0.18	0
bin	-0.16	0
bin	-0.14	0
bin	-0.12	0
bin	-0.1	0
bin	-0.08	0
bin	-0.06	0
bin	-0.04	0
bin	-0.02	0
bin	0	27
bin	0.02	0
bin	0.04	0
bin	0.06	0
bin	0.08	0
bin	0.1	0
bin	0.12	0
bin	0.14	0
bin	0.16	0
bin	0.18	0
bin	0.2	0
bin	0.22	0
bin	0.24	0
bin	0.26	0
bin	0.28	0
bin	0.3	0
bin	0.32	0
bin	0.34	0
bin	0.36	0
bin	0.38	0
bin	0.4	0
bin	0.42	0
bin	0.44	0
bin	0.46	0
bin	0.48	0
bin	0.5	0
statistic CrosstalkShowcaseOneScalarRadioMediumModule.host1.wlan[0].radio bitErrorRate:histogram
field count 0
field mean -nan
field stddev nan
field min nan
field max nan
field sum 0
field sqrsum 0
attr recordingmode histogram
attr source bitErrorRate(packetSentToUpper)
attr title "Bit error rate"
bin	-inf	0
bin	0	0
bin	1	0
statistic CrosstalkShowcaseOneScalarRadioMediumModule.host1.wlan[0].radio symbolErrorRate:histogram
field count 0
field mean -nan
field stddev nan
field min nan
field max nan
field sum 0
field sqrsum 0
attr recordingmode histogram
attr source symbolErrorRate(packetSentToUpper)
attr title "Symbol error rate"
bin	-inf	0
bin	0	0
bin	1	0
scalar CrosstalkShowcaseOneScalarRadioMediumModule.host1.wlan[0] packetDropInterfaceDown:count 0
attr interpolationmode none
attr recordingmode count
attr source packetDropReasonIsInterfaceDown(packetDropped)
attr title "packet drops: interface down, count"
scalar CrosstalkShowcaseOneScalarRadioMediumModule.host1.wlan[0] packetDropInterfaceDown:sum(packetBytes) 0
attr interpolationmode none
attr recordingmode sum(packetBytes)
attr source packetDropReasonIsInterfaceDown(packetDropped)
attr title "packet drops: interface down, sum(packetBytes)"
scalar CrosstalkShowcaseOneScalarRadioMediumModule.host1.wlan[0] packetDropNoCarrier:count 0
attr interpolationmode none
attr recordingmode count
attr source packetDropReasonIsNoCarrier(packetDropped)
attr title "packet drops: no carrier, count"
scalar CrosstalkShowcaseOneScalarRadioMediumModule.host1.wlan[0] packetDropNoCarrier:sum(packetBytes) 0
attr interpolationmode none
attr recordingmode sum(packetBytes)
attr source packetDropReasonIsNoCarrier(packetDropped)
attr title "packet drops: no carrier, sum(packetBytes)"
scalar CrosstalkShowcaseOneScalarRadioMediumModule.host1.ipv4.ip packetDropAddressResolutionFailed:count 0
attr interpolationmode none
attr recordingmode count
attr source packetDropReasonIsAddressResolutionFailed(packetDropped)
attr title "packet drop: address resolution failed, count"
scalar CrosstalkShowcaseOneScalarRadioMediumModule.host1.ipv4.ip packetDropAddressResolutionFailed:sum(packetBytes) 0
attr interpolationmode none
attr recordingmode sum(packetBytes)
attr source packetDropReasonIsAddressResolutionFailed(packetDropped)
attr title "packet drop: address resolution failed, sum(packetBytes)"
scalar CrosstalkShowcaseOneScalarRadioMediumModule.host1.ipv4.ip packetDropHopLimitReached:count 0
attr interpolationmode none
attr recordingmode count
attr source packetDropReasonIsHopLimitReached(packetDropped)
attr title "packet drop: hop limit reached, count"
scalar CrosstalkShowcaseOneScalarRadioMediumModule.host1.ipv4.ip packetDropHopLimitReached:sum(packetBytes) 0
attr interpolationmode none
attr recordingmode sum(packetBytes)
attr source packetDropReasonIsHopLimitReached(packetDropped)
attr title "packet drop: hop limit reached, sum(packetBytes)"
scalar CrosstalkShowcaseOneScalarRadioMediumModule.host1.ipv4.ip packetDropForwardingDisabled:count 0
attr interpolationmode none
attr recordingmode count
attr source packetDropReasonIsForwardingDisabled(packetDropped)
attr title "packet drop: forwarding disabled, count"
scalar CrosstalkShowcaseOneScalarRadioMediumModule.host1.ipv4.ip packetDropForwardingDisabled:sum(packetBytes) 0
attr interpolationmode none
attr recordingmode sum(packetBytes)
attr source packetDropReasonIsForwardingDisabled(packetDropped)
attr title "packet drop: forwarding disabled, sum(packetBytes)"
scalar CrosstalkShowcaseOneScalarRadioMediumModule.host1.ipv4.ip packetDropNoInterfaceFound:count 0
attr interpolationmode none
attr recordingmode count
attr source packetDropReasonIsNoInterfaceFound(packetDropped)
attr title "packet drop: no interface found, count"
scalar CrosstalkShowcaseOneScalarRadioMediumModule.host1.ipv4.ip packetDropNoInterfaceFound:sum(packetBytes) 0
attr interpolationmode none
attr recordingmode sum(packetBytes)
attr source packetDropReasonIsNoInterfaceFound(packetDropped)
attr title "packet drop: no interface found, sum(packetBytes)"
scalar CrosstalkShowcaseOneScalarRadioMediumModule.host1.ipv4.ip packetDropNoRouteFound:count 0
attr interpolationmode none
attr recordingmode count
attr source packetDropReasonIsNoRouteFound(packetDropped)
attr title "packet drop: no route found, count"
scalar CrosstalkShowcaseOneScalarRadioMediumModule.host1.ipv4.ip packetDropNoRouteFound:sum(packetBytes) 0
attr interpolationmode none
attr recordingmode sum(packetBytes)
attr source packetDropReasonIsNoRouteFound(packetDropped)
attr title "packet drop: no route found, sum(packetBytes)"
scalar CrosstalkShowcaseOneScalarRadioMediumModule.host1.ipv4.ip packetDropUndefined:count 0
attr interpolationmode none
attr recordingmode count
attr source packetDropReasonIsUndefined(packetDropped)
attr title "packet drop: undefined, count"
scalar CrosstalkShowcaseOneScalarRadioMediumModule.host1.ipv4.ip packetDropUndefined:sum(packetBytes) 0
attr interpolationmode none
attr recordingmode sum(packetBytes)
attr source packetDropReasonIsUndefined(packetDropped)
attr title "packet drop: undefined, sum(packetBytes)"
scalar CrosstalkShowcaseOneScalarRadioMediumModule.host1.udp packetReceived:count 0
attr interpolationmode none
attr recordingmode count
attr source packetReceived
attr title "packets received, count"
scalar CrosstalkShowcaseOneScalarRadioMediumModule.host1.udp packetReceived:sum(packetBytes) 0
attr interpolationmode none
attr recordingmode sum(packetBytes)
attr source packetReceived
attr title "packets received, sum(packetBytes)"
scalar CrosstalkShowcaseOneScalarRadioMediumModule.host1.udp packetSent:count 10
attr interpolationmode none
attr recordingmode count
attr source packetSent
attr title "packets sent, count"
scalar CrosstalkShowcaseOneScalarRadioMediumModule.host1.udp packetSent:sum(packetBytes) 10080
attr interpolationmode none
attr recordingmode sum(packetBytes)
attr source packetSent
attr title "packets sent, sum(packetBytes)"
scalar CrosstalkShowcaseOneScalarRadioMediumModule.host1.udp passedUpPk:count 0
attr interpolationmode none
attr recordingmode count
attr source packetSentToUpper
attr title "packets passed up, count"
scalar CrosstalkShowcaseOneScalarRadioMediumModule.host1.udp droppedPkWrongPort:count 0
attr interpolationmode none
attr recordingmode count
attr source packetDropReasonIsNoPortFound(packetDropped)
attr title "packets dropped (wrong port), count"
scalar CrosstalkShowcaseOneScalarRadioMediumModule.host1.udp droppedPkBadChecksum:count 0
attr interpolationmode none
attr recordingmode count
attr source packetDropReasonIsIncorrectlyReceived(packetDropped)
attr title "packets dropped (checksum error), count"
scalar CrosstalkShowcaseOneScalarRadioMediumModule.host1.app[0] "packets sent" 10
scalar CrosstalkShowcaseOneScalarRadioMediumModule.host1.app[0] "packets received" 0
scalar CrosstalkShowcaseOneScalarRadioMediumModule.host1.app[0] packetReceived:count 0
attr interpolationmode none
attr recordingmode count
attr source packetReceived
attr title "packets received, count"
scalar CrosstalkShowcaseOneScalarRadioMediumModule.host1.app[0] packetReceived:sum(packetBytes) 0
attr interpolationmode none
attr recordingmode sum(packetBytes)
attr source packetReceived
attr title "packets received, sum(packetBytes)"
statistic CrosstalkShowcaseOneScalarRadioMediumModule.host1.app[0] rcvdPkLifetime:stats
field count 0
field mean -nan
field stddev nan
field min nan
field max nan
field sum 0
field sqrsum 0
attr interpolationmode none
attr recordingmode stats
attr source dataAge(packetReceived)
attr title "received packet lifetime"
attr unit s
scalar CrosstalkShowcaseOneScalarRadioMediumModule.host1.app[0] packetSent:count 10
attr interpolationmode none
attr recordingmode count
attr source packetSent
attr title "packets sent, count"
scalar CrosstalkShowcaseOneScalarRadioMediumModule.host1.app[0] packetSent:sum(packetBytes) 10000
attr interpolationmode none
attr recordingmode sum(packetBytes)
attr source packetSent
attr title "packets sent, sum(packetBytes)"
scalar CrosstalkShowcaseOneScalarRadioMediumModule.host2.lo[0].lo rcvdPkFromHl:count 0
attr interpolationmode none
attr recordingmode count
attr source packetReceivedFromUpper
attr title "packets received from higher layer, count"
scalar CrosstalkShowcaseOneScalarRadioMediumModule.host2.lo[0].lo rcvdPkFromHl:sum(packetBytes) 0
attr interpolationmode none
attr recordingmode sum(packetBytes)
attr source packetReceivedFromUpper
attr title "packets received from higher layer, sum(packetBytes)"
scalar CrosstalkShowcaseOneScalarRadioMediumModule.host2.lo[0].lo passedUpPk:count 0
attr interpolationmode none
attr recordingmode count
attr source packetSentToUpper
attr title "packets passed to higher layer, count"
scalar CrosstalkShowcaseOneScalarRadioMediumModule.host2.lo[0].lo passedUpPk:sum(packetBytes) 0
attr interpolationmode none
attr recordingmode sum(packetBytes)
attr source packetSentToUpper
attr title "packets passed to higher layer, sum(packetBytes)"
scalar CrosstalkShowcaseOneScalarRadioMediumModule.host2.lo[0] packetDropInterfaceDown:count 0
attr interpolationmode none
attr recordingmode count
attr source packetDropReasonIsInterfaceDown(packetDropped)
attr title "packet drops: interface down, count"
scalar CrosstalkShowcaseOneScalarRadioMediumModule.host2.lo[0] packetDropInterfaceDown:sum(packetBytes) 0
attr interpolationmode none
attr recordingmode sum(packetBytes)
attr source packetDropReasonIsInterfaceDown(packetDropped)
attr title "packet drops: interface down, sum(packetBytes)"
scalar CrosstalkShowcaseOneScalarRadioMediumModule.host2.lo[0] packetDropNoCarrier:count 0
attr interpolationmode none
attr recordingmode count
attr source packetDropReasonIsNoCarrier(packetDropped)
attr title "packet drops: no carrier, count"
scalar CrosstalkShowcaseOneScalarRadioMediumModule.host2.lo[0] packetDropNoCarrier:sum(packetBytes) 0
attr interpolationmode none
attr recordingmode sum(packetBytes)
attr source packetDropReasonIsNoCarrier(packetDropped)
attr title "packet drops: no carrier, sum(packetBytes)"
scalar CrosstalkShowcaseOneScalarRadioMediumModule.host2.wlan[0].mac.dcf.channelAccess.pendingQueue queueLength:last nan
attr autoWarmupFilter false
attr interpolationmode sample-hold
attr recordingmode last
attr source "warmup(atomic(constant0(packetPushEnded) + count(packetPushStarted) - count(packetPulled) - count(packetRemoved) - count(packetDropped)))"
attr title "queue length, last"
attr unit pk
scalar CrosstalkShowcaseOneScalarRadioMediumModule.host2.wlan[0].mac.dcf.channelAccess.pendingQueue queueLength:max nan
attr autoWarmupFilter false
attr interpolationmode sample-hold
attr recordingmode max
attr source "warmup(atomic(constant0(packetPushEnded) + count(packetPushStarted) - count(packetPulled) - count(packetRemoved) - count(packetDropped)))"
attr title "queue length, max"
attr unit pk
scalar CrosstalkShowcaseOneScalarRadioMediumModule.host2.wlan[0].mac.dcf.channelAccess.pendingQueue queueLength:timeavg -nan
attr autoWarmupFilter false
attr interpolationmode sample-hold
attr recordingmode timeavg
attr source "warmup(atomic(constant0(packetPushEnded) + count(packetPushStarted) - count(packetPulled) - count(packetRemoved) - count(packetDropped)))"
attr title "queue length, timeavg"
attr unit pk
scalar CrosstalkShowcaseOneScalarRadioMediumModule.host2.wlan[0].mac.dcf.channelAccess.pendingQueue queueBitLength:last nan
attr autoWarmupFilter false
attr interpolationmode sample-hold
attr recordingmode last
attr source "warmup(atomic(constant0(packetPushEnded) + sum(packetLength(packetPushStarted)) - sum(packetLength(packetPulled)) - sum(packetLength(packetRemoved)) - sum(packetLength(packetDropped))))"
attr title "queue bit length, last"
attr unit b
scalar CrosstalkShowcaseOneScalarRadioMediumModule.host2.wlan[0].mac.dcf.channelAccess.pendingQueue queueBitLength:max nan
attr autoWarmupFilter false
attr interpolationmode sample-hold
attr recordingmode max
attr source "warmup(atomic(constant0(packetPushEnded) + sum(packetLength(packetPushStarted)) - sum(packetLength(packetPulled)) - sum(packetLength(packetRemoved)) - sum(packetLength(packetDropped))))"
attr title "queue bit length, max"
attr unit b
scalar CrosstalkShowcaseOneScalarRadioMediumModule.host2.wlan[0].mac.dcf.channelAccess.pendingQueue queueBitLength:timeavg -nan
attr autoWarmupFilter false
attr interpolationmode sample-hold
attr recordingmode timeavg
attr source "warmup(atomic(constant0(packetPushEnded) + sum(packetLength(packetPushStarted)) - sum(packetLength(packetPulled)) - sum(packetLength(packetRemoved)) - sum(packetLength(packetDropped))))"
attr title "queue bit length, timeavg"
attr unit b
statistic CrosstalkShowcaseOneScalarRadioMediumModule.host2.wlan[0].mac.dcf.channelAccess.pendingQueue queueingTime:histogram
field count 0
field mean -nan
field stddev nan
field min nan
field max nan
field sum 0
field sqrsum 0
attr interpolationmode none
attr recordingmode histogram
attr source queueingTime(packetPulled)
attr title "queueing times"
attr unit s
bin	-inf	0
bin	0	0
bin	1	0
scalar CrosstalkShowcaseOneScalarRadioMediumModule.host2.wlan[0].mac.dcf.channelAccess.pendingQueue outgoingPackets:count 0
attr recordingmode count
attr source packetPulled
attr title "outgoing packets, count"
attr unit pk
scalar CrosstalkShowcaseOneScalarRadioMediumModule.host2.wlan[0].mac.dcf.channelAccess.pendingQueue outgoingPacketLengths:sum 0
attr interpolationmode none
attr recordingmode sum
attr source packetLength(packetPulled)
attr title "outgoing packet lengths, sum"
attr unit b
statistic CrosstalkShowcaseOneScalarRadioMediumModule.host2.wlan[0].mac.dcf.channelAccess.pendingQueue outgoingPacketLengths:histogram
field count 0
field mean -nan
field stddev nan
field min nan
field max nan
field sum 0
field sqrsum 0
attr interpolationmode none
attr recordingmode histogram
attr source packetLength(packetPulled)
attr title "outgoing packet lengths"
attr unit b
bin	-inf	0
bin	0	0
bin	1	0
statistic CrosstalkShowcaseOneScalarRadioMediumModule.host2.wlan[0].mac.dcf.channelAccess.pendingQueue flowQueueingTime:histogram
field count 0
field mean -nan
field stddev nan
field min nan
field max nan
field sum 0
field sqrsum 0
attr interpolationmode none
attr recordingmode histogram
attr source queueingTime(demuxFlow(packetPulled))
attr title "flow queueing times"
attr unit s
bin	-inf	0
bin	0	0
bin	1	0
scalar CrosstalkShowcaseOneScalarRadioMediumModule.host2.wlan[0].mac.dcf.channelAccess.pendingQueue incomingPackets:count 0
attr recordingmode count
attr source packetPushStarted
attr title "incoming packets, count"
attr unit pk
scalar CrosstalkShowcaseOneScalarRadioMediumModule.host2.wlan[0].mac.dcf.channelAccess.pendingQueue incomingPacketLengths:sum 0
attr interpolationmode none
attr recordingmode sum
attr source packetLength(packetPushStarted)
attr title "incoming packet lengths, sum"
attr unit b
statistic CrosstalkShowcaseOneScalarRadioMediumModule.host2.wlan[0].mac.dcf.channelAccess.pendingQueue incomingPacketLengths:histogram
field count 0
field mean -nan
field stddev nan
field min nan
field max nan
field sum 0
field sqrsum 0
attr interpolationmode none
attr recordingmode histogram
attr source packetLength(packetPushStarted)
attr title "incoming packet lengths"
attr unit b
bin	-inf	0
bin	0	0
bin	1	0
scalar CrosstalkShowcaseOneScalarRadioMediumModule.host2.wlan[0].mac.dcf.channelAccess.pendingQueue droppedPacketsQueueOverflow:count 0
attr interpolationmode none
attr recordingmode count
attr source packetDropReasonIsQueueOverflow(packetDropped)
attr title "dropped packets: queue overflow, count"
attr unit pk
scalar CrosstalkShowcaseOneScalarRadioMediumModule.host2.wlan[0].mac.dcf.channelAccess.pendingQueue droppedPacketLengthsQueueOverflow:sum 0
attr interpolationmode none
attr recordingmode sum
attr source packetLength(packetDropReasonIsQueueOverflow(packetDropped))
attr title "dropped packet lengths: queue overflow, sum"
attr unit b
statistic CrosstalkShowcaseOneScalarRadioMediumModule.host2.wlan[0].mac.dcf.channelAccess.inProgressFrames queueingTime:histogram
field count 0
field mean -nan
field stddev nan
field min nan
field max nan
field sum 0
field sqrsum 0
attr interpolationmode none
attr recordingmode histogram
attr source queueingTime(packetDequeued)
attr title "queueing times"
bin	-inf	0
bin	0	0
bin	1	0
scalar CrosstalkShowcaseOneScalarRadioMediumModule.host2.wlan[0].mac.dcf.channelAccess.inProgressFrames queueLength:max 0
attr autoWarmupFilter false
attr interpolationmode sample-hold
attr recordingmode max
attr source "warmup(count(packetEnqueued) - count(packetDequeued))"
attr title "queue length, max"
scalar CrosstalkShowcaseOneScalarRadioMediumModule.host2.wlan[0].mac.dcf.channelAccess.inProgressFrames queueLength:timeavg 0
attr autoWarmupFilter false
attr interpolationmode sample-hold
attr recordingmode timeavg
attr source "warmup(count(packetEnqueued) - count(packetDequeued))"
attr title "queue length, timeavg"
scalar CrosstalkShowcaseOneScalarRadioMediumModule.host2.wlan[0].mac.dcf.channelAccess.contention channelAccessGranted:count 0
attr recordingmode count
attr title "channel access granted, count"
scalar CrosstalkShowcaseOneScalarRadioMediumModule.host2.wlan[0].mac.dcf.channelAccess.contention stateChanged:count 206
attr enum IDLE,DEFER,IFS_AND_BACKOFF
attr interpolationmode none
attr recordingmode count
attr title "contention state changed, count"
attr type enum
scalar CrosstalkShowcaseOneScalarRadioMediumModule.host2.wlan[0].mac.dcf.channelAccess channelOwnershipChanged:count 0
attr interpolationmode sample-hold
attr recordingmode count
attr title "channel ownership, count"
scalar CrosstalkShowcaseOneScalarRadioMediumModule.host2.wlan[0].mac.dcf.originatorMacDataService packetAggregated:count 0
attr recordingmode count
attr title "packets aggregated, count"
scalar CrosstalkShowcaseOneScalarRadioMediumModule.host2.wlan[0].mac.dcf.originatorMacDataService packetFragmented:count 0
attr recordingmode count
attr title "packets fragmented, count"
scalar CrosstalkShowcaseOneScalarRadioMediumModule.host2.wlan[0].mac.dcf.recipientMacDataService packetDeaggregated:count 0
attr recordingmode count
attr title "packets deaggregated, count"
scalar CrosstalkShowcaseOneScalarRadioMediumModule.host2.wlan[0].mac.dcf.recipientMacDataService packetDefragmented:count 9
attr recordingmode count
attr title "packets defragmented, count"
scalar CrosstalkShowcaseOneScalarRadioMediumModule.host2.wlan[0].mac.dcf.recipientMacDataService packetDropDuplicateDetected:count 0
attr interpolationmode none
attr recordingmode count
attr source packetDropReasonIsDuplicateDetected(packetDropped)
attr title "packet drops: duplicate detected, count"
scalar CrosstalkShowcaseOneScalarRadioMediumModule.host2.wlan[0].mac.dcf.recipientMacDataService packetDropDuplicateDetected:sum(packetBytes) 0
attr interpolationmode none
attr recordingmode sum(packetBytes)
attr source packetDropReasonIsDuplicateDetected(packetDropped)
attr title "packet drops: duplicate detected, sum(packetBytes)"
scalar CrosstalkShowcaseOneScalarRadioMediumModule.host2.wlan[0].mac.dcf.recoveryProcedure retryLimitReached:count 0
attr recordingmode count
attr title "retry limit reached, count"
scalar CrosstalkShowcaseOneScalarRadioMediumModule.host2.wlan[0].mac.dcf frameSequenceFinished:count 0
attr recordingmode count
attr title "finished frame sequences, count"
statistic CrosstalkShowcaseOneScalarRadioMediumModule.host2.wlan[0].mac.dcf frameSequenceDuration:histogram
field count 0
field mean -nan
field stddev nan
field min nan
field max nan
field sum 0
field sqrsum 0
attr recordingmode histogram
attr source frameSequenceDuration(frameSequenceFinished)
attr title "frame sequence durations"
bin	-inf	0
bin	0	0
bin	1	0
statistic CrosstalkShowcaseOneScalarRadioMediumModule.host2.wlan[0].mac.dcf frameSequenceNumPackets:histogram
field count 0
field mean -nan
field stddev nan
field min nan
field max nan
field sum 0
field sqrsum 0
attr recordingmode histogram
attr source frameSequenceNumPackets(frameSequenceFinished)
attr title "frame sequences: number of packets"
bin	-inf	0
bin	0	0
bin	1	0
scalar CrosstalkShowcaseOneScalarRadioMediumModule.host2.wlan[0].mac.dcf packetReceivedFromPeer:count 9
attr interpolationmode none
attr recordingmode count
attr title "packets received, count"
scalar CrosstalkShowcaseOneScalarRadioMediumModule.host2.wlan[0].mac.dcf packetReceivedFromPeer:sum(packetBytes) 9576
attr interpolationmode none
attr recordingmode sum(packetBytes)
attr title "packets received, sum(packetBytes)"
scalar CrosstalkShowcaseOneScalarRadioMediumModule.host2.wlan[0].mac.dcf packetReceivedFromPeerUnicast:count 9
attr interpolationmode none
attr recordingmode count
attr source ieee80211Unicast(packetReceivedFromPeer)
attr title "packets received: unicast, count"
scalar CrosstalkShowcaseOneScalarRadioMediumModule.host2.wlan[0].mac.dcf packetReceivedFromPeerUnicast:sum(packetBytes) 9576
attr interpolationmode none
attr recordingmode sum(packetBytes)
attr source ieee80211Unicast(packetReceivedFromPeer)
attr title "packets received: unicast, sum(packetBytes)"
scalar CrosstalkShowcaseOneScalarRadioMediumModule.host2.wlan[0].mac.dcf packetReceivedFromPeerMulticast:count 0
attr interpolationmode none
attr recordingmode count
attr source ieee80211Multicast(packetReceivedFromPeer)
attr title "packets received: multicast, count"
scalar CrosstalkShowcaseOneScalarRadioMediumModule.host2.wlan[0].mac.dcf packetReceivedFromPeerMulticast:sum(packetBytes) 0
attr interpolationmode none
attr recordingmode sum(packetBytes)
attr source ieee80211Multicast(packetReceivedFromPeer)
attr title "packets received: multicast, sum(packetBytes)"
scalar CrosstalkShowcaseOneScalarRadioMediumModule.host2.wlan[0].mac.dcf packetReceivedFromPeerBroadcast:count 0
attr interpolationmode none
attr recordingmode count
attr source ieee80211Broadcast(packetReceivedFromPeer)
attr title "packets received: broadcast, count"
scalar CrosstalkShowcaseOneScalarRadioMediumModule.host2.wlan[0].mac.dcf packetReceivedFromPeerBroadcast:sum(packetBytes) 0
attr interpolationmode none
attr recordingmode sum(packetBytes)
attr source ieee80211Broadcast(packetReceivedFromPeer)
attr title "packets received: broadcast, sum(packetBytes)"
scalar CrosstalkShowcaseOneScalarRadioMediumModule.host2.wlan[0].mac.dcf packetReceivedFromPeerWithRetry:count 9
attr interpolationmode none
attr recordingmode count
attr source ieee80211Retry(packetReceivedFromPeer)
attr title "packets received: with retry, count"
scalar CrosstalkShowcaseOneScalarRadioMediumModule.host2.wlan[0].mac.dcf packetReceivedFromPeerWithRetry:sum(packetBytes) 9576
attr interpolationmode none
attr recordingmode sum(packetBytes)
attr source ieee80211Retry(packetReceivedFromPeer)
attr title "packets received: with retry, sum(packetBytes)"
scalar CrosstalkShowcaseOneScalarRadioMediumModule.host2.wlan[0].mac.dcf packetReceivedFromPeerWithoutRetry:count 0
attr interpolationmode none
attr recordingmode count
attr source ieee80211NotRetry(packetReceivedFromPeer)
attr title "packets received: without retry, count"
scalar CrosstalkShowcaseOneScalarRadioMediumModule.host2.wlan[0].mac.dcf packetReceivedFromPeerWithoutRetry:sum(packetBytes) 0
attr interpolationmode none
attr recordingmode sum(packetBytes)
attr source ieee80211NotRetry(packetReceivedFromPeer)
attr title "packets received: without retry, sum(packetBytes)"
scalar CrosstalkShowcaseOneScalarRadioMediumModule.host2.wlan[0].mac.dcf packetSentToPeer:count 9
attr interpolationmode none
attr recordingmode count
attr title "packets sent, count"
scalar CrosstalkShowcaseOneScalarRadioMediumModule.host2.wlan[0].mac.dcf packetSentToPeer:sum(packetBytes) 126
attr interpolationmode none
attr recordingmode sum(packetBytes)
attr title "packets sent, sum(packetBytes)"
scalar CrosstalkShowcaseOneScalarRadioMediumModule.host2.wlan[0].mac.dcf packetSentToPeerUnicast:count 9
attr interpolationmode none
attr recordingmode count
attr source ieee80211Unicast(packetSentToPeer)
attr title "packets sent: unicast, count"
scalar CrosstalkShowcaseOneScalarRadioMediumModule.host2.wlan[0].mac.dcf packetSentToPeerUnicast:sum(packetBytes) 126
attr interpolationmode none
attr recordingmode sum(packetBytes)
attr source ieee80211Unicast(packetSentToPeer)
attr title "packets sent: unicast, sum(packetBytes)"
scalar CrosstalkShowcaseOneScalarRadioMediumModule.host2.wlan[0].mac.dcf packetSentToPeerMulticast:count 0
attr interpolationmode none
attr recordingmode count
attr source ieee80211Multicast(packetSentToPeer)
attr title "packets sent: multicast, count"
scalar CrosstalkShowcaseOneScalarRadioMediumModule.host2.wlan[0].mac.dcf packetSentToPeerMulticast:sum(packetBytes) 0
attr interpolationmode none
attr recordingmode sum(packetBytes)
attr source ieee80211Multicast(packetSentToPeer)
attr title "packets sent: multicast, sum(packetBytes)"
scalar CrosstalkShowcaseOneScalarRadioMediumModule.host2.wlan[0].mac.dcf packetSentToPeerBroadcast:count 0
attr interpolationmode none
attr recordingmode count
attr source ieee80211Broadcast(packetSentToPeer)
attr title "packets sent: broadcast , count"
scalar CrosstalkShowcaseOneScalarRadioMediumModule.host2.wlan[0].mac.dcf packetSentToPeerBroadcast:sum(packetBytes) 0
attr interpolationmode none
attr recordingmode sum(packetBytes)
attr source ieee80211Broadcast(packetSentToPeer)
attr title "packets sent: broadcast , sum(packetBytes)"
scalar CrosstalkShowcaseOneScalarRadioMediumModule.host2.wlan[0].mac.dcf packetSentToPeerWithRetry:count 0
attr interpolationmode none
attr recordingmode count
attr source ieee80211Retry(packetSentToPeer)
attr title "packets sent: with retry, count"
scalar CrosstalkShowcaseOneScalarRadioMediumModule.host2.wlan[0].mac.dcf packetSentToPeerWithRetry:sum(packetBytes) 0
attr interpolationmode none
attr recordingmode sum(packetBytes)
attr source ieee80211Retry(packetSentToPeer)
attr title "packets sent: with retry, sum(packetBytes)"
scalar CrosstalkShowcaseOneScalarRadioMediumModule.host2.wlan[0].mac.dcf packetSentToPeerWithoutRetry:count 9
attr interpolationmode none
attr recordingmode count
attr source ieee80211NotRetry(packetSentToPeer)
attr title "packets sent: without retry, count"
scalar CrosstalkShowcaseOneScalarRadioMediumModule.host2.wlan[0].mac.dcf packetSentToPeerWithoutRetry:sum(packetBytes) 126
attr interpolationmode none
attr recordingmode sum(packetBytes)
attr source ieee80211NotRetry(packetSentToPeer)
attr title "packets sent: without retry, sum(packetBytes)"
scalar CrosstalkShowcaseOneScalarRadioMediumModule.host2.wlan[0].mac.dcf packetDrop:count 18
attr interpolationmode none
attr recordingmode count
attr source packetDropped
attr title "packet drops, count"
scalar CrosstalkShowcaseOneScalarRadioMediumModule.host2.wlan[0].mac.dcf packetDrop:sum(packetBytes) 9702
attr interpolationmode none
attr recordingmode sum(packetBytes)
attr source packetDropped
attr title "packet drops, sum(packetBytes)"
scalar CrosstalkShowcaseOneScalarRadioMediumModule.host2.wlan[0].mac.dcf packetDropNotAddressedToUs:count 18
attr interpolationmode none
attr recordingmode count
attr source packetDropReasonIsNotAddressedToUs(packetDropped)
attr title "packet drops: not addressed to us, count"
scalar CrosstalkShowcaseOneScalarRadioMediumModule.host2.wlan[0].mac.dcf packetDropNotAddressedToUs:sum(packetBytes) 9702
attr interpolationmode none
attr recordingmode sum(packetBytes)
attr source packetDropReasonIsNotAddressedToUs(packetDropped)
attr title "packet drops: not addressed to us, sum(packetBytes)"
scalar CrosstalkShowcaseOneScalarRadioMediumModule.host2.wlan[0].mac.dcf packetDropQueueOverflow:count 0
attr interpolationmode none
attr recordingmode count
attr source packetDropReasonIsQueueOverflow(packetDropped)
attr title "packet drops: queue overflow, count"
scalar CrosstalkShowcaseOneScalarRadioMediumModule.host2.wlan[0].mac.dcf packetDropQueueOverflow:sum(packetBytes) 0
attr interpolationmode none
attr recordingmode sum(packetBytes)
attr source packetDropReasonIsQueueOverflow(packetDropped)
attr title "packet drops: queue overflow, sum(packetBytes)"
scalar CrosstalkShowcaseOneScalarRadioMediumModule.host2.wlan[0].mac.dcf packetDropRetryLimitReached:count 0
attr interpolationmode none
attr recordingmode count
attr source packetDropReasonIsRetryLimitReached(packetDropped)
attr title "packet drops: retry limit reached, count"
scalar CrosstalkShowcaseOneScalarRadioMediumModule.host2.wlan[0].mac.dcf packetDropRetryLimitReached:sum(packetBytes) 0
attr interpolationmode none
attr recordingmode sum(packetBytes)
attr source packetDropReasonIsRetryLimitReached(packetDropped)
attr title "packet drops: retry limit reached, sum(packetBytes)"
scalar CrosstalkShowcaseOneScalarRadioMediumModule.host2.wlan[0].mac.dcf linkBroken:count 0
attr interpolationmode none
attr recordingmode count
attr title "link breaks, count"
scalar CrosstalkShowcaseOneScalarRadioMediumModule.host2.wlan[0].mac packetReceivedFromLower:count 37
attr interpolationmode none
attr recordingmode count
attr title "packets received from lower layer, count"
scalar CrosstalkShowcaseOneScalarRadioMediumModule.host2.wlan[0].mac packetReceivedFromLower:sum(packetBytes) 29918
attr interpolationmode none
attr recordingmode sum(packetBytes)
attr title "packets received from lower layer, sum(packetBytes)"
scalar CrosstalkShowcaseOneScalarRadioMediumModule.host2.wlan[0].mac packetSentToLower:count 9
attr interpolationmode none
attr recordingmode count
attr title "packets sent to lower layer, count"
scalar CrosstalkShowcaseOneScalarRadioMediumModule.host2.wlan[0].mac packetSentToLower:sum(packetBytes) 126
attr interpolationmode none
attr recordingmode sum(packetBytes)
attr title "packets sent to lower layer, sum(packetBytes)"
scalar CrosstalkShowcaseOneScalarRadioMediumModule.host2.wlan[0].mac packetReceivedFromUpper:count 0
attr interpolationmode none
attr recordingmode count
attr title "packets received from upper layer, count"
scalar CrosstalkShowcaseOneScalarRadioMediumModule.host2.wlan[0].mac packetReceivedFromUpper:sum(packetBytes) 0
attr interpolationmode none
attr recordingmode sum(packetBytes)
attr title "packets received from upper layer, sum(packetBytes)"
scalar CrosstalkShowcaseOneScalarRadioMediumModule.host2.wlan[0].mac packetSentToUpper:count 9
attr interpolationmode none
attr recordingmode count
attr title "packets sent to upper layer, count"
scalar CrosstalkShowcaseOneScalarRadioMediumModule.host2.wlan[0].mac packetSentToUpper:sum(packetBytes) 9324
attr interpolationmode none
attr recordingmode sum(packetBytes)
attr title "packets sent to upper layer, sum(packetBytes)"
scalar CrosstalkShowcaseOneScalarRadioMediumModule.host2.wlan[0].mac packetDrop:count 28
attr interpolationmode none
attr recordingmode count
attr source packetDropped
attr title "packet drops, count"
scalar CrosstalkShowcaseOneScalarRadioMediumModule.host2.wlan[0].mac packetDrop:sum(packetBytes) 20342
attr interpolationmode none
attr recordingmode sum(packetBytes)
attr source packetDropped
attr title "packet drops, sum(packetBytes)"
scalar CrosstalkShowcaseOneScalarRadioMediumModule.host2.wlan[0].mac packetDropIncorrectlyReceived:count 10
attr interpolationmode none
attr recordingmode count
attr source packetDropReasonIsIncorrectlyReceived(packetDropped)
attr title "packet drops: incorrectly received, count"
scalar CrosstalkShowcaseOneScalarRadioMediumModule.host2.wlan[0].mac packetDropIncorrectlyReceived:sum(packetBytes) 10640
attr interpolationmode none
attr recordingmode sum(packetBytes)
attr source packetDropReasonIsIncorrectlyReceived(packetDropped)
attr title "packet drops: incorrectly received, sum(packetBytes)"
scalar CrosstalkShowcaseOneScalarRadioMediumModule.host2.wlan[0].mac packetDropNotAddressedToUs:count 18
attr interpolationmode none
attr recordingmode count
attr source packetDropReasonIsNotAddressedToUs(packetDropped)
attr title "packet drops: not addressed to us, count"
scalar CrosstalkShowcaseOneScalarRadioMediumModule.host2.wlan[0].mac packetDropNotAddressedToUs:sum(packetBytes) 9702
attr interpolationmode none
attr recordingmode sum(packetBytes)
attr source packetDropReasonIsNotAddressedToUs(packetDropped)
attr title "packet drops: not addressed to us, sum(packetBytes)"
scalar CrosstalkShowcaseOneScalarRadioMediumModule.host2.wlan[0].mac packetDropQueueOverflow:count 0
attr interpolationmode none
attr recordingmode count
attr source packetDropReasonIsQueueOverflow(packetDropped)
attr title "packet drops: queue overflow, count"
scalar CrosstalkShowcaseOneScalarRadioMediumModule.host2.wlan[0].mac packetDropQueueOverflow:sum(packetBytes) 0
attr interpolationmode none
attr recordingmode sum(packetBytes)
attr source packetDropReasonIsQueueOverflow(packetDropped)
attr title "packet drops: queue overflow, sum(packetBytes)"
scalar CrosstalkShowcaseOneScalarRadioMediumModule.host2.wlan[0].mac packetDropRetryLimitReached:count 0
attr interpolationmode none
attr recordingmode count
attr source packetDropReasonIsRetryLimitReached(packetDropped)
attr title "packet drops: retry limit reached, count"
scalar CrosstalkShowcaseOneScalarRadioMediumModule.host2.wlan[0].mac packetDropRetryLimitReached:sum(packetBytes) 0
attr interpolationmode none
attr recordingmode sum(packetBytes)
attr source packetDropReasonIsRetryLimitReached(packetDropped)
attr title "packet drops: retry limit reached, sum(packetBytes)"
scalar CrosstalkShowcaseOneScalarRadioMediumModule.host2.wlan[0].mac packetDropDuplicateDetected:count 0
attr interpolationmode none
attr recordingmode count
attr source packetDropReasonIsDuplicateDetected(packetDropped)
attr title "packet drops: duplicate detected, count"
scalar CrosstalkShowcaseOneScalarRadioMediumModule.host2.wlan[0].mac packetDropDuplicateDetected:sum(packetBytes) 0
attr interpolationmode none
attr recordingmode sum(packetBytes)
attr source packetDropReasonIsDuplicateDetected(packetDropped)
attr title "packet drops: duplicate detected, sum(packetBytes)"
scalar CrosstalkShowcaseOneScalarRadioMediumModule.host2.wlan[0].mac packetDropOther:count 0
attr interpolationmode none
attr recordingmode count
attr source packetDropReasonIsOther(packetDropped)
attr title "packet drops: other, count"
scalar CrosstalkShowcaseOneScalarRadioMediumModule.host2.wlan[0].mac packetDropOther:sum(packetBytes) 0
attr interpolationmode none
attr recordingmode sum(packetBytes)
attr source packetDropReasonIsOther(packetDropped)
attr title "packet drops: other, sum(packetBytes)"
scalar CrosstalkShowcaseOneScalarRadioMediumModule.host2.wlan[0].mac linkBroken:count 0
attr interpolationmode none
attr recordingmode count
attr title "link breaks, count"
statistic CrosstalkShowcaseOneScalarRadioMediumModule.host2.wlan[0].radio radioChannel:histogram
field count 1
field mean 0
field stddev nan
field min 0
field max 0
field sum 0
field sqrsum 0
attr interpolationmode sample-hold
attr recordingmode histogram
attr source radioChannelChanged
attr title "Radio channel"
bin	-inf	0
bin	-0.5	0
bin	-0.48	0
bin	-0.46	0
bin	-0.44	0
bin	-0.42	0
bin	-0.4	0
bin	-0.38	0
bin	-0.36	0
bin	-0.34	0
bin	-0.32	0
bin	-0.3	0
bin	-0.28	0
bin	-0.26	0
bin	-0.24	0
bin	-0.22	0
bin	-0.2	0
bin	-0.18	0
bin	-0.16	0
bin	-0.14	0
bin	-0.12	0
bin	-0.1	0
bin	-0.08	0
bin	-0.06	0
bin	-0.04	0
bin	-0.02	0
bin	0	1
bin	0.02	0
bin	0.04	0
bin	0.06	0
bin	0.08	0
bin	0.1	0
bin	0.12	0
bin	0.14	0
bin	0.16	0
bin	0.18	0
bin	0.2	0
bin	0.22	0
bin	0.24	0
bin	0.26	0
bin	0.28	0
bin	0.3	0
bin	0.32	0
bin	0.34	0
bin	0.36	0
bin	0.38	0
bin	0.4	0
bin	0.42	0
bin	0.44	0
bin	0.46	0
bin	0.48	0
bin	0.5	0
scalar CrosstalkShowcaseOneScalarRadioMediumModule.host2.wlan[0].radio radioMode:count 21
attr interpolationmode sample-hold
attr recordingmode count
attr source radioModeChanged
attr title "Radio mode, count"
scalar CrosstalkShowcaseOneScalarRadioMediumModule.host2.wlan[0].radio receptionState:count 103
attr interpolationmode sample-hold
attr recordingmode count
attr source receptionStateChanged
attr title "Radio reception state, count"
scalar CrosstalkShowcaseOneScalarRadioMediumModule.host2.wlan[0].radio transmissionState:count 36
attr interpolationmode sample-hold
attr recordingmode count
attr source transmissionStateChanged
attr title "Radio transmission state, count"
statistic CrosstalkShowcaseOneScalarRadioMediumModule.host2.wlan[0].radio minSnir:histogram
field count 37
field mean 4881.4542306793
field stddev 3503.2970318737
field min 2.1459324519666
field max 8222.9871064296
field sum 180613.80653513
field sqrsum 1323489273.3973
attr recordingmode histogram
attr source minimumSnir(packetSentToUpper)
attr title "Min SNIR"
bin	-inf	0
bin	0	10
bin	200	0
bin	400	0
bin	600	0
bin	800	0
bin	1000	0
bin	1200	0
bin	1400	0
bin	1600	0
bin	1800	0
bin	2000	0
bin	2200	0
bin	2400	0
bin	2600	0
bin	2800	0
bin	3000	0
bin	3200	0
bin	3400	0
bin	3600	9
bin	3800	0
bin	4000	0
bin	4200	0
bin	4400	0
bin	4600	0
bin	4800	0
bin	5000	0
bin	5200	0
bin	5400	0
bin	5600	0
bin	5800	0
bin	6000	0
bin	6200	0
bin	6400	0
bin	6600	0
bin	6800	0
bin	7000	0
bin	7200	0
bin	7400	0
bin	7600	0
bin	7800	0
bin	8000	9
bin	8200	9
bin	8400	0
bin	8600	0
bin	8800	0
bin	9000	0
bin	9200	0
bin	9400	0
bin	9600	0
bin	9800	0
bin	10000	0
bin	10200	0
bin	10400	0
statistic CrosstalkShowcaseOneScalarRadioMediumModule.host2.wlan[0].radio packetErrorRate:histogram
field count 37
field mean 0.27027027027027
field stddev 0.45022516889075
field min 0
field max 1
field sum 10
field sqrsum 10
attr recordingmode histogram
attr source packetErrorRate(packetSentToUpper)
attr title "Packet error rate"
bin	-inf	0
bin	0	27
bin	1	10
bin	2	0
statistic CrosstalkShowcaseOneScalarRadioMediumModule.host2.wlan[0].radio bitErrorRate:histogram
field count 0
field mean -nan
field stddev nan
field min nan
field max nan
field sum 0
field sqrsum 0
attr recordingmode histogram
attr source bitErrorRate(packetSentToUpper)
attr title "Bit error rate"
bin	-inf	0
bin	0	0
bin	1	0
statistic CrosstalkShowcaseOneScalarRadioMediumModule.host2.wlan[0].radio symbolErrorRate:histogram
field count 0
field mean -nan
field stddev nan
field min nan
field max nan
field sum 0
field sqrsum 0
attr recordingmode histogram
attr source symbolErrorRate(packetSentToUpper)
attr title "Symbol error rate"
bin	-inf	0
bin	0	0
bin	1	0
scalar CrosstalkShowcaseOneScalarRadioMediumModule.host2.wlan[0] packetDropInterfaceDown:count 0
attr interpolationmode none
attr recordingmode count
attr source packetDropReasonIsInterfaceDown(packetDropped)
attr title "packet drops: interface down, count"
scalar CrosstalkShowcaseOneScalarRadioMediumModule.host2.wlan[0] packetDropInterfaceDown:sum(packetBytes) 0
attr interpolationmode none
attr recordingmode sum(packetBytes)
attr source packetDropReasonIsInterfaceDown(packetDropped)
attr title "packet drops: interface down, sum(packetBytes)"
scalar CrosstalkShowcaseOneScalarRadioMediumModule.host2.wlan[0] packetDropNoCarrier:count 0
attr interpolationmode none
attr recordingmode count
attr source packetDropReasonIsNoCarrier(packetDropped)
attr title "packet drops: no carrier, count"
scalar CrosstalkShowcaseOneScalarRadioMediumModule.host2.wlan[0] packetDropNoCarrier:sum(packetBytes) 0
attr interpolationmode none
attr recordingmode sum(packetBytes)
attr source packetDropReasonIsNoCarrier(packetDropped)
attr title "packet drops: no carrier, sum(packetBytes)"
scalar CrosstalkShowcaseOneScalarRadioMediumModule.host2.ipv4.ip packetDropAddressResolutionFailed:count 0
attr interpolationmode none
attr recordingmode count
attr source packetDropReasonIsAddressResolutionFailed(packetDropped)
attr title "packet drop: address resolution failed, count"
scalar CrosstalkShowcaseOneScalarRadioMediumModule.host2.ipv4.ip packetDropAddressResolutionFailed:sum(packetBytes) 0
attr interpolationmode none
attr recordingmode sum(packetBytes)
attr source packetDropReasonIsAddressResolutionFailed(packetDropped)
attr title "packet drop: address resolution failed, sum(packetBytes)"
scalar CrosstalkShowcaseOneScalarRadioMediumModule.host2.ipv4.ip packetDropHopLimitReached:count 0
attr interpolationmode none
attr recordingmode count
attr source packetDropReasonIsHopLimitReached(packetDropped)
attr title "packet drop: hop limit reached, count"
scalar CrosstalkShowcaseOneScalarRadioMediumModule.host2.ipv4.ip packetDropHopLimitReached:sum(packetBytes) 0
attr interpolationmode none
attr recordingmode sum(packetBytes)
attr source packetDropReasonIsHopLimitReached(packetDropped)
attr title "packet drop: hop limit reached, sum(packetBytes)"
scalar CrosstalkShowcaseOneScalarRadioMediumModule.host2.ipv4.ip packetDropForwardingDisabled:count 0
attr interpolationmode none
attr recordingmode count
attr source packetDropReasonIsForwardingDisabled(packetDropped)
attr title "packet drop: forwarding disabled, count"
scalar CrosstalkShowcaseOneScalarRadioMediumModule.host2.ipv4.ip packetDropForwardingDisabled:sum(packetBytes) 0
attr interpolationmode none
attr recordingmode sum(packetBytes)
attr source packetDropReasonIsForwardingDisabled(packetDropped)
attr title "packet drop: forwarding disabled, sum(packetBytes)"
scalar CrosstalkShowcaseOneScalarRadioMediumModule.host2.ipv4.ip packetDropNoInterfaceFound:count 0
attr interpolationmode none
attr recordingmode count
attr source packetDropReasonIsNoInterfaceFound(packetDropped)
attr title "packet drop: no interface found, count"
scalar CrosstalkShowcaseOneScalarRadioMediumModule.host2.ipv4.ip packetDropNoInterfaceFound:sum(packetBytes) 0
attr interpolationmode none
attr recordingmode sum(packetBytes)
attr source packetDropReasonIsNoInterfaceFound(packetDropped)
attr title "packet drop: no interface found, sum(packetBytes)"
scalar CrosstalkShowcaseOneScalarRadioMediumModule.host2.ipv4.ip packetDropNoRouteFound:count 0
attr interpolationmode none
attr recordingmode count
attr source packetDropReasonIsNoRouteFound(packetDropped)
attr title "packet drop: no route found, count"
scalar CrosstalkShowcaseOneScalarRadioMediumModule.host2.ipv4.ip packetDropNoRouteFound:sum(packetBytes) 0
attr interpolationmode none
attr recordingmode sum(packetBytes)
attr source packetDropReasonIsNoRouteFound(packetDropped)
attr title "packet drop: no route found, sum(packetBytes)"
scalar CrosstalkShowcaseOneScalarRadioMediumModule.host2.ipv4.ip packetDropUndefined:count 0
attr interpolationmode none
attr recordingmode count
attr source packetDropReasonIsUndefined(packetDropped)
attr title "packet drop: undefined, count"
scalar CrosstalkShowcaseOneScalarRadioMediumModule.host2.ipv4.ip packetDropUndefined:sum(packetBytes) 0
attr interpolationmode none
attr recordingmode sum(packetBytes)
attr source packetDropReasonIsUndefined(packetDropped)
attr title "packet drop: undefined, sum(packetBytes)"
scalar CrosstalkShowcaseOneScalarRadioMediumModule.host2.udp packetReceived:count 9
attr interpolationmode none
attr recordingmode count
attr source packetReceived
attr title "packets received, count"
scalar CrosstalkShowcaseOneScalarRadioMediumModule.host2.udp packetReceived:sum(packetBytes) 9072
attr interpolationmode none
attr recordingmode sum(packetBytes)
attr source packetReceived
attr title "packets received, sum(packetBytes)"
scalar CrosstalkShowcaseOneScalarRadioMediumModule.host2.udp packetSent:count 0
attr interpolationmode none
attr recordingmode count
attr source packetSent
attr title "packets sent, count"
scalar CrosstalkShowcaseOneScalarRadioMediumModule.host2.udp packetSent:sum(packetBytes) 0
attr interpolationmode none
attr recordingmode sum(packetBytes)
attr source packetSent
attr title "packets sent, sum(packetBytes)"
scalar CrosstalkShowcaseOneScalarRadioMediumModule.host2.udp passedUpPk:count 9
attr interpolationmode none
attr recordingmode count
attr source packetSentToUpper
attr title "packets passed up, count"
scalar CrosstalkShowcaseOneScalarRadioMediumModule.host2.udp droppedPkWrongPort:count 0
attr interpolationmode none
attr recordingmode count
attr source packetDropReasonIsNoPortFound(packetDropped)
attr title "packets dropped (wrong port), count"
scalar CrosstalkShowcaseOneScalarRadioMediumModule.host2.udp droppedPkBadChecksum:count 0
attr interpolationmode none
attr recordingmode count
attr source packetDropReasonIsIncorrectlyReceived(packetDropped)
attr title "packets dropped (checksum error), count"
scalar CrosstalkShowcaseOneScalarRadioMediumModule.host2.app[0] packetReceived:count 9
attr interpolationmode none
attr recordingmode count
attr source packetReceived
attr title "packets received, count"
scalar CrosstalkShowcaseOneScalarRadioMediumModule.host2.app[0] packetReceived:sum(packetBytes) 9000
[...]
attr interpolationmode none
attr recordingmode sum(packetBytes)
attr source packetDropReasonIsNotAddressedToUs(packetDropped)
attr title "packet drops: not addressed to us, sum(packetBytes)"
scalar CrosstalkShowcaseOneScalarRadioMediumModule.host4.wlan[0].mac.dcf packetDropQueueOverflow:count 0
attr interpolationmode none
attr recordingmode count
attr source packetDropReasonIsQueueOverflow(packetDropped)
attr title "packet drops: queue overflow, count"
scalar CrosstalkShowcaseOneScalarRadioMediumModule.host4.wlan[0].mac.dcf packetDropQueueOverflow:sum(packetBytes) 0
attr interpolationmode none
attr recordingmode sum(packetBytes)
attr source packetDropReasonIsQueueOverflow(packetDropped)
attr title "packet drops: queue overflow, sum(packetBytes)"
scalar CrosstalkShowcaseOneScalarRadioMediumModule.host4.wlan[0].mac.dcf packetDropRetryLimitReached:count 0
attr interpolationmode none
attr recordingmode count
attr source packetDropReasonIsRetryLimitReached(packetDropped)
attr title "packet drops: retry limit reached, count"
scalar CrosstalkShowcaseOneScalarRadioMediumModule.host4.wlan[0].mac.dcf packetDropRetryLimitReached:sum(packetBytes) 0
attr interpolationmode none
attr recordingmode sum(packetBytes)
attr source packetDropReasonIsRetryLimitReached(packetDropped)
attr title "packet drops: retry limit reached, sum(packetBytes)"
scalar CrosstalkShowcaseOneScalarRadioMediumModule.host4.wlan[0].mac.dcf linkBroken:count 0
attr interpolationmode none
attr recordingmode count
attr title "link breaks, count"
scalar CrosstalkShowcaseOneScalarRadioMediumModule.host4.wlan[0].mac packetReceivedFromLower:count 37
attr interpolationmode none
attr recordingmode count
attr title "packets received from lower layer, count"
scalar CrosstalkShowcaseOneScalarRadioMediumModule.host4.wlan[0].mac packetReceivedFromLower:sum(packetBytes) 29918
attr interpolationmode none
attr recordingmode sum(packetBytes)
attr title "packets received from lower layer, sum(packetBytes)"
scalar CrosstalkShowcaseOneScalarRadioMediumModule.host4.wlan[0].mac packetSentToLower:count 9
attr interpolationmode none
attr recordingmode count
attr title "packets sent to lower layer, count"
scalar CrosstalkShowcaseOneScalarRadioMediumModule.host4.wlan[0].mac packetSentToLower:sum(packetBytes) 126
attr interpolationmode none
attr recordingmode sum(packetBytes)
attr title "packets sent to lower layer, sum(packetBytes)"
scalar CrosstalkShowcaseOneScalarRadioMediumModule.host4.wlan[0].mac packetReceivedFromUpper:count 0
attr interpolationmode none
attr recordingmode count
attr title "packets received from upper layer, count"
scalar CrosstalkShowcaseOneScalarRadioMediumModule.host4.wlan[0].mac packetReceivedFromUpper:sum(packetBytes) 0
attr interpolationmode none
attr recordingmode sum(packetBytes)
attr title "packets received from upper layer, sum(packetBytes)"
scalar CrosstalkShowcaseOneScalarRadioMediumModule.host4.wlan[0].mac packetSentToUpper:count 9
attr interpolationmode none
attr recordingmode count
attr title "packets sent to upper layer, count"
scalar CrosstalkShowcaseOneScalarRadioMediumModule.host4.wlan[0].mac packetSentToUpper:sum(packetBytes) 9324
attr interpolationmode none
attr recordingmode sum(packetBytes)
attr title "packets sent to upper layer, sum(packetBytes)"
scalar CrosstalkShowcaseOneScalarRadioMediumModule.host4.wlan[0].mac packetDrop:count 28
attr interpolationmode none
attr recordingmode count
attr source packetDropped
attr title "packet drops, count"
scalar CrosstalkShowcaseOneScalarRadioMediumModule.host4.wlan[0].mac packetDrop:sum(packetBytes) 20342
attr interpolationmode none
attr recordingmode sum(packetBytes)
attr source packetDropped
attr title "packet drops, sum(packetBytes)"
scalar CrosstalkShowcaseOneScalarRadioMediumModule.host4.wlan[0].mac packetDropIncorrectlyReceived:count 10
attr interpolationmode none
attr recordingmode count
attr source packetDropReasonIsIncorrectlyReceived(packetDropped)
attr title "packet drops: incorrectly received, count"
scalar CrosstalkShowcaseOneScalarRadioMediumModule.host4.wlan[0].mac packetDropIncorrectlyReceived:sum(packetBytes) 10640
attr interpolationmode none
attr recordingmode sum(packetBytes)
attr source packetDropReasonIsIncorrectlyReceived(packetDropped)
attr title "packet drops: incorrectly received, sum(packetBytes)"
scalar CrosstalkShowcaseOneScalarRadioMediumModule.host4.wlan[0].mac packetDropNotAddressedToUs:count 18
attr interpolationmode none
attr recordingmode count
attr source packetDropReasonIsNotAddressedToUs(packetDropped)
attr title "packet drops: not addressed to us, count"
scalar CrosstalkShowcaseOneScalarRadioMediumModule.host4.wlan[0].mac packetDropNotAddressedToUs:sum(packetBytes) 9702
attr interpolationmode none
attr recordingmode sum(packetBytes)
attr source packetDropReasonIsNotAddressedToUs(packetDropped)
attr title "packet drops: not addressed to us, sum(packetBytes)"
scalar CrosstalkShowcaseOneScalarRadioMediumModule.host4.wlan[0].mac packetDropQueueOverflow:count 0
attr interpolationmode none
attr recordingmode count
attr source packetDropReasonIsQueueOverflow(packetDropped)
attr title "packet drops: queue overflow, count"
scalar CrosstalkShowcaseOneScalarRadioMediumModule.host4.wlan[0].mac packetDropQueueOverflow:sum(packetBytes) 0
attr interpolationmode none
attr recordingmode sum(packetBytes)
attr source packetDropReasonIsQueueOverflow(packetDropped)
attr title "packet drops: queue overflow, sum(packetBytes)"
scalar CrosstalkShowcaseOneScalarRadioMediumModule.host4.wlan[0].mac packetDropRetryLimitReached:count 0
attr interpolationmode none
attr recordingmode count
attr source packetDropReasonIsRetryLimitReached(packetDropped)
attr title "packet drops: retry limit reached, count"
scalar CrosstalkShowcaseOneScalarRadioMediumModule.host4.wlan[0].mac packetDropRetryLimitReached:sum(packetBytes) 0
attr interpolationmode none
attr recordingmode sum(packetBytes)
attr source packetDropReasonIsRetryLimitReached(packetDropped)
attr title "packet drops: retry limit reached, sum(packetBytes)"
scalar CrosstalkShowcaseOneScalarRadioMediumModule.host4.wlan[0].mac packetDropDuplicateDetected:count 0
attr interpolationmode none
attr recordingmode count
attr source packetDropReasonIsDuplicateDetected(packetDropped)
attr title "packet drops: duplicate detected, count"
scalar CrosstalkShowcaseOneScalarRadioMediumModule.host4.wlan[0].mac packetDropDuplicateDetected:sum(packetBytes) 0
attr interpolationmode none
attr recordingmode sum(packetBytes)
attr source packetDropReasonIsDuplicateDetected(packetDropped)
attr title "packet drops: duplicate detected, sum(packetBytes)"
scalar CrosstalkShowcaseOneScalarRadioMediumModule.host4.wlan[0].mac packetDropOther:count 0
attr interpolationmode none
attr recordingmode count
attr source packetDropReasonIsOther(packetDropped)
attr title "packet drops: other, count"
scalar CrosstalkShowcaseOneScalarRadioMediumModule.host4.wlan[0].mac packetDropOther:sum(packetBytes) 0
attr interpolationmode none
attr recordingmode sum(packetBytes)
attr source packetDropReasonIsOther(packetDropped)
attr title "packet drops: other, sum(packetBytes)"
scalar CrosstalkShowcaseOneScalarRadioMediumModule.host4.wlan[0].mac linkBroken:count 0
attr interpolationmode none
attr recordingmode count
attr title "link breaks, count"
statistic CrosstalkShowcaseOneScalarRadioMediumModule.host4.wlan[0].radio radioChannel:histogram
field count 1
field mean 0
field stddev nan
field min 0
field max 0
field sum 0
field sqrsum 0
attr interpolationmode sample-hold
attr recordingmode histogram
attr source radioChannelChanged
attr title "Radio channel"
bin	-inf	0
bin	-0.5	0
bin	-0.48	0
bin	-0.46	0
bin	-0.44	0
bin	-0.42	0
bin	-0.4	0
bin	-0.38	0
bin	-0.36	0
bin	-0.34	0
bin	-0.32	0
bin	-0.3	0
bin	-0.28	0
bin	-0.26	0
bin	-0.24	0
bin	-0.22	0
bin	-0.2	0
bin	-0.18	0
bin	-0.16	0
bin	-0.14	0
bin	-0.12	0
bin	-0.1	0
bin	-0.08	0
bin	-0.06	0
bin	-0.04	0
bin	-0.02	0
bin	0	1
bin	0.02	0
bin	0.04	0
bin	0.06	0
bin	0.08	0
bin	0.1	0
bin	0.12	0
bin	0.14	0
bin	0.16	0
bin	0.18	0
bin	0.2	0
bin	0.22	0
bin	0.24	0
bin	0.26	0
bin	0.28	0
bin	0.3	0
bin	0.32	0
bin	0.34	0
bin	0.36	0
bin	0.38	0
bin	0.4	0
bin	0.42	0
bin	0.44	0
bin	0.46	0
bin	0.48	0
bin	0.5	0
scalar CrosstalkShowcaseOneScalarRadioMediumModule.host4.wlan[0].radio radioMode:count 21
attr interpolationmode sample-hold
attr recordingmode count
attr source radioModeChanged
attr title "Radio mode, count"
scalar CrosstalkShowcaseOneScalarRadioMediumModule.host4.wlan[0].radio receptionState:count 103
attr interpolationmode sample-hold
attr recordingmode count
attr source receptionStateChanged
attr title "Radio reception state, count"
scalar CrosstalkShowcaseOneScalarRadioMediumModule.host4.wlan[0].radio transmissionState:count 36
attr interpolationmode sample-hold
attr recordingmode count
attr source transmissionStateChanged
attr title "Radio transmission state, count"
statistic CrosstalkShowcaseOneScalarRadioMediumModule.host4.wlan[0].radio minSnir:histogram
field count 37
field mean 5022.1884169152
field stddev 3463.2278362893
field min 1.8529351921412
field max 8222.9871064296
field sum 185820.97142586
field sqrsum 1365010023.9727
attr recordingmode histogram
attr source minimumSnir(packetSentToUpper)
attr title "Min SNIR"
bin	-inf	0
bin	0	10
bin	200	0
bin	400	0
bin	600	0
bin	800	0
bin	1000	0
bin	1200	0
bin	1400	0
bin	1600	0
bin	1800	0
bin	2000	0
bin	2200	0
bin	2400	0
bin	2600	0
bin	2800	0
bin	3000	0
bin	3200	0
bin	3400	0
bin	3600	0
bin	3800	0
bin	4000	0
bin	4200	9
bin	4400	0
bin	4600	0
bin	4800	0
bin	5000	0
bin	5200	0
bin	5400	0
bin	5600	0
bin	5800	0
bin	6000	0
bin	6200	0
bin	6400	0
bin	6600	0
bin	6800	0
bin	7000	0
bin	7200	0
bin	7400	0
bin	7600	0
bin	7800	0
bin	8000	9
bin	8200	9
bin	8400	0
bin	8600	0
bin	8800	0
bin	9000	0
bin	9200	0
bin	9400	0
bin	9600	0
bin	9800	0
bin	10000	0
bin	10200	0
bin	10400	0
statistic CrosstalkShowcaseOneScalarRadioMediumModule.host4.wlan[0].radio packetErrorRate:histogram
field count 37
field mean 0.27027027027027
field stddev 0.45022516889075
field min 0
field max 1
field sum 10
field sqrsum 10
attr recordingmode histogram
attr source packetErrorRate(packetSentToUpper)
attr title "Packet error rate"
bin	-inf	0
bin	0	27
bin	1	10
bin	2	0
statistic CrosstalkShowcaseOneScalarRadioMediumModule.host4.wlan[0].radio bitErrorRate:histogram
field count 0
field mean -nan
field stddev nan
field min nan
field max nan
field sum 0
field sqrsum 0
attr recordingmode histogram
attr source bitErrorRate(packetSentToUpper)
attr title "Bit error rate"
bin	-inf	0
bin	0	0
bin	1	0
statistic CrosstalkShowcaseOneScalarRadioMediumModule.host4.wlan[0].radio symbolErrorRate:histogram
field count 0
field mean -nan
field stddev nan
field min nan
field max nan
field sum 0
field sqrsum 0
attr recordingmode histogram
attr source symbolErrorRate(packetSentToUpper)
attr title "Symbol error rate"
bin	-inf	0
bin	0	0
bin	1	0
scalar CrosstalkShowcaseOneScalarRadioMediumModule.host4.wlan[0] packetDropInterfaceDown:count 0
attr interpolationmode none
attr recordingmode count
attr source packetDropReasonIsInterfaceDown(packetDropped)
attr title "packet drops: interface down, count"
scalar CrosstalkShowcaseOneScalarRadioMediumModule.host4.wlan[0] packetDropInterfaceDown:sum(packetBytes) 0
attr interpolationmode none
attr recordingmode sum(packetBytes)
attr source packetDropReasonIsInterfaceDown(packetDropped)
attr title "packet drops: interface down, sum(packetBytes)"
scalar CrosstalkShowcaseOneScalarRadioMediumModule.host4.wlan[0] packetDropNoCarrier:count 0
attr interpolationmode none
attr recordingmode count
attr source packetDropReasonIsNoCarrier(packetDropped)
attr title "packet drops: no carrier, count"
scalar CrosstalkShowcaseOneScalarRadioMediumModule.host4.wlan[0] packetDropNoCarrier:sum(packetBytes) 0
attr interpolationmode none
attr recordingmode sum(packetBytes)
attr source packetDropReasonIsNoCarrier(packetDropped)
attr title "packet drops: no carrier, sum(packetBytes)"
scalar CrosstalkShowcaseOneScalarRadioMediumModule.host4.ipv4.ip packetDropAddressResolutionFailed:count 0
attr interpolationmode none
attr recordingmode count
attr source packetDropReasonIsAddressResolutionFailed(packetDropped)
attr title "packet drop: address resolution failed, count"
scalar CrosstalkShowcaseOneScalarRadioMediumModule.host4.ipv4.ip packetDropAddressResolutionFailed:sum(packetBytes) 0
attr interpolationmode none
attr recordingmode sum(packetBytes)
attr source packetDropReasonIsAddressResolutionFailed(packetDropped)
attr title "packet drop: address resolution failed, sum(packetBytes)"
scalar CrosstalkShowcaseOneScalarRadioMediumModule.host4.ipv4.ip packetDropHopLimitReached:count 0
attr interpolationmode none
attr recordingmode count
attr source packetDropReasonIsHopLimitReached(packetDropped)
attr title "packet drop: hop limit reached, count"
scalar CrosstalkShowcaseOneScalarRadioMediumModule.host4.ipv4.ip packetDropHopLimitReached:sum(packetBytes) 0
attr interpolationmode none
attr recordingmode sum(packetBytes)
attr source packetDropReasonIsHopLimitReached(packetDropped)
attr title "packet drop: hop limit reached, sum(packetBytes)"
scalar CrosstalkShowcaseOneScalarRadioMediumModule.host4.ipv4.ip packetDropForwardingDisabled:count 0
attr interpolationmode none
attr recordingmode count
attr source packetDropReasonIsForwardingDisabled(packetDropped)
attr title "packet drop: forwarding disabled, count"
scalar CrosstalkShowcaseOneScalarRadioMediumModule.host4.ipv4.ip packetDropForwardingDisabled:sum(packetBytes) 0
attr interpolationmode none
attr recordingmode sum(packetBytes)
attr source packetDropReasonIsForwardingDisabled(packetDropped)
attr title "packet drop: forwarding disabled, sum(packetBytes)"
scalar CrosstalkShowcaseOneScalarRadioMediumModule.host4.ipv4.ip packetDropNoInterfaceFound:count 0
attr interpolationmode none
attr recordingmode count
attr source packetDropReasonIsNoInterfaceFound(packetDropped)
attr title "packet drop: no interface found, count"
scalar CrosstalkShowcaseOneScalarRadioMediumModule.host4.ipv4.ip packetDropNoInterfaceFound:sum(packetBytes) 0
attr interpolationmode none
attr recordingmode sum(packetBytes)
attr source packetDropReasonIsNoInterfaceFound(packetDropped)
attr title "packet drop: no interface found, sum(packetBytes)"
scalar CrosstalkShowcaseOneScalarRadioMediumModule.host4.ipv4.ip packetDropNoRouteFound:count 0
attr interpolationmode none
attr recordingmode count
attr source packetDropReasonIsNoRouteFound(packetDropped)
attr title "packet drop: no route found, count"
scalar CrosstalkShowcaseOneScalarRadioMediumModule.host4.ipv4.ip packetDropNoRouteFound:sum(packetBytes) 0
attr interpolationmode none
attr recordingmode sum(packetBytes)
attr source packetDropReasonIsNoRouteFound(packetDropped)
attr title "packet drop: no route found, sum(packetBytes)"
scalar CrosstalkShowcaseOneScalarRadioMediumModule.host4.ipv4.ip packetDropUndefined:count 0
attr interpolationmode none
attr recordingmode count
attr source packetDropReasonIsUndefined(packetDropped)
attr title "packet drop: undefined, count"
scalar CrosstalkShowcaseOneScalarRadioMediumModule.host4.ipv4.ip packetDropUndefined:sum(packetBytes) 0
attr interpolationmode none
attr recordingmode sum(packetBytes)
attr source packetDropReasonIsUndefined(packetDropped)
attr title "packet drop: undefined, sum(packetBytes)"
scalar CrosstalkShowcaseOneScalarRadioMediumModule.host4.udp packetReceived:count 9
attr interpolationmode none
attr recordingmode count
attr source packetReceived
attr title "packets received, count"
scalar CrosstalkShowcaseOneScalarRadioMediumModule.host4.udp packetReceived:sum(packetBytes) 9072
attr interpolationmode none
attr recordingmode sum(packetBytes)
attr source packetReceived
attr title "packets received, sum(packetBytes)"
scalar CrosstalkShowcaseOneScalarRadioMediumModule.host4.udp packetSent:count 0
attr interpolationmode none
attr recordingmode count
attr source packetSent
attr title "packets sent, count"
scalar CrosstalkShowcaseOneScalarRadioMediumModule.host4.udp packetSent:sum(packetBytes) 0
attr interpolationmode none
attr recordingmode sum(packetBytes)
attr source packetSent
attr title "packets sent, sum(packetBytes)"
scalar CrosstalkShowcaseOneScalarRadioMediumModule.host4.udp passedUpPk:count 9
attr interpolationmode none
attr recordingmode count
attr source packetSentToUpper
attr title "packets passed up, count"
scalar CrosstalkShowcaseOneScalarRadioMediumModule.host4.udp droppedPkWrongPort:count 0
attr interpolationmode none
attr recordingmode count
attr source packetDropReasonIsNoPortFound(packetDropped)
attr title "packets dropped (wrong port), count"
scalar CrosstalkShowcaseOneScalarRadioMediumModule.host4.udp droppedPkBadChecksum:count 0
attr interpolationmode none
attr recordingmode count
attr source packetDropReasonIsIncorrectlyReceived(packetDropped)
attr title "packets dropped (checksum error), count"
scalar CrosstalkShowcaseOneScalarRadioMediumModule.host4.app[0] packetReceived:count 9
attr interpolationmode none
attr recordingmode count
attr source packetReceived
attr title "packets received, count"
scalar CrosstalkShowcaseOneScalarRadioMediumModule.host4.app[0] packetReceived:sum(packetBytes) 9000
attr interpolationmode none
attr recordingmode sum(packetBytes)
attr source packetReceived
attr title "packets received, sum(packetBytes)"
statistic CrosstalkShowcaseOneScalarRadioMediumModule.host4.app[0] endToEndDelay:histogram
field count 9
field mean 0.0016970536551111
field stddev 0.00078507595579929
field min 0.000858707156
field max 0.002971986779
field sum 0.015273482896
field sqrsum 3.0850674025927e-05
attr interpolationmode none
attr recordingmode histogram
attr source dataAge(packetReceived)
attr title "end-to-end delay"
attr unit s
bin	-inf	0
bin	0.0003	0
bin	0.00035	0
bin	0.0004	0
bin	0.00045	0
bin	0.0005	0
bin	0.00055	0
bin	0.0006	0
bin	0.00065	0
bin	0.0007	0
bin	0.00075	0
bin	0.0008	0
bin	0.00085	1
bin	0.0009	0
bin	0.00095	1
bin	0.001	1
bin	0.00105	1
bin	0.0011	0
bin	0.00115	0
bin	0.0012	0
bin	0.00125	0
bin	0.0013	0
bin	0.00135	0
bin	0.0014	0
bin	0.00145	1
bin	0.0015	0
bin	0.00155	0
bin	0.0016	0
bin	0.00165	0
bin	0.0017	0
bin	0.00175	0
bin	0.0018	0
bin	0.00185	0
bin	0.0019	0
bin	0.00195	0
bin	0.002	1
bin	0.00205	0
bin	0.0021	0
bin	0.00215	0
bin	0.0022	0
bin	0.00225	1
bin	0.0023	0
bin	0.00235	0
bin	0.0024	0
bin	0.00245	0
bin	0.0025	0
bin	0.00255	1
bin	0.0026	0
bin	0.00265	0
bin	0.0027	0
bin	0.00275	0
bin	0.0028	0
bin	0.00285	0
bin	0.0029	0
bin	0.00295	1
bin	0.003	0
bin	0.00305	0
bin	0.0031	0
bin	0.00315	0
bin	0.0032	0
bin	0.00325	0
bin	0.0033	0
bin	0.00335	0
bin	0.0034	0
bin	0.00345	0
bin	0.0035	0
bin	0.00355	0
scalar CrosstalkShowcaseOneScalarRadioMediumModule.radioMedium.propagation "Arrival computation count" 174
scalar CrosstalkShowcaseOneScalarRadioMediumModule.radioMedium "transmission count" 58
scalar CrosstalkShowcaseOneScalarRadioMediumModule.radioMedium "signal send count" 174
scalar CrosstalkShowcaseOneScalarRadioMediumModule.radioMedium "reception computation count" 168
scalar CrosstalkShowcaseOneScalarRadioMediumModule.radioMedium "interference computation count" 508
scalar CrosstalkShowcaseOneScalarRadioMediumModule.radioMedium "reception decision computation count" 128
scalar CrosstalkShowcaseOneScalarRadioMediumModule.radioMedium "listening decision computation count" 232
scalar CrosstalkShowcaseOneScalarRadioMediumModule.radioMedium "reception cache hit" 84.386617100372
attr unit %
scalar CrosstalkShowcaseOneScalarRadioMediumModule.radioMedium "interference cache hit" 66.666666666667
attr unit %
scalar CrosstalkShowcaseOneScalarRadioMediumModule.radioMedium "noise cache hit" 0
attr unit %
scalar CrosstalkShowcaseOneScalarRadioMediumModule.radioMedium "snir cache hit" 50
attr unit %
scalar CrosstalkShowcaseOneScalarRadioMediumModule.radioMedium "reception decision cache hit" 50
attr unit %
scalar CrosstalkShowcaseOneScalarRadioMediumModule.radioMedium "reception result cache hit" 0
attr unit %

