version 3
run STP-LargeNet-0-20230426-14:49:08-202253
attr configname STP-LargeNet
attr datetime 20230426-14:49:08
attr datetimef 20230426-144908
attr experiment STP-LargeNet
attr inifile omnetpp.ini
attr iterationvars ""
attr iterationvarsd ""
attr iterationvarsf ""
attr measurement ""
attr network LargeNet
attr processid 202253
attr repetition 0
attr replication #0
attr resultdir results.omnetpp.ini_STP-LargeNet_0
attr runnumber 0
attr seedset 0
config **.param-recording false
config **.vector-recording false
config image-path /home/levy/workspace/inet/images
config result-dir results.omnetpp.ini_STP-LargeNet_0
config sim-time-limit 200s
config extends "LargeNet, TopologyChange, STP"
config network LargeNet
config **.host*.encap.typename ""
config **.host*.llc.typename Ieee8022Llc
config **.host*.eth.typename LayeredEthernetInterface
config **.host*.ethernet.typename EthernetLayer
config **.host*.eth.bitrate 1Gbps
config **.switch8.**.address "\"AAAAAA000008\""
config **.switch9.**.address "\"AAAAAA000009\""
config **.switch10.**.address "\"AAAAAA00000A\""
config **.switch11.**.address "\"AAAAAA00000B\""
config **.host2.cli.destAddress "\"LargeNet.host1\""
config **.host3.cli.destAddress "\"LargeNet.host1\""
config **.host4.cli.destAddress "\"LargeNet.host6\""
config **.host5.cli.destAddress "\"LargeNet.host3\""
config **.host6.cli.destAddress "\"LargeNet.host3\""
config **.host*.cli.startTime 10ms
config **.hasStatus true
config **.script "xmldoc(\"Events.xml\")"
config **.hasStp true
config **.spanningTreeProtocol "\"Stp\""
config sim-time-limit 200s
config **.vector-recording false
config **.visualize true
config **.agingTime 1s
config network SwitchNetwork
config **.switch1.**.address "\"AAAAAA000001\""
config **.switch2.**.address "\"AAAAAA000002\""
config **.switch3.**.address "\"AAAAAA000003\""
config **.switch4.**.address "\"AAAAAA000004\""
config **.switch5.**.address "\"AAAAAA000005\""
config **.switch6.**.address "\"AAAAAA000006\""
config **.switch7.**.address "\"AAAAAA000007\""
config **.switch*.eth[*].typename LayeredEthernetInterface
config **.switch*.ethernet.typename EthernetLayer
config **.switch*.eth[*].bitrate 1Gbps
config **.macLayer.server.serveSchedulingPriority -1

scalar LargeNet.switch1.bridging "processed frames" 0
scalar LargeNet.switch1.bridging "discarded frames" 0
scalar LargeNet.switch1.bridging "number of received BPDUs from STP module" 0
scalar LargeNet.switch1.bridging "number of received frames from network (including BPDUs)" 1645
scalar LargeNet.switch1.bridging "number of dropped frames (including BPDUs)" 0
scalar LargeNet.switch1.bridging "number of delivered BPDUs to the STP module" 0
scalar LargeNet.switch1.bridging "number of dispatched BPDU frames to the network" 0
scalar LargeNet.switch1.bridging "number of dispatched non-BDPU frames to the network" 0
scalar LargeNet.switch1.bridging packetDropped:count 0
attr interpolationmode none
attr recordingmode count
attr title "packets dropped, count"
scalar LargeNet.switch1.bridging packetDropped:sum(packetBytes) 0
attr interpolationmode none
attr recordingmode sum(packetBytes)
attr title "packets dropped, sum(packetBytes)"
scalar LargeNet.switch1.ethernet.macHeaderInserter outgoingPackets:count 2045
attr recordingmode count
attr source "merge(packetPushedOut, packetPulledOut)"
attr title "outgoing packets, count"
attr unit pk
scalar LargeNet.switch1.ethernet.macHeaderInserter outgoingPacketLengths:sum 6173824
attr interpolationmode none
attr recordingmode sum
attr source "packetLength(merge(packetPushedOut, packetPulledOut))"
attr title "outgoing packet lengths, sum"
attr unit b
statistic LargeNet.switch1.ethernet.macHeaderInserter outgoingPacketLengths:histogram
field count 2045
field mean 3018.9848410758
field stddev 3455.9540491291
field min 416
field max 8328
field sum 6173824
field sqrsum 43051437056
attr interpolationmode none
attr recordingmode histogram
attr source "packetLength(merge(packetPushedOut, packetPulledOut))"
attr title "outgoing packet lengths"
attr unit b
bin	-inf	0
bin	410	437
bin	550	0
bin	690	0
bin	830	1001
bin	970	0
bin	1110	0
bin	1250	0
bin	1390	0
bin	1530	0
bin	1670	0
bin	1810	0
bin	1950	0
bin	2090	0
bin	2230	0
bin	2370	0
bin	2510	0
bin	2650	0
bin	2790	0
bin	2930	0
bin	3070	0
bin	3210	0
bin	3350	0
bin	3490	0
bin	3630	0
bin	3770	0
bin	3910	0
bin	4050	0
bin	4190	0
bin	4330	0
bin	4470	0
bin	4610	0
bin	4750	0
bin	4890	0
bin	5030	0
bin	5170	0
bin	5310	0
bin	5450	0
bin	5590	0
bin	5730	0
bin	5870	0
bin	6010	0
bin	6150	0
bin	6290	0
bin	6430	0
bin	6570	0
bin	6710	0
bin	6850	0
bin	6990	0
bin	7130	0
bin	7270	0
bin	7410	0
bin	7550	0
bin	7690	0
bin	7830	0
bin	7970	0
bin	8110	0
bin	8250	607
bin	8390	0
scalar LargeNet.switch1.ethernet.macHeaderInserter flowOutgoingPacketLengths:sum 0
attr interpolationmode none
attr recordingmode sum
attr source "packetLength(demuxFlow(merge(packetPushedOut, packetPulledOut)))"
attr title "flow specific outgoing packet lengths, sum"
attr unit b
statistic LargeNet.switch1.ethernet.macHeaderInserter flowOutgoingPacketLengths:histogram
field count 0
field mean -nan
field stddev nan
field min nan
field max nan
field sum 0
field sqrsum 0
attr interpolationmode none
attr recordingmode histogram
attr source "packetLength(demuxFlow(merge(packetPushedOut, packetPulledOut)))"
attr title "flow specific outgoing packet lengths"
attr unit b
bin	-inf	0
bin	0	0
bin	1	0
scalar LargeNet.switch1.ethernet.macHeaderInserter incomingPackets:count 2045
attr recordingmode count
attr source "merge(packetPushedIn, packetPulledIn)"
attr title "incoming packets, count"
attr unit pk
scalar LargeNet.switch1.ethernet.macHeaderInserter incomingPacketLengths:sum 5944784
attr interpolationmode none
attr recordingmode sum
attr source "packetLength(merge(packetPushedIn, packetPulledIn))"
attr title "incoming packet lengths, sum"
attr unit b
statistic LargeNet.switch1.ethernet.macHeaderInserter incomingPacketLengths:histogram
field count 2045
field mean 2906.9848410758
field stddev 3455.9540491291
field min 304
field max 8216
field sum 5944784
field sqrsum 41694152960
attr interpolationmode none
attr recordingmode histogram
attr source "packetLength(merge(packetPushedIn, packetPulledIn))"
attr title "incoming packet lengths"
attr unit b
bin	-inf	0
bin	300	437
bin	440	0
bin	580	0
bin	720	1001
bin	860	0
bin	1000	0
bin	1140	0
bin	1280	0
bin	1420	0
bin	1560	0
bin	1700	0
bin	1840	0
bin	1980	0
bin	2120	0
bin	2260	0
bin	2400	0
bin	2540	0
bin	2680	0
bin	2820	0
bin	2960	0
bin	3100	0
bin	3240	0
bin	3380	0
bin	3520	0
bin	3660	0
bin	3800	0
bin	3940	0
bin	4080	0
bin	4220	0
bin	4360	0
bin	4500	0
bin	4640	0
bin	4780	0
bin	4920	0
bin	5060	0
bin	5200	0
bin	5340	0
bin	5480	0
bin	5620	0
bin	5760	0
bin	5900	0
bin	6040	0
bin	6180	0
bin	6320	0
bin	6460	0
bin	6600	0
bin	6740	0
bin	6880	0
bin	7020	0
bin	7160	0
bin	7300	0
bin	7440	0
bin	7580	0
bin	7720	0
bin	7860	0
bin	8000	0
bin	8140	607
bin	8280	0
scalar LargeNet.switch1.ethernet.macHeaderInserter flowIncomingPacketLengths:sum 0
attr interpolationmode none
attr recordingmode sum
attr source "packetLength(demuxFlow(merge(packetPushedIn, packetPulledIn)))"
attr title "flow specific incoming packet lengths, sum"
attr unit b
statistic LargeNet.switch1.ethernet.macHeaderInserter flowIncomingPacketLengths:histogram
field count 0
field mean -nan
field stddev nan
field min nan
field max nan
field sum 0
field sqrsum 0
attr interpolationmode none
attr recordingmode histogram
attr source "packetLength(demuxFlow(merge(packetPushedIn, packetPulledIn)))"
attr title "flow specific incoming packet lengths"
attr unit b
bin	-inf	0
bin	0	0
bin	1	0
scalar LargeNet.switch1.ethernet.paddingInserter outgoingPackets:count 2045
attr recordingmode count
attr source "merge(packetPushedOut, packetPulledOut)"
attr title "outgoing packets, count"
attr unit pk
scalar LargeNet.switch1.ethernet.paddingInserter outgoingPacketLengths:sum 6201792
attr interpolationmode none
attr recordingmode sum
attr source "packetLength(merge(packetPushedOut, packetPulledOut))"
attr title "outgoing packet lengths, sum"
attr unit b
statistic LargeNet.switch1.ethernet.paddingInserter outgoingPacketLengths:histogram
field count 2045
field mean 3032.6611246944
field stddev 3445.7326966994
field min 480
field max 8328
field sum 6201792
field sqrsum 43076496384
attr interpolationmode none
attr recordingmode histogram
attr source "packetLength(merge(packetPushedOut, packetPulledOut))"
attr title "outgoing packet lengths"
attr unit b
bin	-inf	0
bin	470	437
bin	610	0
bin	750	0
bin	890	1001
bin	1030	0
bin	1170	0
bin	1310	0
bin	1450	0
bin	1590	0
bin	1730	0
bin	1870	0
bin	2010	0
bin	2150	0
bin	2290	0
bin	2430	0
bin	2570	0
bin	2710	0
bin	2850	0
bin	2990	0
bin	3130	0
bin	3270	0
bin	3410	0
bin	3550	0
bin	3690	0
bin	3830	0
bin	3970	0
bin	4110	0
bin	4250	0
bin	4390	0
bin	4530	0
bin	4670	0
bin	4810	0
bin	4950	0
bin	5090	0
bin	5230	0
bin	5370	0
bin	5510	0
bin	5650	0
bin	5790	0
bin	5930	0
bin	6070	0
bin	6210	0
bin	6350	0
bin	6490	0
bin	6630	0
bin	6770	0
bin	6910	0
bin	7050	0
bin	7190	0
bin	7330	0
bin	7470	0
bin	7610	0
bin	7750	0
bin	7890	0
bin	8030	0
bin	8170	0
bin	8310	607
bin	8450	0
scalar LargeNet.switch1.ethernet.paddingInserter flowOutgoingPacketLengths:sum 0
attr interpolationmode none
attr recordingmode sum
attr source "packetLength(demuxFlow(merge(packetPushedOut, packetPulledOut)))"
attr title "flow specific outgoing packet lengths, sum"
attr unit b
statistic LargeNet.switch1.ethernet.paddingInserter flowOutgoingPacketLengths:histogram
field count 0
field mean -nan
field stddev nan
field min nan
field max nan
field sum 0
field sqrsum 0
attr interpolationmode none
attr recordingmode histogram
attr source "packetLength(demuxFlow(merge(packetPushedOut, packetPulledOut)))"
attr title "flow specific outgoing packet lengths"
attr unit b
bin	-inf	0
bin	0	0
bin	1	0
scalar LargeNet.switch1.ethernet.paddingInserter incomingPackets:count 2045
attr recordingmode count
attr source "merge(packetPushedIn, packetPulledIn)"
attr title "incoming packets, count"
attr unit pk
scalar LargeNet.switch1.ethernet.paddingInserter incomingPacketLengths:sum 6173824
attr interpolationmode none
attr recordingmode sum
attr source "packetLength(merge(packetPushedIn, packetPulledIn))"
attr title "incoming packet lengths, sum"
attr unit b
statistic LargeNet.switch1.ethernet.paddingInserter incomingPacketLengths:histogram
field count 2045
field mean 3018.9848410758
field stddev 3455.9540491291
field min 416
field max 8328
field sum 6173824
field sqrsum 43051437056
attr interpolationmode none
attr recordingmode histogram
attr source "packetLength(merge(packetPushedIn, packetPulledIn))"
attr title "incoming packet lengths"
attr unit b
bin	-inf	0
bin	410	437
bin	550	0
bin	690	0
bin	830	1001
bin	970	0
bin	1110	0
bin	1250	0
bin	1390	0
bin	1530	0
bin	1670	0
bin	1810	0
bin	1950	0
bin	2090	0
bin	2230	0
bin	2370	0
bin	2510	0
bin	2650	0
bin	2790	0
bin	2930	0
bin	3070	0
bin	3210	0
bin	3350	0
bin	3490	0
bin	3630	0
bin	3770	0
bin	3910	0
bin	4050	0
bin	4190	0
bin	4330	0
bin	4470	0
bin	4610	0
bin	4750	0
bin	4890	0
bin	5030	0
bin	5170	0
bin	5310	0
bin	5450	0
bin	5590	0
bin	5730	0
bin	5870	0
bin	6010	0
bin	6150	0
bin	6290	0
bin	6430	0
bin	6570	0
bin	6710	0
bin	6850	0
bin	6990	0
bin	7130	0
bin	7270	0
bin	7410	0
bin	7550	0
bin	7690	0
bin	7830	0
bin	7970	0
bin	8110	0
bin	8250	607
bin	8390	0
scalar LargeNet.switch1.ethernet.paddingInserter flowIncomingPacketLengths:sum 0
attr interpolationmode none
attr recordingmode sum
attr source "packetLength(demuxFlow(merge(packetPushedIn, packetPulledIn)))"
attr title "flow specific incoming packet lengths, sum"
attr unit b
statistic LargeNet.switch1.ethernet.paddingInserter flowIncomingPacketLengths:histogram
field count 0
field mean -nan
field stddev nan
field min nan
field max nan
field sum 0
field sqrsum 0
attr interpolationmode none
attr recordingmode histogram
attr source "packetLength(demuxFlow(merge(packetPushedIn, packetPulledIn)))"
attr title "flow specific incoming packet lengths"
attr unit b
bin	-inf	0
bin	0	0
bin	1	0
scalar LargeNet.switch1.ethernet.fcsInserter outgoingPackets:count 2045
attr recordingmode count
attr source "merge(packetPushedOut, packetPulledOut)"
attr title "outgoing packets, count"
attr unit pk
scalar LargeNet.switch1.ethernet.fcsInserter outgoingPacketLengths:sum 6267232
attr interpolationmode none
attr recordingmode sum
attr source "packetLength(merge(packetPushedOut, packetPulledOut))"
attr title "outgoing packet lengths, sum"
attr unit b
statistic LargeNet.switch1.ethernet.fcsInserter outgoingPacketLengths:histogram
field count 2045
field mean 3064.6611246944
field stddev 3445.7326966994
field min 512
field max 8360
field sum 6267232
field sqrsum 43475505152
attr interpolationmode none
attr recordingmode histogram
attr source "packetLength(merge(packetPushedOut, packetPulledOut))"
attr title "outgoing packet lengths"
attr unit b
bin	-inf	0
bin	510	437
bin	650	0
bin	790	0
bin	930	1001
bin	1070	0
bin	1210	0
bin	1350	0
bin	1490	0
bin	1630	0
bin	1770	0
bin	1910	0
bin	2050	0
bin	2190	0
bin	2330	0
bin	2470	0
bin	2610	0
bin	2750	0
bin	2890	0
bin	3030	0
bin	3170	0
bin	3310	0
bin	3450	0
bin	3590	0
bin	3730	0
bin	3870	0
bin	4010	0
bin	4150	0
bin	4290	0
bin	4430	0
bin	4570	0
bin	4710	0
bin	4850	0
bin	4990	0
bin	5130	0
bin	5270	0
bin	5410	0
bin	5550	0
bin	5690	0
bin	5830	0
bin	5970	0
bin	6110	0
bin	6250	0
bin	6390	0
bin	6530	0
bin	6670	0
bin	6810	0
bin	6950	0
bin	7090	0
bin	7230	0
bin	7370	0
bin	7510	0
bin	7650	0
bin	7790	0
bin	7930	0
bin	8070	0
bin	8210	0
bin	8350	607
bin	8490	0
scalar LargeNet.switch1.ethernet.fcsInserter flowOutgoingPacketLengths:sum 0
attr interpolationmode none
attr recordingmode sum
attr source "packetLength(demuxFlow(merge(packetPushedOut, packetPulledOut)))"
attr title "flow specific outgoing packet lengths, sum"
attr unit b
statistic LargeNet.switch1.ethernet.fcsInserter flowOutgoingPacketLengths:histogram
field count 0
field mean -nan
field stddev nan
field min nan
field max nan
field sum 0
field sqrsum 0
attr interpolationmode none
attr recordingmode histogram
attr source "packetLength(demuxFlow(merge(packetPushedOut, packetPulledOut)))"
attr title "flow specific outgoing packet lengths"
attr unit b
bin	-inf	0
bin	0	0
bin	1	0
scalar LargeNet.switch1.ethernet.fcsInserter incomingPackets:count 2045
attr recordingmode count
attr source "merge(packetPushedIn, packetPulledIn)"
attr title "incoming packets, count"
attr unit pk
scalar LargeNet.switch1.ethernet.fcsInserter incomingPacketLengths:sum 6201792
attr interpolationmode none
attr recordingmode sum
attr source "packetLength(merge(packetPushedIn, packetPulledIn))"
attr title "incoming packet lengths, sum"
attr unit b
statistic LargeNet.switch1.ethernet.fcsInserter incomingPacketLengths:histogram
field count 2045
field mean 3032.6611246944
field stddev 3445.7326966994
field min 480
field max 8328
field sum 6201792
field sqrsum 43076496384
attr interpolationmode none
attr recordingmode histogram
attr source "packetLength(merge(packetPushedIn, packetPulledIn))"
attr title "incoming packet lengths"
attr unit b
bin	-inf	0
bin	470	437
bin	610	0
bin	750	0
bin	890	1001
bin	1030	0
bin	1170	0
bin	1310	0
bin	1450	0
bin	1590	0
bin	1730	0
bin	1870	0
bin	2010	0
bin	2150	0
bin	2290	0
bin	2430	0
bin	2570	0
bin	2710	0
bin	2850	0
bin	2990	0
bin	3130	0
bin	3270	0
bin	3410	0
bin	3550	0
bin	3690	0
bin	3830	0
bin	3970	0
bin	4110	0
bin	4250	0
bin	4390	0
bin	4530	0
bin	4670	0
bin	4810	0
bin	4950	0
bin	5090	0
bin	5230	0
bin	5370	0
bin	5510	0
bin	5650	0
bin	5790	0
bin	5930	0
bin	6070	0
bin	6210	0
bin	6350	0
bin	6490	0
bin	6630	0
bin	6770	0
bin	6910	0
bin	7050	0
bin	7190	0
bin	7330	0
bin	7470	0
bin	7610	0
bin	7750	0
bin	7890	0
bin	8030	0
bin	8170	0
bin	8310	607
bin	8450	0
scalar LargeNet.switch1.ethernet.fcsInserter flowIncomingPacketLengths:sum 0
attr interpolationmode none
attr recordingmode sum
attr source "packetLength(demuxFlow(merge(packetPushedIn, packetPulledIn)))"
attr title "flow specific incoming packet lengths, sum"
attr unit b
statistic LargeNet.switch1.ethernet.fcsInserter flowIncomingPacketLengths:histogram
field count 0
field mean -nan
field stddev nan
field min nan
field max nan
field sum 0
field sqrsum 0
attr interpolationmode none
attr recordingmode histogram
attr source "packetLength(demuxFlow(merge(packetPushedIn, packetPulledIn)))"
attr title "flow specific incoming packet lengths"
attr unit b
bin	-inf	0
bin	0	0
bin	1	0
scalar LargeNet.switch1.ethernet.macHeaderChecker outgoingPackets:count 1645
attr recordingmode count
attr source "merge(packetPushedOut, packetPulledOut)"
attr title "outgoing packets, count"
attr unit pk
scalar LargeNet.switch1.ethernet.macHeaderChecker outgoingPacketLengths:sum 5825552
attr interpolationmode none
attr recordingmode sum
attr source "packetLength(merge(packetPushedOut, packetPulledOut))"
attr title "outgoing packet lengths, sum"
attr unit b
statistic LargeNet.switch1.ethernet.macHeaderChecker outgoingPacketLengths:histogram
field count 1645
field mean 3541.3689969605
field stddev 3576.4460445563
field min 368
field max 8216
field sum 5825552
field sqrsum 41658777856
attr interpolationmode none
attr recordingmode histogram
attr source "packetLength(merge(packetPushedOut, packetPulledOut))"
attr title "outgoing packet lengths"
attr unit b
bin	-inf	0
bin	0	0
bin	200	37
bin	400	0
bin	600	0
bin	800	1001
bin	1000	0
bin	1200	0
bin	1400	0
bin	1600	0
bin	1800	0
bin	2000	0
bin	2200	0
bin	2400	0
bin	2600	0
bin	2800	0
bin	3000	0
bin	3200	0
bin	3400	0
bin	3600	0
bin	3800	0
bin	4000	0
bin	4200	0
bin	4400	0
bin	4600	0
bin	4800	0
bin	5000	0
bin	5200	0
bin	5400	0
bin	5600	0
bin	5800	0
bin	6000	0
bin	6200	0
bin	6400	0
bin	6600	0
bin	6800	0
bin	7000	0
bin	7200	0
bin	7400	0
bin	7600	0
bin	7800	0
bin	8000	0
bin	8200	607
bin	8400	0
bin	8600	0
bin	8800	0
bin	9000	0
bin	9200	0
bin	9400	0
bin	9600	0
bin	9800	0
bin	10000	0
bin	10200	0
scalar LargeNet.switch1.ethernet.macHeaderChecker flowOutgoingPacketLengths:sum 0
attr interpolationmode none
attr recordingmode sum
attr source "packetLength(demuxFlow(merge(packetPushedOut, packetPulledOut)))"
attr title "flow specific outgoing packet lengths, sum"
attr unit b
statistic LargeNet.switch1.ethernet.macHeaderChecker flowOutgoingPacketLengths:histogram
field count 0
field mean -nan
field stddev nan
field min nan
field max nan
field sum 0
field sqrsum 0
attr interpolationmode none
attr recordingmode histogram
attr source "packetLength(demuxFlow(merge(packetPushedOut, packetPulledOut)))"
attr title "flow specific outgoing packet lengths"
attr unit b
bin	-inf	0
bin	0	0
bin	1	0
scalar LargeNet.switch1.ethernet.macHeaderChecker incomingPackets:count 1645
attr recordingmode count
attr source "merge(packetPushedIn, packetPulledIn)"
attr title "incoming packets, count"
attr unit pk
scalar LargeNet.switch1.ethernet.macHeaderChecker incomingPacketLengths:sum 6009792
attr interpolationmode none
attr recordingmode sum
attr source "packetLength(merge(packetPushedIn, packetPulledIn))"
attr title "incoming packet lengths, sum"
attr unit b
statistic LargeNet.switch1.ethernet.macHeaderChecker incomingPacketLengths:histogram
field count 1645
field mean 3653.3689969605
field stddev 3576.4460445563
field min 480
field max 8328
field sum 6009792
field sqrsum 42984336384
attr interpolationmode none
attr recordingmode histogram
attr source "packetLength(merge(packetPushedIn, packetPulledIn))"
attr title "incoming packet lengths"
attr unit b
bin	-inf	0
bin	0	0
bin	200	0
bin	400	37
bin	600	0
bin	800	1001
bin	1000	0
bin	1200	0
bin	1400	0
bin	1600	0
bin	1800	0
bin	2000	0
bin	2200	0
bin	2400	0
bin	2600	0
bin	2800	0
bin	3000	0
bin	3200	0
bin	3400	0
bin	3600	0
bin	3800	0
bin	4000	0
bin	4200	0
bin	4400	0
bin	4600	0
bin	4800	0
bin	5000	0
bin	5200	0
bin	5400	0
bin	5600	0
bin	5800	0
bin	6000	0
bin	6200	0
bin	6400	0
bin	6600	0
bin	6800	0
bin	7000	0
bin	7200	0
bin	7400	0
bin	7600	0
bin	7800	0
bin	8000	0
bin	8200	607
bin	8400	0
bin	8600	0
bin	8800	0
bin	9000	0
bin	9200	0
bin	9400	0
bin	9600	0
bin	9800	0
bin	10000	0
bin	10200	0
bin	10400	0
scalar LargeNet.switch1.ethernet.macHeaderChecker flowIncomingPacketLengths:sum 0
attr interpolationmode none
attr recordingmode sum
attr source "packetLength(demuxFlow(merge(packetPushedIn, packetPulledIn)))"
attr title "flow specific incoming packet lengths, sum"
attr unit b
statistic LargeNet.switch1.ethernet.macHeaderChecker flowIncomingPacketLengths:histogram
field count 0
field mean -nan
field stddev nan
field min nan
field max nan
field sum 0
field sqrsum 0
attr interpolationmode none
attr recordingmode histogram
attr source "packetLength(demuxFlow(merge(packetPushedIn, packetPulledIn)))"
attr title "flow specific incoming packet lengths"
attr unit b
bin	-inf	0
bin	0	0
bin	1	0
scalar LargeNet.switch1.ethernet.macHeaderChecker droppedPackets:count 0
attr recordingmode count
attr source packetDropped
attr title "dropped packets, count"
attr unit pk
scalar LargeNet.switch1.ethernet.macHeaderChecker droppedPacketLengths:sum 0
attr interpolationmode none
attr recordingmode sum
attr source packetLength(packetDropped)
attr title "dropped packet lengths, sum"
attr unit b
statistic LargeNet.switch1.ethernet.macHeaderChecker droppedPacketLengths:histogram
field count 0
field mean -nan
field stddev nan
field min nan
field max nan
field sum 0
field sqrsum 0
attr interpolationmode none
attr recordingmode histogram
attr source packetLength(packetDropped)
attr title "dropped packet lengths"
attr unit b
bin	-inf	0
bin	0	0
bin	1	0
scalar LargeNet.switch1.ethernet.macHeaderChecker flowDroppedPacketLengths:sum 0
attr interpolationmode none
attr recordingmode sum
attr source packetLength(demuxFlow(packetDropped))
attr title "flow specific dropped packet lengths, sum"
attr unit b
statistic LargeNet.switch1.ethernet.macHeaderChecker flowDroppedPacketLengths:histogram
field count 0
field mean -nan
field stddev nan
field min nan
field max nan
field sum 0
field sqrsum 0
attr interpolationmode none
attr recordingmode histogram
attr source packetLength(demuxFlow(packetDropped))
attr title "flow specific dropped packet lengths"
attr unit b
bin	-inf	0
bin	0	0
bin	1	0
scalar LargeNet.switch1.ethernet.fcsChecker outgoingPackets:count 1645
attr recordingmode count
attr source "merge(packetPushedOut, packetPulledOut)"
attr title "outgoing packets, count"
attr unit pk
scalar LargeNet.switch1.ethernet.fcsChecker outgoingPacketLengths:sum 6009792
attr interpolationmode none
attr recordingmode sum
attr source "packetLength(merge(packetPushedOut, packetPulledOut))"
attr title "outgoing packet lengths, sum"
attr unit b
statistic LargeNet.switch1.ethernet.fcsChecker outgoingPacketLengths:histogram
field count 1645
field mean 3653.3689969605
field stddev 3576.4460445563
field min 480
field max 8328
field sum 6009792
field sqrsum 42984336384
attr interpolationmode none
attr recordingmode histogram
attr source "packetLength(merge(packetPushedOut, packetPulledOut))"
attr title "outgoing packet lengths"
attr unit b
bin	-inf	0
bin	0	0
bin	200	0
bin	400	37
bin	600	0
bin	800	1001
bin	1000	0
bin	1200	0
bin	1400	0
bin	1600	0
bin	1800	0
bin	2000	0
bin	2200	0
bin	2400	0
bin	2600	0
bin	2800	0
bin	3000	0
bin	3200	0
bin	3400	0
bin	3600	0
bin	3800	0
bin	4000	0
bin	4200	0
bin	4400	0
bin	4600	0
bin	4800	0
bin	5000	0
bin	5200	0
bin	5400	0
bin	5600	0
bin	5800	0
bin	6000	0
bin	6200	0
bin	6400	0
bin	6600	0
bin	6800	0
bin	7000	0
bin	7200	0
bin	7400	0
bin	7600	0
bin	7800	0
bin	8000	0
bin	8200	607
bin	8400	0
bin	8600	0
bin	8800	0
bin	9000	0
bin	9200	0
bin	9400	0
bin	9600	0
bin	9800	0
bin	10000	0
bin	10200	0
bin	10400	0
scalar LargeNet.switch1.ethernet.fcsChecker flowOutgoingPacketLengths:sum 0
attr interpolationmode none
attr recordingmode sum
attr source "packetLength(demuxFlow(merge(packetPushedOut, packetPulledOut)))"
attr title "flow specific outgoing packet lengths, sum"
attr unit b
statistic LargeNet.switch1.ethernet.fcsChecker flowOutgoingPacketLengths:histogram
field count 0
field mean -nan
field stddev nan
field min nan
field max nan
field sum 0
field sqrsum 0
attr interpolationmode none
attr recordingmode histogram
attr source "packetLength(demuxFlow(merge(packetPushedOut, packetPulledOut)))"
attr title "flow specific outgoing packet lengths"
attr unit b
bin	-inf	0
bin	0	0
bin	1	0
scalar LargeNet.switch1.ethernet.fcsChecker incomingPackets:count 1645
attr recordingmode count
attr source "merge(packetPushedIn, packetPulledIn)"
attr title "incoming packets, count"
attr unit pk
scalar LargeNet.switch1.ethernet.fcsChecker incomingPacketLengths:sum 6062432
attr interpolationmode none
attr recordingmode sum
attr source "packetLength(merge(packetPushedIn, packetPulledIn))"
attr title "incoming packet lengths, sum"
attr unit b
statistic LargeNet.switch1.ethernet.fcsChecker incomingPacketLengths:histogram
field count 1645
field mean 3685.3689969605
field stddev 3576.4460445563
field min 512
field max 8360
field sum 6062432
field sqrsum 43370647552
attr interpolationmode none
attr recordingmode histogram
attr source "packetLength(merge(packetPushedIn, packetPulledIn))"
attr title "incoming packet lengths"
attr unit b
bin	-inf	0
bin	0	0
bin	200	0
bin	400	37
bin	600	0
bin	800	1001
bin	1000	0
bin	1200	0
bin	1400	0
bin	1600	0
bin	1800	0
bin	2000	0
bin	2200	0
bin	2400	0
bin	2600	0
bin	2800	0
bin	3000	0
bin	3200	0
bin	3400	0
bin	3600	0
bin	3800	0
bin	4000	0
bin	4200	0
bin	4400	0
bin	4600	0
bin	4800	0
bin	5000	0
bin	5200	0
bin	5400	0
bin	5600	0
bin	5800	0
bin	6000	0
bin	6200	0
bin	6400	0
bin	6600	0
bin	6800	0
bin	7000	0
bin	7200	0
bin	7400	0
bin	7600	0
bin	7800	0
bin	8000	0
bin	8200	607
bin	8400	0
bin	8600	0
bin	8800	0
bin	9000	0
bin	9200	0
bin	9400	0
bin	9600	0
bin	9800	0
bin	10000	0
bin	10200	0
bin	10400	0
scalar LargeNet.switch1.ethernet.fcsChecker flowIncomingPacketLengths:sum 0
attr interpolationmode none
attr recordingmode sum
attr source "packetLength(demuxFlow(merge(packetPushedIn, packetPulledIn)))"
attr title "flow specific incoming packet lengths, sum"
attr unit b
statistic LargeNet.switch1.ethernet.fcsChecker flowIncomingPacketLengths:histogram
field count 0
field mean -nan
field stddev nan
field min nan
field max nan
field sum 0
field sqrsum 0
attr interpolationmode none
attr recordingmode histogram
attr source "packetLength(demuxFlow(merge(packetPushedIn, packetPulledIn)))"
attr title "flow specific incoming packet lengths"
attr unit b
bin	-inf	0
bin	0	0
bin	1	0
scalar LargeNet.switch1.ethernet.fcsChecker droppedPackets:count 0
attr recordingmode count
attr source packetDropped
attr title "dropped packets, count"
attr unit pk
scalar LargeNet.switch1.ethernet.fcsChecker droppedPacketLengths:sum 0
attr interpolationmode none
attr recordingmode sum
attr source packetLength(packetDropped)
attr title "dropped packet lengths, sum"
attr unit b
statistic LargeNet.switch1.ethernet.fcsChecker droppedPacketLengths:histogram
field count 0
field mean -nan
field stddev nan
field min nan
field max nan
field sum 0
field sqrsum 0
attr interpolationmode none
attr recordingmode histogram
attr source packetLength(packetDropped)
attr title "dropped packet lengths"
attr unit b
bin	-inf	0
bin	0	0
bin	1	0
scalar LargeNet.switch1.ethernet.fcsChecker flowDroppedPacketLengths:sum 0
attr interpolationmode none
attr recordingmode sum
attr source packetLength(demuxFlow(packetDropped))
attr title "flow specific dropped packet lengths, sum"
attr unit b
statistic LargeNet.switch1.ethernet.fcsChecker flowDroppedPacketLengths:histogram
field count 0
field mean -nan
field stddev nan
field min nan
field max nan
field sum 0
field sqrsum 0
attr interpolationmode none
attr recordingmode histogram
attr source packetLength(demuxFlow(packetDropped))
attr title "flow specific dropped packet lengths"
attr unit b
bin	-inf	0
bin	0	0
bin	1	0
scalar LargeNet.switch1.ieee8021q.qTagHeaderInserter outgoingPackets:count 0
attr recordingmode count
attr source "merge(packetPushedOut, packetPulledOut)"
attr title "outgoing packets, count"
attr unit pk
scalar LargeNet.switch1.ieee8021q.qTagHeaderInserter outgoingPacketLengths:sum 0
attr interpolationmode none
attr recordingmode sum
attr source "packetLength(merge(packetPushedOut, packetPulledOut))"
attr title "outgoing packet lengths, sum"
attr unit b
statistic LargeNet.switch1.ieee8021q.qTagHeaderInserter outgoingPacketLengths:histogram
field count 0
field mean -nan
field stddev nan
field min nan
field max nan
field sum 0
field sqrsum 0
attr interpolationmode none
attr recordingmode histogram
attr source "packetLength(merge(packetPushedOut, packetPulledOut))"
attr title "outgoing packet lengths"
attr unit b
bin	-inf	0
bin	0	0
bin	1	0
scalar LargeNet.switch1.ieee8021q.qTagHeaderInserter flowOutgoingPacketLengths:sum 0
attr interpolationmode none
attr recordingmode sum
attr source "packetLength(demuxFlow(merge(packetPushedOut, packetPulledOut)))"
attr title "flow specific outgoing packet lengths, sum"
attr unit b
statistic LargeNet.switch1.ieee8021q.qTagHeaderInserter flowOutgoingPacketLengths:histogram
field count 0
field mean -nan
field stddev nan
field min nan
field max nan
field sum 0
field sqrsum 0
attr interpolationmode none
attr recordingmode histogram
attr source "packetLength(demuxFlow(merge(packetPushedOut, packetPulledOut)))"
attr title "flow specific outgoing packet lengths"
attr unit b
bin	-inf	0
bin	0	0
bin	1	0
scalar LargeNet.switch1.ieee8021q.qTagHeaderInserter incomingPackets:count 0
attr recordingmode count
attr source "merge(packetPushedIn, packetPulledIn)"
attr title "incoming packets, count"
attr unit pk
scalar LargeNet.switch1.ieee8021q.qTagHeaderInserter incomingPacketLengths:sum 0
attr interpolationmode none
attr recordingmode sum
attr source "packetLength(merge(packetPushedIn, packetPulledIn))"
attr title "incoming packet lengths, sum"
attr unit b
statistic LargeNet.switch1.ieee8021q.qTagHeaderInserter incomingPacketLengths:histogram
field count 0
field mean -nan
field stddev nan
field min nan
field max nan
field sum 0
field sqrsum 0
attr interpolationmode none
attr recordingmode histogram
attr source "packetLength(merge(packetPushedIn, packetPulledIn))"
attr title "incoming packet lengths"
attr unit b
bin	-inf	0
bin	0	0
bin	1	0
scalar LargeNet.switch1.ieee8021q.qTagHeaderInserter flowIncomingPacketLengths:sum 0
attr interpolationmode none
attr recordingmode sum
attr source "packetLength(demuxFlow(merge(packetPushedIn, packetPulledIn)))"
attr title "flow specific incoming packet lengths, sum"
attr unit b
statistic LargeNet.switch1.ieee8021q.qTagHeaderInserter flowIncomingPacketLengths:histogram
field count 0
field mean -nan
field stddev nan
field min nan
field max nan
field sum 0
field sqrsum 0
attr interpolationmode none
attr recordingmode histogram
attr source "packetLength(demuxFlow(merge(packetPushedIn, packetPulledIn)))"
attr title "flow specific incoming packet lengths"
attr unit b
bin	-inf	0
bin	0	0
bin	1	0
scalar LargeNet.switch1.ieee8021q.qTagHeaderChecker outgoingPackets:count 0
attr recordingmode count
attr source "merge(packetPushedOut, packetPulledOut)"
attr title "outgoing packets, count"
attr unit pk
scalar LargeNet.switch1.ieee8021q.qTagHeaderChecker outgoingPacketLengths:sum 0
attr interpolationmode none
attr recordingmode sum
attr source "packetLength(merge(packetPushedOut, packetPulledOut))"
attr title "outgoing packet lengths, sum"
attr unit b
statistic LargeNet.switch1.ieee8021q.qTagHeaderChecker outgoingPacketLengths:histogram
field count 0
field mean -nan
field stddev nan
field min nan
field max nan
field sum 0
field sqrsum 0
attr interpolationmode none
attr recordingmode histogram
attr source "packetLength(merge(packetPushedOut, packetPulledOut))"
attr title "outgoing packet lengths"
attr unit b
bin	-inf	0
bin	0	0
bin	1	0
scalar LargeNet.switch1.ieee8021q.qTagHeaderChecker flowOutgoingPacketLengths:sum 0
attr interpolationmode none
attr recordingmode sum
attr source "packetLength(demuxFlow(merge(packetPushedOut, packetPulledOut)))"
attr title "flow specific outgoing packet lengths, sum"
attr unit b
statistic LargeNet.switch1.ieee8021q.qTagHeaderChecker flowOutgoingPacketLengths:histogram
field count 0
field mean -nan
field stddev nan
field min nan
field max nan
field sum 0
field sqrsum 0
attr interpolationmode none
attr recordingmode histogram
attr source "packetLength(demuxFlow(merge(packetPushedOut, packetPulledOut)))"
attr title "flow specific outgoing packet lengths"
attr unit b
bin	-inf	0
bin	0	0
bin	1	0
scalar LargeNet.switch1.ieee8021q.qTagHeaderChecker incomingPackets:count 0
attr recordingmode count
attr source "merge(packetPushedIn, packetPulledIn)"
attr title "incoming packets, count"
attr unit pk
scalar LargeNet.switch1.ieee8021q.qTagHeaderChecker incomingPacketLengths:sum 0
attr interpolationmode none
attr recordingmode sum
attr source "packetLength(merge(packetPushedIn, packetPulledIn))"
attr title "incoming packet lengths, sum"
attr unit b
statistic LargeNet.switch1.ieee8021q.qTagHeaderChecker incomingPacketLengths:histogram
field count 0
field mean -nan
field stddev nan
field min nan
field max nan
field sum 0
field sqrsum 0
attr interpolationmode none
attr recordingmode histogram
attr source "packetLength(merge(packetPushedIn, packetPulledIn))"
attr title "incoming packet lengths"
attr unit b
bin	-inf	0
bin	0	0
bin	1	0
scalar LargeNet.switch1.ieee8021q.qTagHeaderChecker flowIncomingPacketLengths:sum 0
attr interpolationmode none
attr recordingmode sum
attr source "packetLength(demuxFlow(merge(packetPushedIn, packetPulledIn)))"
attr title "flow specific incoming packet lengths, sum"
attr unit b
statistic LargeNet.switch1.ieee8021q.qTagHeaderChecker flowIncomingPacketLengths:histogram
field count 0
field mean -nan
field stddev nan
field min nan
field max nan
field sum 0
field sqrsum 0
attr interpolationmode none
attr recordingmode histogram
attr source "packetLength(demuxFlow(merge(packetPushedIn, packetPulledIn)))"
attr title "flow specific incoming packet lengths"
attr unit b
bin	-inf	0
bin	0	0
bin	1	0
scalar LargeNet.switch1.ieee8021q.qTagHeaderChecker droppedPackets:count 0
attr recordingmode count
attr source packetDropped
attr title "dropped packets, count"
attr unit pk
scalar LargeNet.switch1.ieee8021q.qTagHeaderChecker droppedPacketLengths:sum 0
attr interpolationmode none
attr recordingmode sum
attr source packetLength(packetDropped)
attr title "dropped packet lengths, sum"
attr unit b
statistic LargeNet.switch1.ieee8021q.qTagHeaderChecker droppedPacketLengths:histogram
field count 0
field mean -nan
field stddev nan
field min nan
field max nan
field sum 0
field sqrsum 0
attr interpolationmode none
attr recordingmode histogram
attr source packetLength(packetDropped)
attr title "dropped packet lengths"
attr unit b
bin	-inf	0
bin	0	0
bin	1	0
scalar LargeNet.switch1.ieee8021q.qTagHeaderChecker flowDroppedPacketLengths:sum 0
attr interpolationmode none
attr recordingmode sum
attr source packetLength(demuxFlow(packetDropped))
attr title "flow specific dropped packet lengths, sum"
attr unit b
statistic LargeNet.switch1.ieee8021q.qTagHeaderChecker flowDroppedPacketLengths:histogram
field count 0
field mean -nan
field stddev nan
field min nan
field max nan
field sum 0
field sqrsum 0
attr interpolationmode none
attr recordingmode histogram
attr source packetLength(demuxFlow(packetDropped))
attr title "flow specific dropped packet lengths"
attr unit b
bin	-inf	0
bin	0	0
bin	1	0
scalar LargeNet.switch1.ieee8021r.rTagHeaderInserter outgoingPackets:count 0
attr recordingmode count
attr source "merge(packetPushedOut, packetPulledOut)"
attr title "outgoing packets, count"
attr unit pk
scalar LargeNet.switch1.ieee8021r.rTagHeaderInserter outgoingPacketLengths:sum 0
attr interpolationmode none
attr recordingmode sum
attr source "packetLength(merge(packetPushedOut, packetPulledOut))"
attr title "outgoing packet lengths, sum"
attr unit b
statistic LargeNet.switch1.ieee8021r.rTagHeaderInserter outgoingPacketLengths:histogram
field count 0
field mean -nan
field stddev nan
field min nan
field max nan
field sum 0
field sqrsum 0
attr interpolationmode none
attr recordingmode histogram
attr source "packetLength(merge(packetPushedOut, packetPulledOut))"
attr title "outgoing packet lengths"
attr unit b
bin	-inf	0
bin	0	0
bin	1	0
scalar LargeNet.switch1.ieee8021r.rTagHeaderInserter flowOutgoingPacketLengths:sum 0
attr interpolationmode none
attr recordingmode sum
attr source "packetLength(demuxFlow(merge(packetPushedOut, packetPulledOut)))"
attr title "flow specific outgoing packet lengths, sum"
attr unit b
statistic LargeNet.switch1.ieee8021r.rTagHeaderInserter flowOutgoingPacketLengths:histogram
field count 0
field mean -nan
field stddev nan
field min nan
field max nan
field sum 0
field sqrsum 0
attr interpolationmode none
attr recordingmode histogram
attr source "packetLength(demuxFlow(merge(packetPushedOut, packetPulledOut)))"
attr title "flow specific outgoing packet lengths"
attr unit b
bin	-inf	0
bin	0	0
bin	1	0
scalar LargeNet.switch1.ieee8021r.rTagHeaderInserter incomingPackets:count 0
attr recordingmode count
attr source "merge(packetPushedIn, packetPulledIn)"
attr title "incoming packets, count"
attr unit pk
scalar LargeNet.switch1.ieee8021r.rTagHeaderInserter incomingPacketLengths:sum 0
attr interpolationmode none
attr recordingmode sum
attr source "packetLength(merge(packetPushedIn, packetPulledIn))"
attr title "incoming packet lengths, sum"
attr unit b
statistic LargeNet.switch1.ieee8021r.rTagHeaderInserter incomingPacketLengths:histogram
field count 0
field mean -nan
field stddev nan
field min nan
field max nan
field sum 0
field sqrsum 0
attr interpolationmode none
attr recordingmode histogram
attr source "packetLength(merge(packetPushedIn, packetPulledIn))"
attr title "incoming packet lengths"
attr unit b
bin	-inf	0
bin	0	0
bin	1	0
scalar LargeNet.switch1.ieee8021r.rTagHeaderInserter flowIncomingPacketLengths:sum 0
attr interpolationmode none
attr recordingmode sum
attr source "packetLength(demuxFlow(merge(packetPushedIn, packetPulledIn)))"
attr title "flow specific incoming packet lengths, sum"
attr unit b
statistic LargeNet.switch1.ieee8021r.rTagHeaderInserter flowIncomingPacketLengths:histogram
field count 0
field mean -nan
field stddev nan
field min nan
field max nan
field sum 0
field sqrsum 0
attr interpolationmode none
attr recordingmode histogram
attr source "packetLength(demuxFlow(merge(packetPushedIn, packetPulledIn)))"
attr title "flow specific incoming packet lengths"
attr unit b
bin	-inf	0
bin	0	0
bin	1	0
scalar LargeNet.switch1.ieee8021r.rTagHeaderChecker outgoingPackets:count 0
attr recordingmode count
attr source "merge(packetPushedOut, packetPulledOut)"
attr title "outgoing packets, count"
attr unit pk
scalar LargeNet.switch1.ieee8021r.rTagHeaderChecker outgoingPacketLengths:sum 0
attr interpolationmode none
attr recordingmode sum
attr source "packetLength(merge(packetPushedOut, packetPulledOut))"
attr title "outgoing packet lengths, sum"
attr unit b
statistic LargeNet.switch1.ieee8021r.rTagHeaderChecker outgoingPacketLengths:histogram
field count 0
field mean -nan
field stddev nan
field min nan
field max nan
field sum 0
field sqrsum 0
attr interpolationmode none
attr recordingmode histogram
attr source "packetLength(merge(packetPushedOut, packetPulledOut))"
attr title "outgoing packet lengths"
attr unit b
bin	-inf	0
bin	0	0
bin	1	0
scalar LargeNet.switch1.ieee8021r.rTagHeaderChecker flowOutgoingPacketLengths:sum 0
attr interpolationmode none
attr recordingmode sum
attr source "packetLength(demuxFlow(merge(packetPushedOut, packetPulledOut)))"
attr title "flow specific outgoing packet lengths, sum"
attr unit b
statistic LargeNet.switch1.ieee8021r.rTagHeaderChecker flowOutgoingPacketLengths:histogram
field count 0
field mean -nan
field stddev nan
field min nan
field max nan
field sum 0
field sqrsum 0
attr interpolationmode none
attr recordingmode histogram
attr source "packetLength(demuxFlow(merge(packetPushedOut, packetPulledOut)))"
attr title "flow specific outgoing packet lengths"
attr unit b
bin	-inf	0
bin	0	0
bin	1	0
scalar LargeNet.switch1.ieee8021r.rTagHeaderChecker incomingPackets:count 0
attr recordingmode count
attr source "merge(packetPushedIn, packetPulledIn)"
attr title "incoming packets, count"
attr unit pk
scalar LargeNet.switch1.ieee8021r.rTagHeaderChecker incomingPacketLengths:sum 0
attr interpolationmode none
attr recordingmode sum
attr source "packetLength(merge(packetPushedIn, packetPulledIn))"
attr title "incoming packet lengths, sum"
attr unit b
statistic LargeNet.switch1.ieee8021r.rTagHeaderChecker incomingPacketLengths:histogram
field count 0
field mean -nan
field stddev nan
field min nan
field max nan
field sum 0
field sqrsum 0
attr interpolationmode none
attr recordingmode histogram
attr source "packetLength(merge(packetPushedIn, packetPulledIn))"
attr title "incoming packet lengths"
attr unit b
bin	-inf	0
bin	0	0
bin	1	0
scalar LargeNet.switch1.ieee8021r.rTagHeaderChecker flowIncomingPacketLengths:sum 0
attr interpolationmode none
attr recordingmode sum
attr source "packetLength(demuxFlow(merge(packetPushedIn, packetPulledIn)))"
attr title "flow specific incoming packet lengths, sum"
attr unit b
statistic LargeNet.switch1.ieee8021r.rTagHeaderChecker flowIncomingPacketLengths:histogram
field count 0
field mean -nan
field stddev nan
field min nan
field max nan
field sum 0
field sqrsum 0
attr interpolationmode none
attr recordingmode histogram
attr source "packetLength(demuxFlow(merge(packetPushedIn, packetPulledIn)))"
attr title "flow specific incoming packet lengths"
attr unit b
bin	-inf	0
bin	0	0
bin	1	0
scalar LargeNet.switch1.ieee8021r.rTagHeaderChecker droppedPackets:count 0
attr recordingmode count
attr source packetDropped
attr title "dropped packets, count"
attr unit pk
scalar LargeNet.switch1.ieee8021r.rTagHeaderChecker droppedPacketLengths:sum 0
attr interpolationmode none
attr recordingmode sum
attr source packetLength(packetDropped)
attr title "dropped packet lengths, sum"
attr unit b
statistic LargeNet.switch1.ieee8021r.rTagHeaderChecker droppedPacketLengths:histogram
field count 0
field mean -nan
field stddev nan
field min nan
field max nan
field sum 0
field sqrsum 0
attr interpolationmode none
attr recordingmode histogram
attr source packetLength(packetDropped)
attr title "dropped packet lengths"
attr unit b
bin	-inf	0
bin	0	0
bin	1	0
scalar LargeNet.switch1.ieee8021r.rTagHeaderChecker flowDroppedPacketLengths:sum 0
attr interpolationmode none
attr recordingmode sum
attr source packetLength(demuxFlow(packetDropped))
attr title "flow specific dropped packet lengths, sum"
attr unit b
statistic LargeNet.switch1.ieee8021r.rTagHeaderChecker flowDroppedPacketLengths:histogram
field count 0
field mean -nan
field stddev nan
field min nan
field max nan
field sum 0
field sqrsum 0
attr interpolationmode none
attr recordingmode histogram
attr source packetLength(demuxFlow(packetDropped))
attr title "flow specific dropped packet lengths"
attr unit b
bin	-inf	0
bin	0	0
bin	1	0
scalar LargeNet.switch1.eth[0].macLayer.queue queueLength:last 0
attr autoWarmupFilter false
attr interpolationmode sample-hold
attr recordingmode last
attr source "warmup(atomic(constant0(packetPushEnded) + count(packetPushStarted) - count(packetPulled) - count(packetRemoved) - count(packetDropped)))"
attr title "queue length, last"
attr unit pk
scalar LargeNet.switch1.eth[0].macLayer.queue queueLength:max 1
attr autoWarmupFilter false
attr interpolationmode sample-hold
attr recordingmode max
attr source "warmup(atomic(constant0(packetPushEnded) + count(packetPushStarted) - count(packetPulled) - count(packetRemoved) - count(packetDropped)))"
attr title "queue length, max"
attr unit pk
scalar LargeNet.switch1.eth[0].macLayer.queue queueLength:timeavg 3.0050251256281e-09
attr autoWarmupFilter false
attr interpolationmode sample-hold
attr recordingmode timeavg
attr source "warmup(atomic(constant0(packetPushEnded) + count(packetPushStarted) - count(packetPulled) - count(packetRemoved) - count(packetDropped)))"
attr title "queue length, timeavg"
attr unit pk
scalar LargeNet.switch1.eth[0].macLayer.queue queueBitLength:last 0
attr autoWarmupFilter false
attr interpolationmode sample-hold
attr recordingmode last
attr source "warmup(atomic(constant0(packetPushEnded) + sum(packetLength(packetPushStarted)) - sum(packetLength(packetPulled)) - sum(packetLength(packetRemoved)) - sum(packetLength(packetDropped))))"
attr title "queue bit length, last"
attr unit b
scalar LargeNet.switch1.eth[0].macLayer.queue queueBitLength:max 512
attr autoWarmupFilter false
attr interpolationmode sample-hold
attr recordingmode max
attr source "warmup(atomic(constant0(packetPushEnded) + sum(packetLength(packetPushStarted)) - sum(packetLength(packetPulled)) - sum(packetLength(packetRemoved)) - sum(packetLength(packetDropped))))"
attr title "queue bit length, max"
attr unit b
scalar LargeNet.switch1.eth[0].macLayer.queue queueBitLength:timeavg 1.5385728643216e-06
attr autoWarmupFilter false
attr interpolationmode sample-hold
attr recordingmode timeavg
attr source "warmup(atomic(constant0(packetPushEnded) + sum(packetLength(packetPushStarted)) - sum(packetLength(packetPulled)) - sum(packetLength(packetRemoved)) - sum(packetLength(packetDropped))))"
attr title "queue bit length, timeavg"
attr unit b
statistic LargeNet.switch1.eth[0].macLayer.queue queueingTime:histogram
field count 1218
field mean 4.9096880131363e-10
field stddev 4.7288343171469e-09
field min 0
field max 4.6e-08
field sum 5.98e-07
field sqrsum 2.7508e-14
attr interpolationmode none
attr recordingmode histogram
attr source queueingTime(packetPulled)
attr title "queueing times"
attr unit s
bin	-inf	0
bin	0	1205
bin	1e-09	0
bin	2e-09	0
bin	3e-09	0
bin	4e-09	0
bin	5e-09	0
bin	6e-09	0
bin	7e-09	0
bin	8e-09	0
bin	9e-09	0
bin	1e-08	0
bin	1.1e-08	0
bin	1.2e-08	0
bin	1.3e-08	0
bin	1.4e-08	0
bin	1.5e-08	0
bin	1.6e-08	0
bin	1.7e-08	0
bin	1.8e-08	0
bin	1.9e-08	0
bin	2e-08	0
bin	2.1e-08	0
bin	2.2e-08	0
bin	2.3e-08	0
bin	2.4e-08	0
bin	2.5e-08	0
bin	2.6e-08	0
bin	2.7e-08	0
bin	2.8e-08	0
bin	2.9e-08	0
bin	3e-08	0
bin	3.1e-08	0
bin	3.2e-08	0
bin	3.3e-08	0
bin	3.4e-08	0
bin	3.5e-08	0
bin	3.6e-08	0
bin	3.7e-08	0
bin	3.8e-08	0
bin	3.9e-08	0
bin	4e-08	0
bin	4.1e-08	0
bin	4.2e-08	0
bin	4.3e-08	0
bin	4.4e-08	0
bin	4.5e-08	13
bin	4.6e-08	0
bin	4.7e-08	0
bin	4.8e-08	0
bin	4.9e-08	0
bin	5e-08	0
bin	5.1e-08	0
bin	5.2e-08	0
bin	5.3e-08	0
bin	5.4e-08	0
bin	5.5e-08	0
bin	5.6e-08	0
bin	5.7e-08	0
bin	5.8e-08	0
scalar LargeNet.switch1.eth[0].macLayer.queue outgoingPackets:count 1218
attr recordingmode count
attr source packetPulled
attr title "outgoing packets, count"
attr unit pk
scalar LargeNet.switch1.eth[0].macLayer.queue outgoingPacketLengths:sum 3268104
attr interpolationmode none
attr recordingmode sum
attr source packetLength(packetPulled)
attr title "outgoing packet lengths, sum"
attr unit b
statistic LargeNet.switch1.eth[0].macLayer.queue outgoingPacketLengths:histogram
field count 1218
field mean 2683.1724137931
field stddev 3222.2422195994
field min 512
field max 8360
field sum 3268104
field sqrsum 21404808768
attr interpolationmode none
attr recordingmode histogram
attr source packetLength(packetPulled)
attr title "outgoing packet lengths"
attr unit b
bin	-inf	0
bin	0	0
bin	200	0
bin	400	217
bin	600	0
bin	800	705
bin	1000	0
bin	1200	0
bin	1400	0
bin	1600	0
bin	1800	0
bin	2000	0
bin	2200	0
bin	2400	0
bin	2600	0
bin	2800	0
bin	3000	0
bin	3200	0
bin	3400	0
bin	3600	0
bin	3800	0
bin	4000	0
bin	4200	0
bin	4400	0
bin	4600	0
bin	4800	0
bin	5000	0
bin	5200	0
bin	5400	0
bin	5600	0
bin	5800	0
bin	6000	0
bin	6200	0
bin	6400	0
bin	6600	0
bin	6800	0
bin	7000	0
bin	7200	0
bin	7400	0
bin	7600	0
bin	7800	0
bin	8000	0
bin	8200	296
bin	8400	0
bin	8600	0
bin	8800	0
bin	9000	0
bin	9200	0
bin	9400	0
bin	9600	0
bin	9800	0
bin	10000	0
bin	10200	0
bin	10400	0
statistic LargeNet.switch1.eth[0].macLayer.queue flowQueueingTime:histogram
field count 0
field mean -nan
field stddev nan
field min nan
field max nan
field sum 0
field sqrsum 0
attr interpolationmode none
attr recordingmode histogram
attr source queueingTime(demuxFlow(packetPulled))
attr title "flow queueing times"
attr unit s
bin	-inf	0
bin	0	0
bin	1	0
scalar LargeNet.switch1.eth[0].macLayer.queue incomingPackets:count 1218
attr recordingmode count
attr source packetPushStarted
attr title "incoming packets, count"
attr unit pk
scalar LargeNet.switch1.eth[0].macLayer.queue incomingPacketLengths:sum 3268104
attr interpolationmode none
attr recordingmode sum
attr source packetLength(packetPushStarted)
attr title "incoming packet lengths, sum"
attr unit b
statistic LargeNet.switch1.eth[0].macLayer.queue incomingPacketLengths:histogram
field count 1218
field mean 2683.1724137931
field stddev 3222.2422195994
field min 512
field max 8360
field sum 3268104
field sqrsum 21404808768
attr interpolationmode none
attr recordingmode histogram
attr source packetLength(packetPushStarted)
attr title "incoming packet lengths"
attr unit b
bin	-inf	0
bin	0	0
bin	200	0
bin	400	217
bin	600	0
bin	800	705
bin	1000	0
bin	1200	0
bin	1400	0
bin	1600	0
bin	1800	0
bin	2000	0
bin	2200	0
bin	2400	0
bin	2600	0
bin	2800	0
bin	3000	0
bin	3200	0
bin	3400	0
bin	3600	0
bin	3800	0
bin	4000	0
bin	4200	0
bin	4400	0
bin	4600	0
bin	4800	0
bin	5000	0
bin	5200	0
bin	5400	0
bin	5600	0
bin	5800	0
bin	6000	0
bin	6200	0
bin	6400	0
bin	6600	0
bin	6800	0
bin	7000	0
bin	7200	0
bin	7400	0
bin	7600	0
bin	7800	0
bin	8000	0
bin	8200	296
bin	8400	0
bin	8600	0
bin	8800	0
bin	9000	0
bin	9200	0
bin	9400	0
bin	9600	0
bin	9800	0
bin	10000	0
bin	10200	0
bin	10400	0
scalar LargeNet.switch1.eth[0].macLayer.queue droppedPacketsQueueOverflow:count 0
attr interpolationmode none
attr recordingmode count
attr source packetDropReasonIsQueueOverflow(packetDropped)
attr title "dropped packets: queue overflow, count"
attr unit pk
scalar LargeNet.switch1.eth[0].macLayer.queue droppedPacketLengthsQueueOverflow:sum 0
attr interpolationmode none
attr recordingmode sum
attr source packetLength(packetDropReasonIsQueueOverflow(packetDropped))
attr title "dropped packet lengths: queue overflow, sum"
attr unit b
scalar LargeNet.switch1.eth[0].macLayer.server incomingPackets:count 1218
attr recordingmode count
attr source packetPulled
attr title "incoming packets, count"
attr unit pk
scalar LargeNet.switch1.eth[0].macLayer.server incomingPacketLengths:sum 3268104
attr interpolationmode none
attr recordingmode sum
attr source packetLength(packetPulled)
attr title "incoming packet lengths, sum"
attr unit b
statistic LargeNet.switch1.eth[0].macLayer.server incomingPacketLengths:histogram
field count 1218
field mean 2683.1724137931
field stddev 3222.2422195994
field min 512
field max 8360
field sum 3268104
field sqrsum 21404808768
attr interpolationmode none
attr recordingmode histogram
attr source packetLength(packetPulled)
attr title "incoming packet lengths"
attr unit b
bin	-inf	0
bin	0	0
bin	200	0
bin	400	217
bin	600	0
bin	800	705
bin	1000	0
bin	1200	0
bin	1400	0
bin	1600	0
bin	1800	0
bin	2000	0
bin	2200	0
bin	2400	0
bin	2600	0
bin	2800	0
bin	3000	0
bin	3200	0
bin	3400	0
bin	3600	0
bin	3800	0
bin	4000	0
bin	4200	0
bin	4400	0
bin	4600	0
bin	4800	0
bin	5000	0
bin	5200	0
bin	5400	0
bin	5600	0
bin	5800	0
bin	6000	0
bin	6200	0
bin	6400	0
bin	6600	0
bin	6800	0
bin	7000	0
bin	7200	0
bin	7400	0
bin	7600	0
bin	7800	0
bin	8000	0
bin	8200	296
bin	8400	0
bin	8600	0
bin	8800	0
bin	9000	0
bin	9200	0
bin	9400	0
bin	9600	0
bin	9800	0
bin	10000	0
bin	10200	0
bin	10400	0
scalar LargeNet.switch1.eth[0].macLayer.server outgoingPackets:count 1218
attr recordingmode count
attr source packetPushed
attr title "outgoing packets, count"
attr unit pk
scalar LargeNet.switch1.eth[0].macLayer.server outgoingPacketLengths:sum 3268104
attr interpolationmode none
attr recordingmode sum
attr source packetLength(packetPushed)
attr title "outgoing packet lengths, sum"
attr unit b
statistic LargeNet.switch1.eth[0].macLayer.server outgoingPacketLengths:histogram
field count 1218
field mean 2683.1724137931
field stddev 3222.2422195994
field min 512
field max 8360
field sum 3268104
field sqrsum 21404808768
attr interpolationmode none
attr recordingmode histogram
attr source packetLength(packetPushed)
attr title "outgoing packet lengths"
attr unit b
bin	-inf	0
bin	0	0
bin	200	0
bin	400	217
bin	600	0
bin	800	705
bin	1000	0
bin	1200	0
bin	1400	0
bin	1600	0
bin	1800	0
bin	2000	0
bin	2200	0
bin	2400	0
bin	2600	0
bin	2800	0
bin	3000	0
bin	3200	0
bin	3400	0
bin	3600	0
bin	3800	0
bin	4000	0
bin	4200	0
bin	4400	0
bin	4600	0
bin	4800	0
bin	5000	0
bin	5200	0
bin	5400	0
bin	5600	0
bin	5800	0
bin	6000	0
bin	6200	0
bin	6400	0
bin	6600	0
bin	6800	0
bin	7000	0
bin	7200	0
bin	7400	0
bin	7600	0
bin	7800	0
bin	8000	0
bin	8200	296
bin	8400	0
bin	8600	0
bin	8800	0
bin	9000	0
bin	9200	0
bin	9400	0
bin	9600	0
bin	9800	0
bin	10000	0
bin	10200	0
bin	10400	0
scalar LargeNet.switch1.eth[0].macLayer.outboundEmitter outgoingPackets:count 1218
attr recordingmode count
attr source "merge(packetPushedOut, packetPulledOut)"
attr title "outgoing packets, count"
attr unit pk
scalar LargeNet.switch1.eth[0].macLayer.outboundEmitter outgoingPacketLengths:sum 3268104
attr interpolationmode none
attr recordingmode sum
attr source "packetLength(merge(packetPushedOut, packetPulledOut))"
attr title "outgoing packet lengths, sum"
attr unit b
statistic LargeNet.switch1.eth[0].macLayer.outboundEmitter outgoingPacketLengths:histogram
field count 1218
field mean 2683.1724137931
field stddev 3222.2422195994
field min 512
field max 8360
field sum 3268104
field sqrsum 21404808768
attr interpolationmode none
attr recordingmode histogram
attr source "packetLength(merge(packetPushedOut, packetPulledOut))"
attr title "outgoing packet lengths"
attr unit b
bin	-inf	0
bin	0	0
bin	200	0
bin	400	217
bin	600	0
bin	800	705
bin	1000	0
bin	1200	0
bin	1400	0
bin	1600	0
bin	1800	0
bin	2000	0
bin	2200	0
bin	2400	0
bin	2600	0
bin	2800	0
bin	3000	0
bin	3200	0
bin	3400	0
bin	3600	0
bin	3800	0
bin	4000	0
bin	4200	0
bin	4400	0
bin	4600	0
bin	4800	0
bin	5000	0
bin	5200	0
bin	5400	0
bin	5600	0
bin	5800	0
bin	6000	0
bin	6200	0
bin	6400	0
bin	6600	0
bin	6800	0
bin	7000	0
bin	7200	0
bin	7400	0
bin	7600	0
bin	7800	0
bin	8000	0
bin	8200	296
bin	8400	0
bin	8600	0
bin	8800	0
bin	9000	0
bin	9200	0
bin	9400	0
bin	9600	0
bin	9800	0
bin	10000	0
bin	10200	0
bin	10400	0
scalar LargeNet.switch1.eth[0].macLayer.outboundEmitter flowOutgoingPacketLengths:sum 0
attr interpolationmode none
attr recordingmode sum
attr source "packetLength(demuxFlow(merge(packetPushedOut, packetPulledOut)))"
attr title "flow specific outgoing packet lengths, sum"
attr unit b
statistic LargeNet.switch1.eth[0].macLayer.outboundEmitter flowOutgoingPacketLengths:histogram
field count 0
field mean -nan
field stddev nan
field min nan
field max nan
field sum 0
field sqrsum 0
attr interpolationmode none
attr recordingmode histogram
attr source "packetLength(demuxFlow(merge(packetPushedOut, packetPulledOut)))"
attr title "flow specific outgoing packet lengths"
attr unit b
bin	-inf	0
bin	0	0
bin	1	0
scalar LargeNet.switch1.eth[0].macLayer.outboundEmitter incomingPackets:count 1218
attr recordingmode count
attr source "merge(packetPushedIn, packetPulledIn)"
attr title "incoming packets, count"
attr unit pk
scalar LargeNet.switch1.eth[0].macLayer.outboundEmitter incomingPacketLengths:sum 3268104
attr interpolationmode none
attr recordingmode sum
attr source "packetLength(merge(packetPushedIn, packetPulledIn))"
attr title "incoming packet lengths, sum"
attr unit b
statistic LargeNet.switch1.eth[0].macLayer.outboundEmitter incomingPacketLengths:histogram
field count 1218
field mean 2683.1724137931
field stddev 3222.2422195994
field min 512
field max 8360
field sum 3268104
field sqrsum 21404808768
attr interpolationmode none
attr recordingmode histogram
attr source "packetLength(merge(packetPushedIn, packetPulledIn))"
attr title "incoming packet lengths"
attr unit b
bin	-inf	0
bin	0	0
bin	200	0
bin	400	217
bin	600	0
bin	800	705
bin	1000	0
bin	1200	0
bin	1400	0
bin	1600	0
bin	1800	0
bin	2000	0
bin	2200	0
bin	2400	0
bin	2600	0
bin	2800	0
bin	3000	0
bin	3200	0
bin	3400	0
bin	3600	0
bin	3800	0
bin	4000	0
bin	4200	0
bin	4400	0
bin	4600	0
bin	4800	0
bin	5000	0
bin	5200	0
bin	5400	0
bin	5600	0
bin	5800	0
bin	6000	0
bin	6200	0
bin	6400	0
bin	6600	0
bin	6800	0
bin	7000	0
bin	7200	0
bin	7400	0
bin	7600	0
bin	7800	0
bin	8000	0
bin	8200	296
bin	8400	0
bin	8600	0
bin	8800	0
bin	9000	0
bin	9200	0
bin	9400	0
bin	9600	0
bin	9800	0
bin	10000	0
bin	10200	0
bin	10400	0
scalar LargeNet.switch1.eth[0].macLayer.outboundEmitter flowIncomingPacketLengths:sum 0
attr interpolationmode none
attr recordingmode sum
attr source "packetLength(demuxFlow(merge(packetPushedIn, packetPulledIn)))"
attr title "flow specific incoming packet lengths, sum"
attr unit b
statistic LargeNet.switch1.eth[0].macLayer.outboundEmitter flowIncomingPacketLengths:histogram
field count 0
field mean -nan
field stddev nan
field min nan
field max nan
field sum 0
field sqrsum 0
attr interpolationmode none
attr recordingmode histogram
attr source "packetLength(demuxFlow(merge(packetPushedIn, packetPulledIn)))"
attr title "flow specific incoming packet lengths"
attr unit b
bin	-inf	0
bin	0	0
bin	1	0
scalar LargeNet.switch1.eth[0].macLayer.fcsChecker outgoingPackets:count 624
attr recordingmode count
attr source "merge(packetPushedOut, packetPulledOut)"
attr title "outgoing packets, count"
attr unit pk
scalar LargeNet.switch1.eth[0].macLayer.fcsChecker outgoingPacketLengths:sum 2895192
attr interpolationmode none
attr recordingmode sum
attr source "packetLength(merge(packetPushedOut, packetPulledOut))"
attr title "outgoing packet lengths, sum"
attr unit b
statistic LargeNet.switch1.eth[0].macLayer.fcsChecker outgoingPacketLengths:histogram
field count 624
field mean 4639.7307692308
field stddev 3712.0621887367
field min 512
field max 8360
field sum 2895192
field sqrsum 22017481152
attr interpolationmode none
attr recordingmode histogram
attr source "packetLength(merge(packetPushedOut, packetPulledOut))"
attr title "outgoing packet lengths"
attr unit b
bin	-inf	0
bin	0	0
bin	200	0
bin	400	17
bin	600	0
bin	800	296
bin	1000	0
bin	1200	0
bin	1400	0
bin	1600	0
bin	1800	0
bin	2000	0
bin	2200	0
bin	2400	0
bin	2600	0
bin	2800	0
bin	3000	0
bin	3200	0
bin	3400	0
bin	3600	0
bin	3800	0
bin	4000	0
bin	4200	0
bin	4400	0
bin	4600	0
bin	4800	0
bin	5000	0
bin	5200	0
bin	5400	0
bin	5600	0
bin	5800	0
bin	6000	0
bin	6200	0
bin	6400	0
bin	6600	0
bin	6800	0
bin	7000	0
bin	7200	0
bin	7400	0
bin	7600	0
bin	7800	0
bin	8000	0
bin	8200	311
bin	8400	0
bin	8600	0
bin	8800	0
bin	9000	0
bin	9200	0
bin	9400	0
bin	9600	0
bin	9800	0
bin	10000	0
bin	10200	0
bin	10400	0
scalar LargeNet.switch1.eth[0].macLayer.fcsChecker flowOutgoingPacketLengths:sum 0
attr interpolationmode none
attr recordingmode sum
attr source "packetLength(demuxFlow(merge(packetPushedOut, packetPulledOut)))"
attr title "flow specific outgoing packet lengths, sum"
attr unit b
statistic LargeNet.switch1.eth[0].macLayer.fcsChecker flowOutgoingPacketLengths:histogram
field count 0
field mean -nan
field stddev nan
field min nan
field max nan
field sum 0
field sqrsum 0
attr interpolationmode none
attr recordingmode histogram
attr source "packetLength(demuxFlow(merge(packetPushedOut, packetPulledOut)))"
attr title "flow specific outgoing packet lengths"
attr unit b
bin	-inf	0
bin	0	0
bin	1	0
scalar LargeNet.switch1.eth[0].macLayer.fcsChecker incomingPackets:count 624
attr recordingmode count
attr source "merge(packetPushedIn, packetPulledIn)"
attr title "incoming packets, count"
attr unit pk
scalar LargeNet.switch1.eth[0].macLayer.fcsChecker incomingPacketLengths:sum 2895192
attr interpolationmode none
attr recordingmode sum
attr source "packetLength(merge(packetPushedIn, packetPulledIn))"
attr title "incoming packet lengths, sum"
attr unit b
statistic LargeNet.switch1.eth[0].macLayer.fcsChecker incomingPacketLengths:histogram
field count 624
field mean 4639.7307692308
field stddev 3712.0621887367
field min 512
field max 8360
field sum 2895192
field sqrsum 22017481152
attr interpolationmode none
attr recordingmode histogram
attr source "packetLength(merge(packetPushedIn, packetPulledIn))"
attr title "incoming packet lengths"
attr unit b
bin	-inf	0
bin	0	0
bin	200	0
bin	400	17
bin	600	0
bin	800	296
bin	1000	0
bin	1200	0
bin	1400	0
bin	1600	0
bin	1800	0
bin	2000	0
bin	2200	0
bin	2400	0
bin	2600	0
bin	2800	0
bin	3000	0
bin	3200	0
bin	3400	0
bin	3600	0
bin	3800	0
bin	4000	0
bin	4200	0
bin	4400	0
bin	4600	0
bin	4800	0
bin	5000	0
bin	5200	0
bin	5400	0
bin	5600	0
bin	5800	0
bin	6000	0
bin	6200	0
bin	6400	0
bin	6600	0
bin	6800	0
bin	7000	0
bin	7200	0
bin	7400	0
bin	7600	0
bin	7800	0
bin	8000	0
bin	8200	311
bin	8400	0
bin	8600	0
bin	8800	0
bin	9000	0
bin	9200	0
bin	9400	0
bin	9600	0
bin	9800	0
bin	10000	0
bin	10200	0
bin	10400	0
scalar LargeNet.switch1.eth[0].macLayer.fcsChecker flowIncomingPacketLengths:sum 0
attr interpolationmode none
attr recordingmode sum
attr source "packetLength(demuxFlow(merge(packetPushedIn, packetPulledIn)))"
attr title "flow specific incoming packet lengths, sum"
attr unit b
statistic LargeNet.switch1.eth[0].macLayer.fcsChecker flowIncomingPacketLengths:histogram
field count 0
field mean -nan
field stddev nan
field min nan
field max nan
field sum 0
field sqrsum 0
attr interpolationmode none
attr recordingmode histogram
attr source "packetLength(demuxFlow(merge(packetPushedIn, packetPulledIn)))"
attr title "flow specific incoming packet lengths"
attr unit b
bin	-inf	0
bin	0	0
bin	1	0
scalar LargeNet.switch1.eth[0].macLayer.fcsChecker droppedPackets:count 0
attr recordingmode count
attr source packetDropped
attr title "dropped packets, count"
attr unit pk
scalar LargeNet.switch1.eth[0].macLayer.fcsChecker droppedPacketLengths:sum 0
attr interpolationmode none
attr recordingmode sum
attr source packetLength(packetDropped)
attr title "dropped packet lengths, sum"
attr unit b
statistic LargeNet.switch1.eth[0].macLayer.fcsChecker droppedPacketLengths:histogram
field count 0
field mean -nan
field stddev nan
field min nan
field max nan
field sum 0
field sqrsum 0
attr interpolationmode none
attr recordingmode histogram
attr source packetLength(packetDropped)
attr title "dropped packet lengths"
attr unit b
bin	-inf	0
bin	0	0
bin	1	0
scalar LargeNet.switch1.eth[0].macLayer.fcsChecker flowDroppedPacketLengths:sum 0
attr interpolationmode none
attr recordingmode sum
attr source packetLength(demuxFlow(packetDropped))
attr title "flow specific dropped packet lengths, sum"
attr unit b
statistic LargeNet.switch1.eth[0].macLayer.fcsChecker flowDroppedPacketLengths:histogram
field count 0
field mean -nan
field stddev nan
field min nan
field max nan
field sum 0
field sqrsum 0
attr interpolationmode none
attr recordingmode histogram
attr source packetLength(demuxFlow(packetDropped))
attr title "flow specific dropped packet lengths"
attr unit b
bin	-inf	0
bin	0	0
bin	1	0
scalar LargeNet.switch1.eth[0].macLayer.inboundEmitter outgoingPackets:count 624
attr recordingmode count
attr source "merge(packetPushedOut, packetPulledOut)"
attr title "outgoing packets, count"
attr unit pk
scalar LargeNet.switch1.eth[0].macLayer.inboundEmitter outgoingPacketLengths:sum 2895192
attr interpolationmode none
attr recordingmode sum
attr source "packetLength(merge(packetPushedOut, packetPulledOut))"
attr title "outgoing packet lengths, sum"
attr unit b
statistic LargeNet.switch1.eth[0].macLayer.inboundEmitter outgoingPacketLengths:histogram
field count 624
field mean 4639.7307692308
field stddev 3712.0621887367
field min 512
field max 8360
field sum 2895192
field sqrsum 22017481152
attr interpolationmode none
attr recordingmode histogram
attr source "packetLength(merge(packetPushedOut, packetPulledOut))"
attr title "outgoing packet lengths"
attr unit b
bin	-inf	0
bin	0	0
bin	200	0
bin	400	17
bin	600	0
bin	800	296
bin	1000	0
bin	1200	0
bin	1400	0
bin	1600	0
bin	1800	0
bin	2000	0
bin	2200	0
bin	2400	0
bin	2600	0
bin	2800	0
bin	3000	0
bin	3200	0
bin	3400	0
bin	3600	0
bin	3800	0
bin	4000	0
bin	4200	0
bin	4400	0
bin	4600	0
bin	4800	0
bin	5000	0
bin	5200	0
bin	5400	0
bin	5600	0
bin	5800	0
bin	6000	0
bin	6200	0
bin	6400	0
bin	6600	0
bin	6800	0
bin	7000	0
bin	7200	0
bin	7400	0
bin	7600	0
bin	7800	0
bin	8000	0
bin	8200	311
bin	8400	0
bin	8600	0
bin	8800	0
bin	9000	0
bin	9200	0
bin	9400	0
bin	9600	0
bin	9800	0
bin	10000	0
bin	10200	0
bin	10400	0
scalar LargeNet.switch1.eth[0].macLayer.inboundEmitter flowOutgoingPacketLengths:sum 0
attr interpolationmode none
attr recordingmode sum
attr source "packetLength(demuxFlow(merge(packetPushedOut, packetPulledOut)))"
attr title "flow specific outgoing packet lengths, sum"
attr unit b
statistic LargeNet.switch1.eth[0].macLayer.inboundEmitter flowOutgoingPacketLengths:histogram
field count 0
field mean -nan
field stddev nan
field min nan
field max nan
field sum 0
field sqrsum 0
attr interpolationmode none
attr recordingmode histogram
attr source "packetLength(demuxFlow(merge(packetPushedOut, packetPulledOut)))"
attr title "flow specific outgoing packet lengths"
attr unit b
bin	-inf	0
bin	0	0
bin	1	0
scalar LargeNet.switch1.eth[0].macLayer.inboundEmitter incomingPackets:count 624
attr recordingmode count
attr source "merge(packetPushedIn, packetPulledIn)"
attr title "incoming packets, count"
attr unit pk
scalar LargeNet.switch1.eth[0].macLayer.inboundEmitter incomingPacketLengths:sum 2895192
attr interpolationmode none
attr recordingmode sum
attr source "packetLength(merge(packetPushedIn, packetPulledIn))"
attr title "incoming packet lengths, sum"
attr unit b
statistic LargeNet.switch1.eth[0].macLayer.inboundEmitter incomingPacketLengths:histogram
field count 624
field mean 4639.7307692308
field stddev 3712.0621887367
field min 512
field max 8360
field sum 2895192
field sqrsum 22017481152
attr interpolationmode none
attr recordingmode histogram
attr source "packetLength(merge(packetPushedIn, packetPulledIn))"
attr title "incoming packet lengths"
attr unit b
bin	-inf	0
bin	0	0
bin	200	0
bin	400	17
bin	600	0
bin	800	296
bin	1000	0
bin	1200	0
bin	1400	0
bin	1600	0
bin	1800	0
bin	2000	0
bin	2200	0
bin	2400	0
bin	2600	0
bin	2800	0
bin	3000	0
bin	3200	0
bin	3400	0
bin	3600	0
bin	3800	0
bin	4000	0
bin	4200	0
bin	4400	0
bin	4600	0
bin	4800	0
bin	5000	0
bin	5200	0
bin	5400	0
bin	5600	0
bin	5800	0
bin	6000	0
bin	6200	0
bin	6400	0
bin	6600	0
bin	6800	0
bin	7000	0
bin	7200	0
bin	7400	0
bin	7600	0
bin	7800	0
bin	8000	0
bin	8200	311
bin	8400	0
bin	8600	0
bin	8800	0
bin	9000	0
bin	9200	0
bin	9400	0
bin	9600	0
bin	9800	0
bin	10000	0
bin	10200	0
bin	10400	0
scalar LargeNet.switch1.eth[0].macLayer.inboundEmitter flowIncomingPacketLengths:sum 0
attr interpolationmode none
attr recordingmode sum
attr source "packetLength(demuxFlow(merge(packetPushedIn, packetPulledIn)))"
attr title "flow specific incoming packet lengths, sum"
attr unit b
statistic LargeNet.switch1.eth[0].macLayer.inboundEmitter flowIncomingPacketLengths:histogram
field count 0
field mean -nan
field stddev nan
field min nan
field max nan
field sum 0
field sqrsum 0
attr interpolationmode none
attr recordingmode histogram
attr source "packetLength(demuxFlow(merge(packetPushedIn, packetPulledIn)))"
attr title "flow specific incoming packet lengths"
attr unit b
bin	-inf	0
bin	0	0
bin	1	0
scalar LargeNet.switch1.eth[0].phyLayer.phyHeaderInserter outgoingPackets:count 1218
attr recordingmode count
attr source "merge(packetPushedOut, packetPulledOut)"
attr title "outgoing packets, count"
attr unit pk
scalar LargeNet.switch1.eth[0].phyLayer.phyHeaderInserter outgoingPacketLengths:sum 3346056
attr interpolationmode none
attr recordingmode sum
attr source "packetLength(merge(packetPushedOut, packetPulledOut))"
attr title "outgoing packet lengths, sum"
attr unit b
statistic LargeNet.switch1.eth[0].phyLayer.phyHeaderInserter outgoingPacketLengths:histogram
field count 1218
field mean 2747.1724137931
field stddev 3222.2422195994
field min 576
field max 8424
field sum 3346056
field sqrsum 21828115008
attr interpolationmode none
attr recordingmode histogram
attr source "packetLength(merge(packetPushedOut, packetPulledOut))"
attr title "outgoing packet lengths"
attr unit b
bin	-inf	0
bin	0	0
bin	200	0
bin	400	217
bin	600	0
bin	800	0
bin	1000	705
bin	1200	0
bin	1400	0
bin	1600	0
bin	1800	0
bin	2000	0
bin	2200	0
bin	2400	0
bin	2600	0
bin	2800	0
bin	3000	0
bin	3200	0
bin	3400	0
bin	3600	0
bin	3800	0
bin	4000	0
bin	4200	0
bin	4400	0
bin	4600	0
bin	4800	0
bin	5000	0
bin	5200	0
bin	5400	0
bin	5600	0
bin	5800	0
bin	6000	0
bin	6200	0
bin	6400	0
bin	6600	0
bin	6800	0
bin	7000	0
bin	7200	0
bin	7400	0
bin	7600	0
bin	7800	0
bin	8000	0
bin	8200	0
bin	8400	296
bin	8600	0
bin	8800	0
bin	9000	0
bin	9200	0
bin	9400	0
bin	9600	0
bin	9800	0
bin	10000	0
bin	10200	0
bin	10400	0
scalar LargeNet.switch1.eth[0].phyLayer.phyHeaderInserter flowOutgoingPacketLengths:sum 0
attr interpolationmode none
attr recordingmode sum
attr source "packetLength(demuxFlow(merge(packetPushedOut, packetPulledOut)))"
attr title "flow specific outgoing packet lengths, sum"
attr unit b
statistic LargeNet.switch1.eth[0].phyLayer.phyHeaderInserter flowOutgoingPacketLengths:histogram
field count 0
field mean -nan
field stddev nan
field min nan
field max nan
field sum 0
field sqrsum 0
attr interpolationmode none
attr recordingmode histogram
attr source "packetLength(demuxFlow(merge(packetPushedOut, packetPulledOut)))"
attr title "flow specific outgoing packet lengths"
attr unit b
bin	-inf	0
bin	0	0
bin	1	0
scalar LargeNet.switch1.eth[0].phyLayer.phyHeaderInserter incomingPackets:count 1218
attr recordingmode count
attr source "merge(packetPushedIn, packetPulledIn)"
attr title "incoming packets, count"
attr unit pk
scalar LargeNet.switch1.eth[0].phyLayer.phyHeaderInserter incomingPacketLengths:sum 3268104
attr interpolationmode none
attr recordingmode sum
attr source "packetLength(merge(packetPushedIn, packetPulledIn))"
attr title "incoming packet lengths, sum"
attr unit b
statistic LargeNet.switch1.eth[0].phyLayer.phyHeaderInserter incomingPacketLengths:histogram
field count 1218
field mean 2683.1724137931
field stddev 3222.2422195994
field min 512
field max 8360
field sum 3268104
field sqrsum 21404808768
attr interpolationmode none
attr recordingmode histogram
attr source "packetLength(merge(packetPushedIn, packetPulledIn))"
attr title "incoming packet lengths"
attr unit b
bin	-inf	0
bin	0	0
bin	200	0
bin	400	217
bin	600	0
bin	800	705
bin	1000	0
bin	1200	0
bin	1400	0
bin	1600	0
bin	1800	0
bin	2000	0
bin	2200	0
bin	2400	0
bin	2600	0
bin	2800	0
bin	3000	0
bin	3200	0
bin	3400	0
bin	3600	0
bin	3800	0
bin	4000	0
bin	4200	0
bin	4400	0
bin	4600	0
bin	4800	0
bin	5000	0
bin	5200	0
bin	5400	0
bin	5600	0
bin	5800	0
bin	6000	0
bin	6200	0
bin	6400	0
bin	6600	0
bin	6800	0
bin	7000	0
bin	7200	0
bin	7400	0
bin	7600	0
bin	7800	0
bin	8000	0
bin	8200	296
bin	8400	0
bin	8600	0
bin	8800	0
bin	9000	0
bin	9200	0
bin	9400	0
bin	9600	0
bin	9800	0
bin	10000	0
bin	10200	0
bin	10400	0
scalar LargeNet.switch1.eth[0].phyLayer.phyHeaderInserter flowIncomingPacketLengths:sum 0
attr interpolationmode none
attr recordingmode sum
attr source "packetLength(demuxFlow(merge(packetPushedIn, packetPulledIn)))"
attr title "flow specific incoming packet lengths, sum"
attr unit b
statistic LargeNet.switch1.eth[0].phyLayer.phyHeaderInserter flowIncomingPacketLengths:histogram
field count 0
field mean -nan
field stddev nan
field min nan
field max nan
field sum 0
field sqrsum 0
attr interpolationmode none
attr recordingmode histogram
attr source "packetLength(demuxFlow(merge(packetPushedIn, packetPulledIn)))"
attr title "flow specific incoming packet lengths"
attr unit b
bin	-inf	0
bin	0	0
bin	1	0
scalar LargeNet.switch1.eth[0].phyLayer.outboundEmitter outgoingPackets:count 1218
attr recordingmode count
attr source "merge(packetPushedOut, packetPulledOut)"
attr title "outgoing packets, count"
attr unit pk
scalar LargeNet.switch1.eth[0].phyLayer.outboundEmitter outgoingPacketLengths:sum 3346056
attr interpolationmode none
attr recordingmode sum
attr source "packetLength(merge(packetPushedOut, packetPulledOut))"
attr title "outgoing packet lengths, sum"
attr unit b
statistic LargeNet.switch1.eth[0].phyLayer.outboundEmitter outgoingPacketLengths:histogram
field count 1218
field mean 2747.1724137931
field stddev 3222.2422195994
field min 576
field max 8424
field sum 3346056
field sqrsum 21828115008
attr interpolationmode none
attr recordingmode histogram
attr source "packetLength(merge(packetPushedOut, packetPulledOut))"
attr title "outgoing packet lengths"
attr unit b
bin	-inf	0
bin	0	0
bin	200	0
bin	400	217
bin	600	0
bin	800	0
bin	1000	705
bin	1200	0
bin	1400	0
bin	1600	0
bin	1800	0
bin	2000	0
bin	2200	0
bin	2400	0
bin	2600	0
bin	2800	0
bin	3000	0
bin	3200	0
bin	3400	0
bin	3600	0
bin	3800	0
bin	4000	0
bin	4200	0
bin	4400	0
bin	4600	0
bin	4800	0
bin	5000	0
bin	5200	0
bin	5400	0
bin	5600	0
bin	5800	0
bin	6000	0
bin	6200	0
bin	6400	0
bin	6600	0
bin	6800	0
bin	7000	0
bin	7200	0
bin	7400	0
bin	7600	0
bin	7800	0
bin	8000	0
bin	8200	0
bin	8400	296
bin	8600	0
bin	8800	0
bin	9000	0
bin	9200	0
bin	9400	0
bin	9600	0
bin	9800	0
bin	10000	0
bin	10200	0
bin	10400	0
scalar LargeNet.switch1.eth[0].phyLayer.outboundEmitter flowOutgoingPacketLengths:sum 0
attr interpolationmode none
attr recordingmode sum
attr source "packetLength(demuxFlow(merge(packetPushedOut, packetPulledOut)))"
attr title "flow specific outgoing packet lengths, sum"
attr unit b
statistic LargeNet.switch1.eth[0].phyLayer.outboundEmitter flowOutgoingPacketLengths:histogram
field count 0
field mean -nan
field stddev nan
field min nan
field max nan
field sum 0
field sqrsum 0
attr interpolationmode none
attr recordingmode histogram
attr source "packetLength(demuxFlow(merge(packetPushedOut, packetPulledOut)))"
attr title "flow specific outgoing packet lengths"
attr unit b
bin	-inf	0
bin	0	0
bin	1	0
scalar LargeNet.switch1.eth[0].phyLayer.outboundEmitter incomingPackets:count 1218
attr recordingmode count
attr source "merge(packetPushedIn, packetPulledIn)"
attr title "incoming packets, count"
attr unit pk
scalar LargeNet.switch1.eth[0].phyLayer.outboundEmitter incomingPacketLengths:sum 3346056
attr interpolationmode none
attr recordingmode sum
attr source "packetLength(merge(packetPushedIn, packetPulledIn))"
attr title "incoming packet lengths, sum"
attr unit b
statistic LargeNet.switch1.eth[0].phyLayer.outboundEmitter incomingPacketLengths:histogram
field count 1218
field mean 2747.1724137931
field stddev 3222.2422195994
field min 576
field max 8424
field sum 3346056
field sqrsum 21828115008
attr interpolationmode none
attr recordingmode histogram
attr source "packetLength(merge(packetPushedIn, packetPulledIn))"
attr title "incoming packet lengths"
attr unit b
bin	-inf	0
bin	0	0
bin	200	0
bin	400	217
bin	600	0
bin	800	0
bin	1000	705
bin	1200	0
bin	1400	0
bin	1600	0
bin	1800	0
bin	2000	0
bin	2200	0
bin	2400	0
bin	2600	0
bin	2800	0
bin	3000	0
bin	3200	0
bin	3400	0
bin	3600	0
bin	3800	0
bin	4000	0
bin	4200	0
bin	4400	0
bin	4600	0
bin	4800	0
bin	5000	0
bin	5200	0
bin	5400	0
bin	5600	0
bin	5800	0
bin	6000	0
bin	6200	0
bin	6400	0
bin	6600	0
bin	6800	0
bin	7000	0
bin	7200	0
bin	7400	0
bin	7600	0
bin	7800	0
bin	8000	0
bin	8200	0
bin	8400	296
bin	8600	0
bin	8800	0
bin	9000	0
bin	9200	0
bin	9400	0
bin	9600	0
bin	9800	0
bin	10000	0
bin	10200	0
bin	10400	0
scalar LargeNet.switch1.eth[0].phyLayer.outboundEmitter flowIncomingPacketLengths:sum 0
attr interpolationmode none
attr recordingmode sum
attr source "packetLength(demuxFlow(merge(packetPushedIn, packetPulledIn)))"
attr title "flow specific incoming packet lengths, sum"
attr unit b
statistic LargeNet.switch1.eth[0].phyLayer.outboundEmitter flowIncomingPacketLengths:histogram
field count 0
field mean -nan
field stddev nan
field min nan
field max nan
field sum 0
field sqrsum 0
attr interpolationmode none
attr recordingmode histogram
attr source "packetLength(demuxFlow(merge(packetPushedIn, packetPulledIn)))"
attr title "flow specific incoming packet lengths"
attr unit b
bin	-inf	0
bin	0	0
bin	1	0
scalar LargeNet.switch1.eth[0].phyLayer.transmitter propagationTime 5e-08
statistic LargeNet.switch1.eth[0].phyLayer.transmitter throughput:histogram
field count 2000
field mean 16727.4
field stddev 35875.25761154
field min 0
field max 279120
field sum 33454800
field sqrsum 3132393004800
attr interpolationmode linear
attr recordingmode histogram
attr source throughput(transmissionEnded)
attr title throughput
attr unit bps
bin	-inf	0
bin	0	1123
bin	4000	116
bin	8000	375
bin	12000	0
bin	16000	39
bin	20000	72
bin	24000	15
bin	28000	5
bin	32000	0
bin	36000	0
bin	40000	1
bin	44000	1
bin	48000	0
bin	52000	0
bin	56000	0
bin	60000	0
bin	64000	0
bin	68000	0
bin	72000	0
bin	76000	0
bin	80000	0
bin	84000	131
bin	88000	15
bin	92000	49
bin	96000	0
bin	100000	5
bin	104000	12
bin	108000	0
bin	112000	1
bin	116000	0
bin	120000	0
bin	124000	0
bin	128000	0
bin	132000	0
bin	136000	0
bin	140000	0
bin	144000	0
bin	148000	0
bin	152000	0
bin	156000	0
bin	160000	0
bin	164000	0
bin	168000	19
bin	172000	1
bin	176000	12
bin	180000	0
bin	184000	1
bin	188000	3
bin	192000	1
bin	196000	0
bin	200000	0
bin	204000	0
bin	208000	0
bin	212000	0
bin	216000	0
bin	220000	0
bin	224000	0
bin	228000	0
bin	232000	0
bin	236000	0
bin	240000	0
bin	244000	0
bin	248000	0
bin	252000	1
bin	256000	0
bin	260000	1
bin	264000	0
bin	268000	0
bin	272000	0
bin	276000	1
bin	280000	0
statistic LargeNet.switch1.eth[0].phyLayer.transmitter utilization:histogram
field count 2000
field mean 0.00167274
field stddev 0.003587525761154
field min 0
field max 0.027912
field sum 3.34548
field sqrsum 0.031323930048
attr interpolationmode linear
attr recordingmode histogram
attr source "100 * utilization(count(transmissionStarted) - count(transmissionEnded))"
attr title utilization
attr unit %
bin	-inf	0
bin	0	1123
bin	0.0004	116
bin	0.0008	375
bin	0.0012	0
bin	0.0016	39
bin	0.002	72
bin	0.0024	15
bin	0.0028	5
bin	0.0032	0
bin	0.0036	0
bin	0.004	1
bin	0.0044	1
bin	0.0048	0
bin	0.0052	0
bin	0.0056	0
bin	0.006	0
bin	0.0064	0
bin	0.0068	0
bin	0.0072	0
bin	0.0076	0
bin	0.008	0
bin	0.0084	131
bin	0.0088	15
bin	0.0092	49
bin	0.0096	0
bin	0.01	5
bin	0.0104	12
bin	0.0108	0
bin	0.0112	1
bin	0.0116	0
bin	0.012	0
bin	0.0124	0
bin	0.0128	0
bin	0.0132	0
bin	0.0136	0
bin	0.014	0
bin	0.0144	0
bin	0.0148	0
bin	0.0152	0
bin	0.0156	0
bin	0.016	0
bin	0.0164	0
bin	0.0168	19
bin	0.0172	1
bin	0.0176	12
bin	0.018	0
bin	0.0184	1
bin	0.0188	3
bin	0.0192	1
bin	0.0196	0
bin	0.02	0
bin	0.0204	0
bin	0.0208	0
bin	0.0212	0
bin	0.0216	0
bin	0.022	0
bin	0.0224	0
bin	0.0228	0
bin	0.0232	0
bin	0.0236	0
bin	0.024	0
bin	0.0244	0
bin	0.0248	0
bin	0.0252	1
bin	0.0256	0
bin	0.026	1
bin	0.0264	0
bin	0.0268	0
bin	0.0272	0
bin	0.0276	1
bin	0.028	0
statistic LargeNet.switch1.eth[0].phyLayer.transmitter transmissionTime:histogram
field count 1217
field mean 2.7489564502876e-06
field stddev 3.2229650361002e-06
field min 5.76e-07
field max 8.424e-06
field sum 0.00334548
field sqrsum 2.1827783232e-08
attr interpolationmode none
attr recordingmode histogram
attr source packetDuration(transmissionEnded)
attr title "transmission time"
attr unit s
bin	-inf	0
bin	0	0
bin	2e-07	0
bin	4e-07	216
bin	6e-07	0
bin	8e-07	0
bin	1e-06	705
bin	1.2e-06	0
bin	1.4e-06	0
bin	1.6e-06	0
bin	1.8e-06	0
bin	2e-06	0
bin	2.2e-06	0
bin	2.4e-06	0
bin	2.6e-06	0
bin	2.8e-06	0
bin	3e-06	0
bin	3.2e-06	0
bin	3.4e-06	0
bin	3.6e-06	0
bin	3.8e-06	0
bin	4e-06	0
bin	4.2e-06	0
bin	4.4e-06	0
bin	4.6e-06	0
bin	4.8e-06	0
bin	5e-06	0
bin	5.2e-06	0
bin	5.4e-06	0
bin	5.6e-06	0
bin	5.8e-06	0
bin	6e-06	0
bin	6.2e-06	0
bin	6.4e-06	0
bin	6.6e-06	0
bin	6.8e-06	0
bin	7e-06	0
bin	7.2e-06	0
bin	7.4e-06	0
bin	7.6e-06	0
bin	7.8e-06	0
bin	8e-06	0
bin	8.2e-06	0
bin	8.4e-06	296
bin	8.6e-06	0
bin	8.8e-06	0
bin	9e-06	0
bin	9.2e-06	0
bin	9.4e-06	0
bin	9.6e-06	0
bin	9.8e-06	0
bin	1e-05	0
bin	1.02e-05	0
bin	1.04e-05	0
statistic LargeNet.switch1.eth[0].phyLayer.transmitter flowTransmissionTime:histogram
field count 0
field mean -nan
field stddev nan
field min nan
field max nan
field sum 0
field sqrsum 0
attr interpolationmode none
attr recordingmode histogram
attr source packetDuration(demuxFlow(transmissionEnded))
[...]
attr source "packetLength(merge(packetPushedOut, packetPulledOut))"
attr title "outgoing packet lengths, sum"
attr unit b
statistic LargeNet.switch11.eth[3].phyLayer.outboundEmitter outgoingPacketLengths:histogram
field count 5
field mean 576
field stddev 0
field min 576
field max 576
field sum 2880
field sqrsum 1658880
attr interpolationmode none
attr recordingmode histogram
attr source "packetLength(merge(packetPushedOut, packetPulledOut))"
attr title "outgoing packet lengths"
attr unit b
bin	-inf	0
bin	575	0
bin	576	5
bin	577	0
scalar LargeNet.switch11.eth[3].phyLayer.outboundEmitter flowOutgoingPacketLengths:sum 0
attr interpolationmode none
attr recordingmode sum
attr source "packetLength(demuxFlow(merge(packetPushedOut, packetPulledOut)))"
attr title "flow specific outgoing packet lengths, sum"
attr unit b
statistic LargeNet.switch11.eth[3].phyLayer.outboundEmitter flowOutgoingPacketLengths:histogram
field count 0
field mean -nan
field stddev nan
field min nan
field max nan
field sum 0
field sqrsum 0
attr interpolationmode none
attr recordingmode histogram
attr source "packetLength(demuxFlow(merge(packetPushedOut, packetPulledOut)))"
attr title "flow specific outgoing packet lengths"
attr unit b
bin	-inf	0
bin	0	0
bin	1	0
scalar LargeNet.switch11.eth[3].phyLayer.outboundEmitter incomingPackets:count 5
attr recordingmode count
attr source "merge(packetPushedIn, packetPulledIn)"
attr title "incoming packets, count"
attr unit pk
scalar LargeNet.switch11.eth[3].phyLayer.outboundEmitter incomingPacketLengths:sum 2880
attr interpolationmode none
attr recordingmode sum
attr source "packetLength(merge(packetPushedIn, packetPulledIn))"
attr title "incoming packet lengths, sum"
attr unit b
statistic LargeNet.switch11.eth[3].phyLayer.outboundEmitter incomingPacketLengths:histogram
field count 5
field mean 576
field stddev 0
field min 576
field max 576
field sum 2880
field sqrsum 1658880
attr interpolationmode none
attr recordingmode histogram
attr source "packetLength(merge(packetPushedIn, packetPulledIn))"
attr title "incoming packet lengths"
attr unit b
bin	-inf	0
bin	575	0
bin	576	5
bin	577	0
scalar LargeNet.switch11.eth[3].phyLayer.outboundEmitter flowIncomingPacketLengths:sum 0
attr interpolationmode none
attr recordingmode sum
attr source "packetLength(demuxFlow(merge(packetPushedIn, packetPulledIn)))"
attr title "flow specific incoming packet lengths, sum"
attr unit b
statistic LargeNet.switch11.eth[3].phyLayer.outboundEmitter flowIncomingPacketLengths:histogram
field count 0
field mean -nan
field stddev nan
field min nan
field max nan
field sum 0
field sqrsum 0
attr interpolationmode none
attr recordingmode histogram
attr source "packetLength(demuxFlow(merge(packetPushedIn, packetPulledIn)))"
attr title "flow specific incoming packet lengths"
attr unit b
bin	-inf	0
bin	0	0
bin	1	0
scalar LargeNet.switch11.eth[3].phyLayer.transmitter propagationTime 5e-08
statistic LargeNet.switch11.eth[3].phyLayer.transmitter throughput:histogram
field count 2000
field mean 14.4
field stddev 386.22069236591
field min 0
field max 11520
field sum 28800
field sqrsum 298598400
attr interpolationmode linear
attr recordingmode histogram
attr source throughput(transmissionEnded)
attr title throughput
attr unit bps
bin	-inf	0
bin	0	1997
bin	200	0
bin	400	0
bin	600	0
bin	800	0
bin	1000	0
bin	1200	0
bin	1400	0
bin	1600	0
bin	1800	0
bin	2000	0
bin	2200	0
bin	2400	0
bin	2600	0
bin	2800	0
bin	3000	0
bin	3200	0
bin	3400	0
bin	3600	0
bin	3800	0
bin	4000	0
bin	4200	0
bin	4400	0
bin	4600	0
bin	4800	0
bin	5000	0
bin	5200	0
bin	5400	0
bin	5600	1
bin	5800	0
bin	6000	0
bin	6200	0
bin	6400	0
bin	6600	0
bin	6800	0
bin	7000	0
bin	7200	0
bin	7400	0
bin	7600	0
bin	7800	0
bin	8000	0
bin	8200	0
bin	8400	0
bin	8600	0
bin	8800	0
bin	9000	0
bin	9200	0
bin	9400	0
bin	9600	0
bin	9800	0
bin	10000	0
bin	10200	0
bin	10400	0
bin	10600	0
bin	10800	0
bin	11000	0
bin	11200	0
bin	11400	2
bin	11600	0
bin	11800	0
bin	12000	0
bin	12200	0
bin	12400	0
bin	12600	0
bin	12800	0
bin	13000	0
bin	13200	0
bin	13400	0
bin	13600	0
bin	13800	0
bin	14000	0
bin	14200	0
bin	14400	0
bin	14600	0
statistic LargeNet.switch11.eth[3].phyLayer.transmitter utilization:histogram
field count 2000
field mean 1.44e-06
field stddev 3.8622069236591e-05
field min 0
field max 0.001152
field sum 0.00288
field sqrsum 2.985984e-06
attr interpolationmode linear
attr recordingmode histogram
attr source "100 * utilization(count(transmissionStarted) - count(transmissionEnded))"
attr title utilization
attr unit %
bin	-inf	0
bin	0	1997
bin	2e-05	0
bin	4e-05	0
bin	6e-05	0
bin	8e-05	0
bin	0.0001	0
bin	0.00012	0
bin	0.00014	0
bin	0.00016	0
bin	0.00018	0
bin	0.0002	0
bin	0.00022	0
bin	0.00024	0
bin	0.00026	0
bin	0.00028	0
bin	0.0003	0
bin	0.00032	0
bin	0.00034	0
bin	0.00036	0
bin	0.00038	0
bin	0.0004	0
bin	0.00042	0
bin	0.00044	0
bin	0.00046	0
bin	0.00048	0
bin	0.0005	0
bin	0.00052	0
bin	0.00054	0
bin	0.00056	1
bin	0.00058	0
bin	0.0006	0
bin	0.00062	0
bin	0.00064	0
bin	0.00066	0
bin	0.00068	0
bin	0.0007	0
bin	0.00072	0
bin	0.00074	0
bin	0.00076	0
bin	0.00078	0
bin	0.0008	0
bin	0.00082	0
bin	0.00084	0
bin	0.00086	0
bin	0.00088	0
bin	0.0009	0
bin	0.00092	0
bin	0.00094	0
bin	0.00096	0
bin	0.00098	0
bin	0.001	0
bin	0.00102	0
bin	0.00104	0
bin	0.00106	0
bin	0.00108	0
bin	0.0011	0
bin	0.00112	0
bin	0.00114	2
bin	0.00116	0
bin	0.00118	0
bin	0.0012	0
bin	0.00122	0
bin	0.00124	0
bin	0.00126	0
bin	0.00128	0
bin	0.0013	0
bin	0.00132	0
bin	0.00134	0
bin	0.00136	0
bin	0.00138	0
bin	0.0014	0
bin	0.00142	0
bin	0.00144	0
statistic LargeNet.switch11.eth[3].phyLayer.transmitter transmissionTime:histogram
field count 5
field mean 5.76e-07
field stddev 0
field min 5.76e-07
field max 5.76e-07
field sum 2.88e-06
field sqrsum 1.65888e-12
attr interpolationmode none
attr recordingmode histogram
attr source packetDuration(transmissionEnded)
attr title "transmission time"
attr unit s
bin	-inf	0
bin	0	5
bin	0.01	0
bin	0.02	0
bin	0.03	0
bin	0.04	0
bin	0.05	0
bin	0.06	0
bin	0.07	0
bin	0.08	0
bin	0.09	0
bin	0.1	0
bin	0.11	0
bin	0.12	0
bin	0.13	0
bin	0.14	0
bin	0.15	0
bin	0.16	0
bin	0.17	0
bin	0.18	0
bin	0.19	0
bin	0.2	0
bin	0.21	0
bin	0.22	0
bin	0.23	0
bin	0.24	0
bin	0.25	0
bin	0.26	0
bin	0.27	0
bin	0.28	0
bin	0.29	0
bin	0.3	0
bin	0.31	0
bin	0.32	0
bin	0.33	0
bin	0.34	0
bin	0.35	0
bin	0.36	0
bin	0.37	0
bin	0.38	0
bin	0.39	0
bin	0.4	0
bin	0.41	0
bin	0.42	0
bin	0.43	0
bin	0.44	0
bin	0.45	0
bin	0.46	0
bin	0.47	0
bin	0.48	0
bin	0.49	0
bin	0.5	0
bin	0.51	0
statistic LargeNet.switch11.eth[3].phyLayer.transmitter flowTransmissionTime:histogram
field count 0
field mean -nan
field stddev nan
field min nan
field max nan
field sum 0
field sqrsum 0
attr interpolationmode none
attr recordingmode histogram
attr source packetDuration(demuxFlow(transmissionEnded))
attr title "flow transmission time"
attr unit s
bin	-inf	0
bin	0	0
bin	1	0
scalar LargeNet.switch11.eth[3].phyLayer.phyHeaderChecker outgoingPackets:count 475
attr recordingmode count
attr source "merge(packetPushedOut, packetPulledOut)"
attr title "outgoing packets, count"
attr unit pk
scalar LargeNet.switch11.eth[3].phyLayer.phyHeaderChecker outgoingPacketLengths:sum 348536
attr interpolationmode none
attr recordingmode sum
attr source "packetLength(merge(packetPushedOut, packetPulledOut))"
attr title "outgoing packet lengths, sum"
attr unit b
statistic LargeNet.switch11.eth[3].phyLayer.phyHeaderChecker outgoingPacketLengths:histogram
field count 475
field mean 733.76
field stddev 228.15488410122
field min 512
field max 968
field sum 348536
field sqrsum 280415680
attr interpolationmode none
attr recordingmode histogram
attr source "packetLength(merge(packetPushedOut, packetPulledOut))"
attr title "outgoing packet lengths"
attr unit b
bin	-inf	0
bin	510	244
bin	520	0
bin	530	0
bin	540	0
bin	550	0
bin	560	0
bin	570	0
bin	580	0
bin	590	0
bin	600	0
bin	610	0
bin	620	0
bin	630	0
bin	640	0
bin	650	0
bin	660	0
bin	670	0
bin	680	0
bin	690	0
bin	700	0
bin	710	0
bin	720	0
bin	730	0
bin	740	0
bin	750	0
bin	760	0
bin	770	0
bin	780	0
bin	790	0
bin	800	0
bin	810	0
bin	820	0
bin	830	0
bin	840	0
bin	850	0
bin	860	0
bin	870	0
bin	880	0
bin	890	0
bin	900	0
bin	910	0
bin	920	0
bin	930	0
bin	940	0
bin	950	0
bin	960	231
bin	970	0
scalar LargeNet.switch11.eth[3].phyLayer.phyHeaderChecker flowOutgoingPacketLengths:sum 0
attr interpolationmode none
attr recordingmode sum
attr source "packetLength(demuxFlow(merge(packetPushedOut, packetPulledOut)))"
attr title "flow specific outgoing packet lengths, sum"
attr unit b
statistic LargeNet.switch11.eth[3].phyLayer.phyHeaderChecker flowOutgoingPacketLengths:histogram
field count 0
field mean -nan
field stddev nan
field min nan
field max nan
field sum 0
field sqrsum 0
attr interpolationmode none
attr recordingmode histogram
attr source "packetLength(demuxFlow(merge(packetPushedOut, packetPulledOut)))"
attr title "flow specific outgoing packet lengths"
attr unit b
bin	-inf	0
bin	0	0
bin	1	0
scalar LargeNet.switch11.eth[3].phyLayer.phyHeaderChecker incomingPackets:count 475
attr recordingmode count
attr source "merge(packetPushedIn, packetPulledIn)"
attr title "incoming packets, count"
attr unit pk
scalar LargeNet.switch11.eth[3].phyLayer.phyHeaderChecker incomingPacketLengths:sum 378936
attr interpolationmode none
attr recordingmode sum
attr source "packetLength(merge(packetPushedIn, packetPulledIn))"
attr title "incoming packet lengths, sum"
attr unit b
statistic LargeNet.switch11.eth[3].phyLayer.phyHeaderChecker incomingPacketLengths:histogram
field count 475
field mean 797.76
field stddev 228.15488410122
field min 576
field max 1032
field sum 378936
field sqrsum 326973888
attr interpolationmode none
attr recordingmode histogram
attr source "packetLength(merge(packetPushedIn, packetPulledIn))"
attr title "incoming packet lengths"
attr unit b
bin	-inf	0
bin	570	244
bin	580	0
bin	590	0
bin	600	0
bin	610	0
bin	620	0
bin	630	0
bin	640	0
bin	650	0
bin	660	0
bin	670	0
bin	680	0
bin	690	0
bin	700	0
bin	710	0
bin	720	0
bin	730	0
bin	740	0
bin	750	0
bin	760	0
bin	770	0
bin	780	0
bin	790	0
bin	800	0
bin	810	0
bin	820	0
bin	830	0
bin	840	0
bin	850	0
bin	860	0
bin	870	0
bin	880	0
bin	890	0
bin	900	0
bin	910	0
bin	920	0
bin	930	0
bin	940	0
bin	950	0
bin	960	0
bin	970	0
bin	980	0
bin	990	0
bin	1000	0
bin	1010	0
bin	1020	0
bin	1030	231
bin	1040	0
scalar LargeNet.switch11.eth[3].phyLayer.phyHeaderChecker flowIncomingPacketLengths:sum 0
attr interpolationmode none
attr recordingmode sum
attr source "packetLength(demuxFlow(merge(packetPushedIn, packetPulledIn)))"
attr title "flow specific incoming packet lengths, sum"
attr unit b
statistic LargeNet.switch11.eth[3].phyLayer.phyHeaderChecker flowIncomingPacketLengths:histogram
field count 0
field mean -nan
field stddev nan
field min nan
field max nan
field sum 0
field sqrsum 0
attr interpolationmode none
attr recordingmode histogram
attr source "packetLength(demuxFlow(merge(packetPushedIn, packetPulledIn)))"
attr title "flow specific incoming packet lengths"
attr unit b
bin	-inf	0
bin	0	0
bin	1	0
scalar LargeNet.switch11.eth[3].phyLayer.phyHeaderChecker droppedPackets:count 0
attr recordingmode count
attr source packetDropped
attr title "dropped packets, count"
attr unit pk
scalar LargeNet.switch11.eth[3].phyLayer.phyHeaderChecker droppedPacketLengths:sum 0
attr interpolationmode none
attr recordingmode sum
attr source packetLength(packetDropped)
attr title "dropped packet lengths, sum"
attr unit b
statistic LargeNet.switch11.eth[3].phyLayer.phyHeaderChecker droppedPacketLengths:histogram
field count 0
field mean -nan
field stddev nan
field min nan
field max nan
field sum 0
field sqrsum 0
attr interpolationmode none
attr recordingmode histogram
attr source packetLength(packetDropped)
attr title "dropped packet lengths"
attr unit b
bin	-inf	0
bin	0	0
bin	1	0
scalar LargeNet.switch11.eth[3].phyLayer.phyHeaderChecker flowDroppedPacketLengths:sum 0
attr interpolationmode none
attr recordingmode sum
attr source packetLength(demuxFlow(packetDropped))
attr title "flow specific dropped packet lengths, sum"
attr unit b
statistic LargeNet.switch11.eth[3].phyLayer.phyHeaderChecker flowDroppedPacketLengths:histogram
field count 0
field mean -nan
field stddev nan
field min nan
field max nan
field sum 0
field sqrsum 0
attr interpolationmode none
attr recordingmode histogram
attr source packetLength(demuxFlow(packetDropped))
attr title "flow specific dropped packet lengths"
attr unit b
bin	-inf	0
bin	0	0
bin	1	0
scalar LargeNet.switch11.eth[3].phyLayer.inboundEmitter outgoingPackets:count 475
attr recordingmode count
attr source "merge(packetPushedOut, packetPulledOut)"
attr title "outgoing packets, count"
attr unit pk
scalar LargeNet.switch11.eth[3].phyLayer.inboundEmitter outgoingPacketLengths:sum 378936
attr interpolationmode none
attr recordingmode sum
attr source "packetLength(merge(packetPushedOut, packetPulledOut))"
attr title "outgoing packet lengths, sum"
attr unit b
statistic LargeNet.switch11.eth[3].phyLayer.inboundEmitter outgoingPacketLengths:histogram
field count 475
field mean 797.76
field stddev 228.15488410122
field min 576
field max 1032
field sum 378936
field sqrsum 326973888
attr interpolationmode none
attr recordingmode histogram
attr source "packetLength(merge(packetPushedOut, packetPulledOut))"
attr title "outgoing packet lengths"
attr unit b
bin	-inf	0
bin	570	244
bin	580	0
bin	590	0
bin	600	0
bin	610	0
bin	620	0
bin	630	0
bin	640	0
bin	650	0
bin	660	0
bin	670	0
bin	680	0
bin	690	0
bin	700	0
bin	710	0
bin	720	0
bin	730	0
bin	740	0
bin	750	0
bin	760	0
bin	770	0
bin	780	0
bin	790	0
bin	800	0
bin	810	0
bin	820	0
bin	830	0
bin	840	0
bin	850	0
bin	860	0
bin	870	0
bin	880	0
bin	890	0
bin	900	0
bin	910	0
bin	920	0
bin	930	0
bin	940	0
bin	950	0
bin	960	0
bin	970	0
bin	980	0
bin	990	0
bin	1000	0
bin	1010	0
bin	1020	0
bin	1030	231
bin	1040	0
scalar LargeNet.switch11.eth[3].phyLayer.inboundEmitter flowOutgoingPacketLengths:sum 0
attr interpolationmode none
attr recordingmode sum
attr source "packetLength(demuxFlow(merge(packetPushedOut, packetPulledOut)))"
attr title "flow specific outgoing packet lengths, sum"
attr unit b
statistic LargeNet.switch11.eth[3].phyLayer.inboundEmitter flowOutgoingPacketLengths:histogram
field count 0
field mean -nan
field stddev nan
field min nan
field max nan
field sum 0
field sqrsum 0
attr interpolationmode none
attr recordingmode histogram
attr source "packetLength(demuxFlow(merge(packetPushedOut, packetPulledOut)))"
attr title "flow specific outgoing packet lengths"
attr unit b
bin	-inf	0
bin	0	0
bin	1	0
scalar LargeNet.switch11.eth[3].phyLayer.inboundEmitter incomingPackets:count 475
attr recordingmode count
attr source "merge(packetPushedIn, packetPulledIn)"
attr title "incoming packets, count"
attr unit pk
scalar LargeNet.switch11.eth[3].phyLayer.inboundEmitter incomingPacketLengths:sum 378936
attr interpolationmode none
attr recordingmode sum
attr source "packetLength(merge(packetPushedIn, packetPulledIn))"
attr title "incoming packet lengths, sum"
attr unit b
statistic LargeNet.switch11.eth[3].phyLayer.inboundEmitter incomingPacketLengths:histogram
field count 475
field mean 797.76
field stddev 228.15488410122
field min 576
field max 1032
field sum 378936
field sqrsum 326973888
attr interpolationmode none
attr recordingmode histogram
attr source "packetLength(merge(packetPushedIn, packetPulledIn))"
attr title "incoming packet lengths"
attr unit b
bin	-inf	0
bin	570	244
bin	580	0
bin	590	0
bin	600	0
bin	610	0
bin	620	0
bin	630	0
bin	640	0
bin	650	0
bin	660	0
bin	670	0
bin	680	0
bin	690	0
bin	700	0
bin	710	0
bin	720	0
bin	730	0
bin	740	0
bin	750	0
bin	760	0
bin	770	0
bin	780	0
bin	790	0
bin	800	0
bin	810	0
bin	820	0
bin	830	0
bin	840	0
bin	850	0
bin	860	0
bin	870	0
bin	880	0
bin	890	0
bin	900	0
bin	910	0
bin	920	0
bin	930	0
bin	940	0
bin	950	0
bin	960	0
bin	970	0
bin	980	0
bin	990	0
bin	1000	0
bin	1010	0
bin	1020	0
bin	1030	231
bin	1040	0
scalar LargeNet.switch11.eth[3].phyLayer.inboundEmitter flowIncomingPacketLengths:sum 0
attr interpolationmode none
attr recordingmode sum
attr source "packetLength(demuxFlow(merge(packetPushedIn, packetPulledIn)))"
attr title "flow specific incoming packet lengths, sum"
attr unit b
statistic LargeNet.switch11.eth[3].phyLayer.inboundEmitter flowIncomingPacketLengths:histogram
field count 0
field mean -nan
field stddev nan
field min nan
field max nan
field sum 0
field sqrsum 0
attr interpolationmode none
attr recordingmode histogram
attr source "packetLength(demuxFlow(merge(packetPushedIn, packetPulledIn)))"
attr title "flow specific incoming packet lengths"
attr unit b
bin	-inf	0
bin	0	0
bin	1	0
statistic LargeNet.switch11.eth[3].phyLayer.receiver throughput:histogram
field count 2000
field mean 1894.68
field stddev 5401.2191106768
field min 0
field max 103680
field sum 3789360
field sqrsum 65496787200
attr interpolationmode linear
attr recordingmode histogram
attr source throughput(receptionEnded)
attr title throughput
attr unit bps
bin	-inf	0
bin	0	1629
bin	2000	0
bin	4000	156
bin	6000	0
bin	8000	0
bin	10000	171
bin	12000	0
bin	14000	0
bin	16000	13
bin	18000	0
bin	20000	21
bin	22000	0
bin	24000	0
bin	26000	0
bin	28000	2
bin	30000	3
bin	32000	1
bin	34000	0
bin	36000	0
bin	38000	0
bin	40000	0
bin	42000	0
bin	44000	1
bin	46000	0
bin	48000	0
bin	50000	1
bin	52000	0
bin	54000	0
bin	56000	0
bin	58000	0
bin	60000	0
bin	62000	0
bin	64000	0
bin	66000	0
bin	68000	0
bin	70000	0
bin	72000	0
bin	74000	0
bin	76000	0
bin	78000	0
bin	80000	0
bin	82000	0
bin	84000	0
bin	86000	0
bin	88000	0
bin	90000	0
bin	92000	1
bin	94000	0
bin	96000	0
bin	98000	0
bin	100000	0
bin	102000	1
bin	104000	0
bin	106000	0
bin	108000	0
bin	110000	0
bin	112000	0
bin	114000	0
bin	116000	0
bin	118000	0
bin	120000	0
bin	122000	0
bin	124000	0
bin	126000	0
bin	128000	0
bin	130000	0
statistic LargeNet.switch11.eth[3].phyLayer.receiver receptionTime:histogram
field count 475
field mean 7.9776e-07
field stddev 2.2815488410121e-07
field min 5.76e-07
field max 1.032e-06
field sum 0.000378936
field sqrsum 3.26973888e-10
attr interpolationmode none
attr recordingmode histogram
attr source packetDuration(receptionEnded)
attr title "reception time"
attr unit s
bin	-inf	0
bin	0	475
bin	0.01	0
bin	0.02	0
bin	0.03	0
bin	0.04	0
bin	0.05	0
bin	0.06	0
bin	0.07	0
bin	0.08	0
bin	0.09	0
bin	0.1	0
bin	0.11	0
bin	0.12	0
bin	0.13	0
bin	0.14	0
bin	0.15	0
bin	0.16	0
bin	0.17	0
bin	0.18	0
bin	0.19	0
bin	0.2	0
bin	0.21	0
bin	0.22	0
bin	0.23	0
bin	0.24	0
bin	0.25	0
bin	0.26	0
bin	0.27	0
bin	0.28	0
bin	0.29	0
bin	0.3	0
bin	0.31	0
bin	0.32	0
bin	0.33	0
bin	0.34	0
bin	0.35	0
bin	0.36	0
bin	0.37	0
bin	0.38	0
bin	0.39	0
bin	0.4	0
bin	0.41	0
bin	0.42	0
bin	0.43	0
bin	0.44	0
bin	0.45	0
bin	0.46	0
bin	0.47	0
bin	0.48	0
bin	0.49	0
bin	0.5	0
bin	0.51	0
statistic LargeNet.switch11.eth[3].phyLayer.receiver flowReceptionTime:histogram
field count 0
field mean -nan
field stddev nan
field min nan
field max nan
field sum 0
field sqrsum 0
attr interpolationmode none
attr recordingmode histogram
attr source packetDuration(demuxFlow(receptionEnded))
attr title "flow reception time"
attr unit s
bin	-inf	0
bin	0	0
bin	1	0
scalar LargeNet.switch11.eth[3] packetDropInterfaceDown:count 0
attr interpolationmode none
attr recordingmode count
attr source packetDropReasonIsInterfaceDown(packetDropped)
attr title "packet drops: interface down, count"
scalar LargeNet.switch11.eth[3] packetDropInterfaceDown:sum(packetBytes) 0
attr interpolationmode none
attr recordingmode sum(packetBytes)
attr source packetDropReasonIsInterfaceDown(packetDropped)
attr title "packet drops: interface down, sum(packetBytes)"
scalar LargeNet.switch11.eth[3] packetDropNoCarrier:count 0
attr interpolationmode none
attr recordingmode count
attr source packetDropReasonIsNoCarrier(packetDropped)
attr title "packet drops: no carrier, count"
scalar LargeNet.switch11.eth[3] packetDropNoCarrier:sum(packetBytes) 0
attr interpolationmode none
attr recordingmode sum(packetBytes)
attr source packetDropReasonIsNoCarrier(packetDropped)
attr title "packet drops: no carrier, sum(packetBytes)"

