version 3
run General-0-20250108-11:32:58-13219
attr configname General
attr datetime 20250108-11:32:58
attr datetimef 20250108-113258
attr experiment General
attr inifile omnetpp.ini
attr iterationvars ""
attr iterationvarsd ""
attr iterationvarsf ""
attr measurement ""
attr network QueueingTimeMeasurementShowcase
attr processid 13219
attr repetition 0
attr replication #0
attr resultdir results
attr runnumber 0
attr seedset 0
config **.param-recording false
config image-path /home/levy/workspace/inet/images
config output-scalar-file results/omnetpp.ini-General-#0.sca
config output-vector-file results/omnetpp.ini-General-#0.vec
config sim-time-limit 5s
config network QueueingTimeMeasurementShowcase
config description "Measure queueing time in the switch"
config sim-time-limit 5s
config *.source.numApps 1
config *.source.app[0].typename UdpSourceApp
config *.source.app[0].source.packetLength 1200B
config *.source.app[0].source.productionInterval exponential(100us)
config *.source.app[0].io.destAddress "\"destination\""
config *.source.app[0].io.destPort 1000
config *.destination.numApps 1
config *.destination.app[0].typename UdpSinkApp
config *.destination.app[0].io.localPort 1000

scalar QueueingTimeMeasurementShowcase.source.ethernet pauseSent:count 0
scalar QueueingTimeMeasurementShowcase.source.ethernet pauseSent:sum 0
scalar QueueingTimeMeasurementShowcase.source.ethernet decapPk:count 0
scalar QueueingTimeMeasurementShowcase.source.ethernet decapPk:sum(packetBytes) 0
scalar QueueingTimeMeasurementShowcase.source.ethernet encapPk:count 50192
scalar QueueingTimeMeasurementShowcase.source.ethernet encapPk:sum(packetBytes) 61635776
scalar QueueingTimeMeasurementShowcase.source.lo[0].lo rcvdPkFromHl:count 0
scalar QueueingTimeMeasurementShowcase.source.lo[0].lo rcvdPkFromHl:sum(packetBytes) 0
scalar QueueingTimeMeasurementShowcase.source.lo[0].lo passedUpPk:count 0
scalar QueueingTimeMeasurementShowcase.source.lo[0].lo passedUpPk:sum(packetBytes) 0
scalar QueueingTimeMeasurementShowcase.source.lo[0] packetDropInterfaceDown:count 0
scalar QueueingTimeMeasurementShowcase.source.lo[0] packetDropInterfaceDown:sum(packetBytes) 0
scalar QueueingTimeMeasurementShowcase.source.lo[0] packetDropNoCarrier:count 0
scalar QueueingTimeMeasurementShowcase.source.lo[0] packetDropNoCarrier:sum(packetBytes) 0
scalar QueueingTimeMeasurementShowcase.source.eth[0].queue queueLength:last 905
scalar QueueingTimeMeasurementShowcase.source.eth[0].queue queueLength:max 925
scalar QueueingTimeMeasurementShowcase.source.eth[0].queue queueLength:timeavg 511.6093539314
scalar QueueingTimeMeasurementShowcase.source.eth[0].queue queueBitLength:last 9021040
scalar QueueingTimeMeasurementShowcase.source.eth[0].queue queueBitLength:max 9220400
scalar QueueingTimeMeasurementShowcase.source.eth[0].queue queueBitLength:timeavg 5099722.0399883
scalar QueueingTimeMeasurementShowcase.source.eth[0].queue outgoingPackets:count 49287
scalar QueueingTimeMeasurementShowcase.source.eth[0].queue outgoingPacketLengths:sum 491292816
scalar QueueingTimeMeasurementShowcase.source.eth[0].queue incomingPackets:count 50192
scalar QueueingTimeMeasurementShowcase.source.eth[0].queue incomingPacketLengths:sum 500313856
scalar QueueingTimeMeasurementShowcase.source.eth[0].queue droppedPacketsQueueOverflow:count 0
scalar QueueingTimeMeasurementShowcase.source.eth[0].queue droppedPacketLengthsQueueOverflow:sum 0
scalar QueueingTimeMeasurementShowcase.source.eth[0].mac "simulated time" 5
scalar QueueingTimeMeasurementShowcase.source.eth[0].mac full-duplex 1
scalar QueueingTimeMeasurementShowcase.source.eth[0].mac "frames/sec sent" 9857.2
scalar QueueingTimeMeasurementShowcase.source.eth[0].mac "frames/sec rcvd" 0
scalar QueueingTimeMeasurementShowcase.source.eth[0].mac "bits/sec sent" 98256569.6
scalar QueueingTimeMeasurementShowcase.source.eth[0].mac "bits/sec rcvd" 0
scalar QueueingTimeMeasurementShowcase.source.eth[0].mac "rx channel idle (%)" 100
scalar QueueingTimeMeasurementShowcase.source.eth[0].mac "rx channel utilization (%)" 0
scalar QueueingTimeMeasurementShowcase.source.eth[0].mac rxPausePkUnits:count 0
scalar QueueingTimeMeasurementShowcase.source.eth[0].mac rxPausePkUnits:sum 0
scalar QueueingTimeMeasurementShowcase.source.eth[0].mac txPausePkUnits:count 0
scalar QueueingTimeMeasurementShowcase.source.eth[0].mac txPausePkUnits:sum 0
scalar QueueingTimeMeasurementShowcase.source.eth[0].mac rxPkOk:count 0
scalar QueueingTimeMeasurementShowcase.source.eth[0].mac rxPkOk:sum(packetBytes) 0
scalar QueueingTimeMeasurementShowcase.source.eth[0].mac txPk:count 49286
scalar QueueingTimeMeasurementShowcase.source.eth[0].mac txPk:sum(packetBytes) 61410356
scalar QueueingTimeMeasurementShowcase.source.eth[0].mac packetReceivedFromUpper:count 49287
scalar QueueingTimeMeasurementShowcase.source.eth[0].mac packetReceivedFromUpper:sum(packetBytes) 61411602
scalar QueueingTimeMeasurementShowcase.source.eth[0].mac passedUpPk:count 0
scalar QueueingTimeMeasurementShowcase.source.eth[0].mac passedUpPk:sum(packetBytes) 0
scalar QueueingTimeMeasurementShowcase.source.eth[0].mac packetDropIncorrectlyReceived:count 0
scalar QueueingTimeMeasurementShowcase.source.eth[0].mac packetDropIncorrectlyReceived:sum(packetBytes) 0
scalar QueueingTimeMeasurementShowcase.source.eth[0].mac packetDropInterfaceDown:count 0
scalar QueueingTimeMeasurementShowcase.source.eth[0].mac packetDropInterfaceDown:sum(packetBytes) 0
scalar QueueingTimeMeasurementShowcase.source.eth[0].mac packetDropNotAddressedToUs:count 0
scalar QueueingTimeMeasurementShowcase.source.eth[0].mac packetDropNotAddressedToUs:sum(packetBytes) 0
scalar QueueingTimeMeasurementShowcase.source.eth[0] packetDropInterfaceDown:count 0
scalar QueueingTimeMeasurementShowcase.source.eth[0] packetDropInterfaceDown:sum(packetBytes) 0
scalar QueueingTimeMeasurementShowcase.source.eth[0] packetDropNoCarrier:count 0
scalar QueueingTimeMeasurementShowcase.source.eth[0] packetDropNoCarrier:sum(packetBytes) 0
scalar QueueingTimeMeasurementShowcase.source.ipv4.ip packetDropAddressResolutionFailed:count 0
scalar QueueingTimeMeasurementShowcase.source.ipv4.ip packetDropAddressResolutionFailed:sum(packetBytes) 0
scalar QueueingTimeMeasurementShowcase.source.ipv4.ip packetDropHopLimitReached:count 0
scalar QueueingTimeMeasurementShowcase.source.ipv4.ip packetDropHopLimitReached:sum(packetBytes) 0
scalar QueueingTimeMeasurementShowcase.source.ipv4.ip packetDropForwardingDisabled:count 0
scalar QueueingTimeMeasurementShowcase.source.ipv4.ip packetDropForwardingDisabled:sum(packetBytes) 0
scalar QueueingTimeMeasurementShowcase.source.ipv4.ip packetDropLifetimeExpired:count 0
scalar QueueingTimeMeasurementShowcase.source.ipv4.ip packetDropLifetimeExpired:sum(packetBytes) 0
scalar QueueingTimeMeasurementShowcase.source.ipv4.ip packetDropNoInterfaceFound:count 0
scalar QueueingTimeMeasurementShowcase.source.ipv4.ip packetDropNoInterfaceFound:sum(packetBytes) 0
scalar QueueingTimeMeasurementShowcase.source.ipv4.ip packetDropNoRouteFound:count 0
scalar QueueingTimeMeasurementShowcase.source.ipv4.ip packetDropNoRouteFound:sum(packetBytes) 0
scalar QueueingTimeMeasurementShowcase.source.ipv4.ip packetDropUndefined:count 0
scalar QueueingTimeMeasurementShowcase.source.ipv4.ip packetDropUndefined:sum(packetBytes) 0
scalar QueueingTimeMeasurementShowcase.source.udp packetReceived:count 0
scalar QueueingTimeMeasurementShowcase.source.udp packetReceived:sum(packetBytes) 0
scalar QueueingTimeMeasurementShowcase.source.udp packetSent:count 50192
scalar QueueingTimeMeasurementShowcase.source.udp packetSent:sum(packetBytes) 60631936
scalar QueueingTimeMeasurementShowcase.source.udp passedUpPk:count 0
scalar QueueingTimeMeasurementShowcase.source.udp droppedPkWrongPort:count 0
scalar QueueingTimeMeasurementShowcase.source.udp droppedPkBadChecksum:count 0
scalar QueueingTimeMeasurementShowcase.source.app[0].source packets:count 50192
scalar QueueingTimeMeasurementShowcase.source.app[0].source packetLengths:sum 481843200
scalar QueueingTimeMeasurementShowcase.source.app[0].io "packets sent" 50192
scalar QueueingTimeMeasurementShowcase.source.app[0].io "packets received" 0
scalar QueueingTimeMeasurementShowcase.source.app[0].io packetReceived:count 0
scalar QueueingTimeMeasurementShowcase.source.app[0].io packetReceived:sum(packetBytes) 0
scalar QueueingTimeMeasurementShowcase.source.app[0].io packetSent:count 50192
scalar QueueingTimeMeasurementShowcase.source.app[0].io packetSent:sum(packetBytes) 60230400
scalar QueueingTimeMeasurementShowcase.destination.ethernet pauseSent:count 0
scalar QueueingTimeMeasurementShowcase.destination.ethernet pauseSent:sum 0
scalar QueueingTimeMeasurementShowcase.destination.ethernet decapPk:count 49286
scalar QueueingTimeMeasurementShowcase.destination.ethernet decapPk:sum(packetBytes) 60523208
scalar QueueingTimeMeasurementShowcase.destination.ethernet encapPk:count 0
scalar QueueingTimeMeasurementShowcase.destination.ethernet encapPk:sum(packetBytes) 0
scalar QueueingTimeMeasurementShowcase.destination.lo[0].lo rcvdPkFromHl:count 0
scalar QueueingTimeMeasurementShowcase.destination.lo[0].lo rcvdPkFromHl:sum(packetBytes) 0
scalar QueueingTimeMeasurementShowcase.destination.lo[0].lo passedUpPk:count 0
scalar QueueingTimeMeasurementShowcase.destination.lo[0].lo passedUpPk:sum(packetBytes) 0
scalar QueueingTimeMeasurementShowcase.destination.lo[0] packetDropInterfaceDown:count 0
scalar QueueingTimeMeasurementShowcase.destination.lo[0] packetDropInterfaceDown:sum(packetBytes) 0
scalar QueueingTimeMeasurementShowcase.destination.lo[0] packetDropNoCarrier:count 0
scalar QueueingTimeMeasurementShowcase.destination.lo[0] packetDropNoCarrier:sum(packetBytes) 0
scalar QueueingTimeMeasurementShowcase.destination.eth[0].queue queueLength:last 0
scalar QueueingTimeMeasurementShowcase.destination.eth[0].queue queueLength:max 0
scalar QueueingTimeMeasurementShowcase.destination.eth[0].queue queueLength:timeavg 0
scalar QueueingTimeMeasurementShowcase.destination.eth[0].queue queueBitLength:last 0
scalar QueueingTimeMeasurementShowcase.destination.eth[0].queue queueBitLength:max 0
scalar QueueingTimeMeasurementShowcase.destination.eth[0].queue queueBitLength:timeavg 0
scalar QueueingTimeMeasurementShowcase.destination.eth[0].queue outgoingPackets:count 0
scalar QueueingTimeMeasurementShowcase.destination.eth[0].queue outgoingPacketLengths:sum 0
scalar QueueingTimeMeasurementShowcase.destination.eth[0].queue incomingPackets:count 0
scalar QueueingTimeMeasurementShowcase.destination.eth[0].queue incomingPacketLengths:sum 0
scalar QueueingTimeMeasurementShowcase.destination.eth[0].queue droppedPacketsQueueOverflow:count 0
scalar QueueingTimeMeasurementShowcase.destination.eth[0].queue droppedPacketLengthsQueueOverflow:sum 0
scalar QueueingTimeMeasurementShowcase.destination.eth[0].mac "simulated time" 5
scalar QueueingTimeMeasurementShowcase.destination.eth[0].mac full-duplex 1
scalar QueueingTimeMeasurementShowcase.destination.eth[0].mac "frames/sec sent" 0
scalar QueueingTimeMeasurementShowcase.destination.eth[0].mac "frames/sec rcvd" 9857.2
scalar QueueingTimeMeasurementShowcase.destination.eth[0].mac "bits/sec sent" 0
scalar QueueingTimeMeasurementShowcase.destination.eth[0].mac "bits/sec rcvd" 98256569.6
scalar QueueingTimeMeasurementShowcase.destination.eth[0].mac "rx channel idle (%)" 1.1125696
scalar QueueingTimeMeasurementShowcase.destination.eth[0].mac "rx channel utilization (%)" 98.8874304
scalar QueueingTimeMeasurementShowcase.destination.eth[0].mac rxPausePkUnits:count 0
scalar QueueingTimeMeasurementShowcase.destination.eth[0].mac rxPausePkUnits:sum 0
scalar QueueingTimeMeasurementShowcase.destination.eth[0].mac txPausePkUnits:count 0
scalar QueueingTimeMeasurementShowcase.destination.eth[0].mac txPausePkUnits:sum 0
scalar QueueingTimeMeasurementShowcase.destination.eth[0].mac rxPkOk:count 49286
scalar QueueingTimeMeasurementShowcase.destination.eth[0].mac rxPkOk:sum(packetBytes) 61410356
scalar QueueingTimeMeasurementShowcase.destination.eth[0].mac txPk:count 0
scalar QueueingTimeMeasurementShowcase.destination.eth[0].mac txPk:sum(packetBytes) 0
scalar QueueingTimeMeasurementShowcase.destination.eth[0].mac packetReceivedFromUpper:count 0
scalar QueueingTimeMeasurementShowcase.destination.eth[0].mac packetReceivedFromUpper:sum(packetBytes) 0
scalar QueueingTimeMeasurementShowcase.destination.eth[0].mac passedUpPk:count 49286
scalar QueueingTimeMeasurementShowcase.destination.eth[0].mac passedUpPk:sum(packetBytes) 61410356
scalar QueueingTimeMeasurementShowcase.destination.eth[0].mac packetDropIncorrectlyReceived:count 0
scalar QueueingTimeMeasurementShowcase.destination.eth[0].mac packetDropIncorrectlyReceived:sum(packetBytes) 0
scalar QueueingTimeMeasurementShowcase.destination.eth[0].mac packetDropInterfaceDown:count 0
scalar QueueingTimeMeasurementShowcase.destination.eth[0].mac packetDropInterfaceDown:sum(packetBytes) 0
scalar QueueingTimeMeasurementShowcase.destination.eth[0].mac packetDropNotAddressedToUs:count 0
scalar QueueingTimeMeasurementShowcase.destination.eth[0].mac packetDropNotAddressedToUs:sum(packetBytes) 0
scalar QueueingTimeMeasurementShowcase.destination.eth[0] packetDropInterfaceDown:count 0
scalar QueueingTimeMeasurementShowcase.destination.eth[0] packetDropInterfaceDown:sum(packetBytes) 0
scalar QueueingTimeMeasurementShowcase.destination.eth[0] packetDropNoCarrier:count 0
scalar QueueingTimeMeasurementShowcase.destination.eth[0] packetDropNoCarrier:sum(packetBytes) 0
scalar QueueingTimeMeasurementShowcase.destination.ipv4.ip packetDropAddressResolutionFailed:count 0
scalar QueueingTimeMeasurementShowcase.destination.ipv4.ip packetDropAddressResolutionFailed:sum(packetBytes) 0
scalar QueueingTimeMeasurementShowcase.destination.ipv4.ip packetDropHopLimitReached:count 0
scalar QueueingTimeMeasurementShowcase.destination.ipv4.ip packetDropHopLimitReached:sum(packetBytes) 0
scalar QueueingTimeMeasurementShowcase.destination.ipv4.ip packetDropForwardingDisabled:count 0
scalar QueueingTimeMeasurementShowcase.destination.ipv4.ip packetDropForwardingDisabled:sum(packetBytes) 0
scalar QueueingTimeMeasurementShowcase.destination.ipv4.ip packetDropLifetimeExpired:count 0
scalar QueueingTimeMeasurementShowcase.destination.ipv4.ip packetDropLifetimeExpired:sum(packetBytes) 0
scalar QueueingTimeMeasurementShowcase.destination.ipv4.ip packetDropNoInterfaceFound:count 0
scalar QueueingTimeMeasurementShowcase.destination.ipv4.ip packetDropNoInterfaceFound:sum(packetBytes) 0
scalar QueueingTimeMeasurementShowcase.destination.ipv4.ip packetDropNoRouteFound:count 0
scalar QueueingTimeMeasurementShowcase.destination.ipv4.ip packetDropNoRouteFound:sum(packetBytes) 0
scalar QueueingTimeMeasurementShowcase.destination.ipv4.ip packetDropUndefined:count 0
scalar QueueingTimeMeasurementShowcase.destination.ipv4.ip packetDropUndefined:sum(packetBytes) 0
scalar QueueingTimeMeasurementShowcase.destination.udp packetReceived:count 49286
scalar QueueingTimeMeasurementShowcase.destination.udp packetReceived:sum(packetBytes) 59537488
scalar QueueingTimeMeasurementShowcase.destination.udp packetSent:count 0
scalar QueueingTimeMeasurementShowcase.destination.udp packetSent:sum(packetBytes) 0
scalar QueueingTimeMeasurementShowcase.destination.udp passedUpPk:count 49286
scalar QueueingTimeMeasurementShowcase.destination.udp droppedPkWrongPort:count 0
scalar QueueingTimeMeasurementShowcase.destination.udp droppedPkBadChecksum:count 0
scalar QueueingTimeMeasurementShowcase.destination.app[0].sink packets:count 49286
scalar QueueingTimeMeasurementShowcase.destination.app[0].sink packetLengths:sum 473145600
scalar QueueingTimeMeasurementShowcase.destination.app[0].sink droppedPackets:count 49286
scalar QueueingTimeMeasurementShowcase.destination.app[0].sink droppedPacketLengths:sum 473145600
scalar QueueingTimeMeasurementShowcase.destination.app[0].io "packets sent" 0
scalar QueueingTimeMeasurementShowcase.destination.app[0].io "packets received" 49286
scalar QueueingTimeMeasurementShowcase.destination.app[0].io packetReceived:count 49286
scalar QueueingTimeMeasurementShowcase.destination.app[0].io packetReceived:sum(packetBytes) 59143200
scalar QueueingTimeMeasurementShowcase.destination.app[0].io packetSent:count 0
scalar QueueingTimeMeasurementShowcase.destination.app[0].io packetSent:sum(packetBytes) 0
scalar QueueingTimeMeasurementShowcase.source.eth[0].queue queueingTime:histogram:count 49287
scalar QueueingTimeMeasurementShowcase.source.eth[0].queue queueingTime:histogram:sumweights 49287
scalar QueueingTimeMeasurementShowcase.source.eth[0].queue queueingTime:histogram:mean 0.051075547391505
scalar QueueingTimeMeasurementShowcase.source.eth[0].queue queueingTime:histogram:stddev 0.03236518335394
scalar QueueingTimeMeasurementShowcase.source.eth[0].queue queueingTime:histogram:min 0
scalar QueueingTimeMeasurementShowcase.source.eth[0].queue queueingTime:histogram:max 0.093588131263
scalar QueueingTimeMeasurementShowcase.source.eth[0].queue queueingTime:histogram:numbins 74
scalar QueueingTimeMeasurementShowcase.source.eth[0].queue queueingTime:histogram:rangemin 0
scalar QueueingTimeMeasurementShowcase.source.eth[0].queue queueingTime:histogram:rangemax 0.09472
scalar QueueingTimeMeasurementShowcase.source.eth[0].queue queueingTime:histogram:underflows 0
scalar QueueingTimeMeasurementShowcase.source.eth[0].queue queueingTime:histogram:overflows 0
scalar QueueingTimeMeasurementShowcase.source.eth[0].queue outgoingPacketLengths:histogram:count 49287
scalar QueueingTimeMeasurementShowcase.source.eth[0].queue outgoingPacketLengths:histogram:sumweights 49287
scalar QueueingTimeMeasurementShowcase.source.eth[0].queue outgoingPacketLengths:histogram:mean 9968
scalar QueueingTimeMeasurementShowcase.source.eth[0].queue outgoingPacketLengths:histogram:stddev 0
scalar QueueingTimeMeasurementShowcase.source.eth[0].queue outgoingPacketLengths:histogram:min 9968
scalar QueueingTimeMeasurementShowcase.source.eth[0].queue outgoingPacketLengths:histogram:max 9968
scalar QueueingTimeMeasurementShowcase.source.eth[0].queue outgoingPacketLengths:histogram:numbins 2
scalar QueueingTimeMeasurementShowcase.source.eth[0].queue outgoingPacketLengths:histogram:rangemin 9967
scalar QueueingTimeMeasurementShowcase.source.eth[0].queue outgoingPacketLengths:histogram:rangemax 9969
scalar QueueingTimeMeasurementShowcase.source.eth[0].queue outgoingPacketLengths:histogram:underflows 0
scalar QueueingTimeMeasurementShowcase.source.eth[0].queue outgoingPacketLengths:histogram:overflows 0
scalar QueueingTimeMeasurementShowcase.source.eth[0].queue flowQueueingTime:histogram:count 0
scalar QueueingTimeMeasurementShowcase.source.eth[0].queue flowQueueingTime:histogram:sumweights 0
scalar QueueingTimeMeasurementShowcase.source.eth[0].queue flowQueueingTime:histogram:mean -nan
scalar QueueingTimeMeasurementShowcase.source.eth[0].queue flowQueueingTime:histogram:stddev nan
scalar QueueingTimeMeasurementShowcase.source.eth[0].queue flowQueueingTime:histogram:min nan
scalar QueueingTimeMeasurementShowcase.source.eth[0].queue flowQueueingTime:histogram:max nan
scalar QueueingTimeMeasurementShowcase.source.eth[0].queue flowQueueingTime:histogram:numbins 1
scalar QueueingTimeMeasurementShowcase.source.eth[0].queue flowQueueingTime:histogram:rangemin 0
scalar QueueingTimeMeasurementShowcase.source.eth[0].queue flowQueueingTime:histogram:rangemax 1
scalar QueueingTimeMeasurementShowcase.source.eth[0].queue flowQueueingTime:histogram:underflows 0
scalar QueueingTimeMeasurementShowcase.source.eth[0].queue flowQueueingTime:histogram:overflows 0
scalar QueueingTimeMeasurementShowcase.source.eth[0].queue incomingPacketLengths:histogram:count 50192
scalar QueueingTimeMeasurementShowcase.source.eth[0].queue incomingPacketLengths:histogram:sumweights 50192
scalar QueueingTimeMeasurementShowcase.source.eth[0].queue incomingPacketLengths:histogram:mean 9968
scalar QueueingTimeMeasurementShowcase.source.eth[0].queue incomingPacketLengths:histogram:stddev 0
scalar QueueingTimeMeasurementShowcase.source.eth[0].queue incomingPacketLengths:histogram:min 9968
scalar QueueingTimeMeasurementShowcase.source.eth[0].queue incomingPacketLengths:histogram:max 9968
scalar QueueingTimeMeasurementShowcase.source.eth[0].queue incomingPacketLengths:histogram:numbins 2
scalar QueueingTimeMeasurementShowcase.source.eth[0].queue incomingPacketLengths:histogram:rangemin 9967
scalar QueueingTimeMeasurementShowcase.source.eth[0].queue incomingPacketLengths:histogram:rangemax 9969
scalar QueueingTimeMeasurementShowcase.source.eth[0].queue incomingPacketLengths:histogram:underflows 0
scalar QueueingTimeMeasurementShowcase.source.eth[0].queue incomingPacketLengths:histogram:overflows 0
scalar QueueingTimeMeasurementShowcase.source.eth[0].mac throughput:histogram:count 493
scalar QueueingTimeMeasurementShowcase.source.eth[0].mac throughput:histogram:sumweights 493
scalar QueueingTimeMeasurementShowcase.source.eth[0].mac throughput:histogram:mean 98896851.909379
scalar QueueingTimeMeasurementShowcase.source.eth[0].mac throughput:histogram:stddev 939263.40209426
scalar QueueingTimeMeasurementShowcase.source.eth[0].mac throughput:histogram:min 87892695.793716
scalar QueueingTimeMeasurementShowcase.source.eth[0].mac throughput:histogram:max 99052132.701422
scalar QueueingTimeMeasurementShowcase.source.eth[0].mac throughput:histogram:numbins 85
scalar QueueingTimeMeasurementShowcase.source.eth[0].mac throughput:histogram:rangemin 85000000
scalar QueueingTimeMeasurementShowcase.source.eth[0].mac throughput:histogram:rangemax 102000000
scalar QueueingTimeMeasurementShowcase.source.eth[0].mac throughput:histogram:underflows 0
scalar QueueingTimeMeasurementShowcase.source.eth[0].mac throughput:histogram:overflows 0
scalar QueueingTimeMeasurementShowcase.source.eth[0].mac utilization:histogram:count 493
scalar QueueingTimeMeasurementShowcase.source.eth[0].mac utilization:histogram:sumweights 493
scalar QueueingTimeMeasurementShowcase.source.eth[0].mac utilization:histogram:mean 98.898388220181
scalar QueueingTimeMeasurementShowcase.source.eth[0].mac utilization:histogram:stddev 0.95015699192262
scalar QueueingTimeMeasurementShowcase.source.eth[0].mac utilization:histogram:min 87.892695793716
scalar QueueingTimeMeasurementShowcase.source.eth[0].mac utilization:histogram:max 99.052132701422
scalar QueueingTimeMeasurementShowcase.source.eth[0].mac utilization:histogram:numbins 85
scalar QueueingTimeMeasurementShowcase.source.eth[0].mac utilization:histogram:rangemin 85
scalar QueueingTimeMeasurementShowcase.source.eth[0].mac utilization:histogram:rangemax 102
scalar QueueingTimeMeasurementShowcase.source.eth[0].mac utilization:histogram:underflows 0
scalar QueueingTimeMeasurementShowcase.source.eth[0].mac utilization:histogram:overflows 0
scalar QueueingTimeMeasurementShowcase.source.app[0].source packetLengths:histogram:count 50192
scalar QueueingTimeMeasurementShowcase.source.app[0].source packetLengths:histogram:sumweights 50192
scalar QueueingTimeMeasurementShowcase.source.app[0].source packetLengths:histogram:mean 9600
scalar QueueingTimeMeasurementShowcase.source.app[0].source packetLengths:histogram:stddev 0
scalar QueueingTimeMeasurementShowcase.source.app[0].source packetLengths:histogram:min 9600
scalar QueueingTimeMeasurementShowcase.source.app[0].source packetLengths:histogram:max 9600
scalar QueueingTimeMeasurementShowcase.source.app[0].source packetLengths:histogram:numbins 2
scalar QueueingTimeMeasurementShowcase.source.app[0].source packetLengths:histogram:rangemin 9599
scalar QueueingTimeMeasurementShowcase.source.app[0].source packetLengths:histogram:rangemax 9601
scalar QueueingTimeMeasurementShowcase.source.app[0].source packetLengths:histogram:underflows 0
scalar QueueingTimeMeasurementShowcase.source.app[0].source packetLengths:histogram:overflows 0
scalar QueueingTimeMeasurementShowcase.destination.eth[0].queue queueingTime:histogram:count 0
scalar QueueingTimeMeasurementShowcase.destination.eth[0].queue queueingTime:histogram:sumweights 0
scalar QueueingTimeMeasurementShowcase.destination.eth[0].queue queueingTime:histogram:mean -nan
scalar QueueingTimeMeasurementShowcase.destination.eth[0].queue queueingTime:histogram:stddev nan
scalar QueueingTimeMeasurementShowcase.destination.eth[0].queue queueingTime:histogram:min nan
scalar QueueingTimeMeasurementShowcase.destination.eth[0].queue queueingTime:histogram:max nan
scalar QueueingTimeMeasurementShowcase.destination.eth[0].queue queueingTime:histogram:numbins 1
scalar QueueingTimeMeasurementShowcase.destination.eth[0].queue queueingTime:histogram:rangemin 0
scalar QueueingTimeMeasurementShowcase.destination.eth[0].queue queueingTime:histogram:rangemax 1
scalar QueueingTimeMeasurementShowcase.destination.eth[0].queue queueingTime:histogram:underflows 0
scalar QueueingTimeMeasurementShowcase.destination.eth[0].queue queueingTime:histogram:overflows 0
scalar QueueingTimeMeasurementShowcase.destination.eth[0].queue outgoingPacketLengths:histogram:count 0
scalar QueueingTimeMeasurementShowcase.destination.eth[0].queue outgoingPacketLengths:histogram:sumweights 0
scalar QueueingTimeMeasurementShowcase.destination.eth[0].queue outgoingPacketLengths:histogram:mean -nan
scalar QueueingTimeMeasurementShowcase.destination.eth[0].queue outgoingPacketLengths:histogram:stddev nan
scalar QueueingTimeMeasurementShowcase.destination.eth[0].queue outgoingPacketLengths:histogram:min nan
scalar QueueingTimeMeasurementShowcase.destination.eth[0].queue outgoingPacketLengths:histogram:max nan
scalar QueueingTimeMeasurementShowcase.destination.eth[0].queue outgoingPacketLengths:histogram:numbins 1
scalar QueueingTimeMeasurementShowcase.destination.eth[0].queue outgoingPacketLengths:histogram:rangemin 0
scalar QueueingTimeMeasurementShowcase.destination.eth[0].queue outgoingPacketLengths:histogram:rangemax 1
scalar QueueingTimeMeasurementShowcase.destination.eth[0].queue outgoingPacketLengths:histogram:underflows 0
scalar QueueingTimeMeasurementShowcase.destination.eth[0].queue outgoingPacketLengths:histogram:overflows 0
scalar QueueingTimeMeasurementShowcase.destination.eth[0].queue flowQueueingTime:histogram:count 0
scalar QueueingTimeMeasurementShowcase.destination.eth[0].queue flowQueueingTime:histogram:sumweights 0
scalar QueueingTimeMeasurementShowcase.destination.eth[0].queue flowQueueingTime:histogram:mean -nan
scalar QueueingTimeMeasurementShowcase.destination.eth[0].queue flowQueueingTime:histogram:stddev nan
scalar QueueingTimeMeasurementShowcase.destination.eth[0].queue flowQueueingTime:histogram:min nan
scalar QueueingTimeMeasurementShowcase.destination.eth[0].queue flowQueueingTime:histogram:max nan
scalar QueueingTimeMeasurementShowcase.destination.eth[0].queue flowQueueingTime:histogram:numbins 1
scalar QueueingTimeMeasurementShowcase.destination.eth[0].queue flowQueueingTime:histogram:rangemin 0
scalar QueueingTimeMeasurementShowcase.destination.eth[0].queue flowQueueingTime:histogram:rangemax 1
scalar QueueingTimeMeasurementShowcase.destination.eth[0].queue flowQueueingTime:histogram:underflows 0
scalar QueueingTimeMeasurementShowcase.destination.eth[0].queue flowQueueingTime:histogram:overflows 0
scalar QueueingTimeMeasurementShowcase.destination.eth[0].queue incomingPacketLengths:histogram:count 0
scalar QueueingTimeMeasurementShowcase.destination.eth[0].queue incomingPacketLengths:histogram:sumweights 0
scalar QueueingTimeMeasurementShowcase.destination.eth[0].queue incomingPacketLengths:histogram:mean -nan
scalar QueueingTimeMeasurementShowcase.destination.eth[0].queue incomingPacketLengths:histogram:stddev nan
scalar QueueingTimeMeasurementShowcase.destination.eth[0].queue incomingPacketLengths:histogram:min nan
scalar QueueingTimeMeasurementShowcase.destination.eth[0].queue incomingPacketLengths:histogram:max nan
scalar QueueingTimeMeasurementShowcase.destination.eth[0].queue incomingPacketLengths:histogram:numbins 1
scalar QueueingTimeMeasurementShowcase.destination.eth[0].queue incomingPacketLengths:histogram:rangemin 0
scalar QueueingTimeMeasurementShowcase.destination.eth[0].queue incomingPacketLengths:histogram:rangemax 1
scalar QueueingTimeMeasurementShowcase.destination.eth[0].queue incomingPacketLengths:histogram:underflows 0
scalar QueueingTimeMeasurementShowcase.destination.eth[0].queue incomingPacketLengths:histogram:overflows 0
scalar QueueingTimeMeasurementShowcase.destination.eth[0].mac throughput:histogram:count 50
scalar QueueingTimeMeasurementShowcase.destination.eth[0].mac throughput:histogram:sumweights 50
scalar QueueingTimeMeasurementShowcase.destination.eth[0].mac throughput:histogram:mean 0
scalar QueueingTimeMeasurementShowcase.destination.eth[0].mac throughput:histogram:stddev 0
scalar QueueingTimeMeasurementShowcase.destination.eth[0].mac throughput:histogram:min 0
scalar QueueingTimeMeasurementShowcase.destination.eth[0].mac throughput:histogram:max 0
scalar QueueingTimeMeasurementShowcase.destination.eth[0].mac throughput:histogram:numbins 50
scalar QueueingTimeMeasurementShowcase.destination.eth[0].mac throughput:histogram:rangemin -0.5
scalar QueueingTimeMeasurementShowcase.destination.eth[0].mac throughput:histogram:rangemax 0.5
scalar QueueingTimeMeasurementShowcase.destination.eth[0].mac throughput:histogram:underflows 0
scalar QueueingTimeMeasurementShowcase.destination.eth[0].mac throughput:histogram:overflows 0
scalar QueueingTimeMeasurementShowcase.destination.eth[0].mac utilization:histogram:count 50
scalar QueueingTimeMeasurementShowcase.destination.eth[0].mac utilization:histogram:sumweights 50
scalar QueueingTimeMeasurementShowcase.destination.eth[0].mac utilization:histogram:mean 0
scalar QueueingTimeMeasurementShowcase.destination.eth[0].mac utilization:histogram:stddev 0
scalar QueueingTimeMeasurementShowcase.destination.eth[0].mac utilization:histogram:min 0
scalar QueueingTimeMeasurementShowcase.destination.eth[0].mac utilization:histogram:max 0
scalar QueueingTimeMeasurementShowcase.destination.eth[0].mac utilization:histogram:numbins 50
scalar QueueingTimeMeasurementShowcase.destination.eth[0].mac utilization:histogram:rangemin -0.5
scalar QueueingTimeMeasurementShowcase.destination.eth[0].mac utilization:histogram:rangemax 0.5
scalar QueueingTimeMeasurementShowcase.destination.eth[0].mac utilization:histogram:underflows 0
scalar QueueingTimeMeasurementShowcase.destination.eth[0].mac utilization:histogram:overflows 0
scalar QueueingTimeMeasurementShowcase.destination.app[0].sink packetLengths:histogram:count 49286
scalar QueueingTimeMeasurementShowcase.destination.app[0].sink packetLengths:histogram:sumweights 49286
scalar QueueingTimeMeasurementShowcase.destination.app[0].sink packetLengths:histogram:mean 9600
scalar QueueingTimeMeasurementShowcase.destination.app[0].sink packetLengths:histogram:stddev 0
scalar QueueingTimeMeasurementShowcase.destination.app[0].sink packetLengths:histogram:min 9600
scalar QueueingTimeMeasurementShowcase.destination.app[0].sink packetLengths:histogram:max 9600
scalar QueueingTimeMeasurementShowcase.destination.app[0].sink packetLengths:histogram:numbins 2
scalar QueueingTimeMeasurementShowcase.destination.app[0].sink packetLengths:histogram:rangemin 9599
scalar QueueingTimeMeasurementShowcase.destination.app[0].sink packetLengths:histogram:rangemax 9601
scalar QueueingTimeMeasurementShowcase.destination.app[0].sink packetLengths:histogram:underflows 0
scalar QueueingTimeMeasurementShowcase.destination.app[0].sink packetLengths:histogram:overflows 0
scalar QueueingTimeMeasurementShowcase.destination.app[0].sink meanBitLifeTimePerPacket:histogram:count 49286
scalar QueueingTimeMeasurementShowcase.destination.app[0].sink meanBitLifeTimePerPacket:histogram:sumweights 49286
scalar QueueingTimeMeasurementShowcase.destination.app[0].sink meanBitLifeTimePerPacket:histogram:mean 0.051175128874944
scalar QueueingTimeMeasurementShowcase.destination.app[0].sink meanBitLifeTimePerPacket:histogram:stddev 0.03236503827191
scalar QueueingTimeMeasurementShowcase.destination.app[0].sink meanBitLifeTimePerPacket:histogram:min 0.00010037
scalar QueueingTimeMeasurementShowcase.destination.app[0].sink meanBitLifeTimePerPacket:histogram:max 0.093688501263
scalar QueueingTimeMeasurementShowcase.destination.app[0].sink meanBitLifeTimePerPacket:histogram:numbins 74
scalar QueueingTimeMeasurementShowcase.destination.app[0].sink meanBitLifeTimePerPacket:histogram:rangemin 0
scalar QueueingTimeMeasurementShowcase.destination.app[0].sink meanBitLifeTimePerPacket:histogram:rangemax 0.09472
scalar QueueingTimeMeasurementShowcase.destination.app[0].sink meanBitLifeTimePerPacket:histogram:underflows 0
scalar QueueingTimeMeasurementShowcase.destination.app[0].sink meanBitLifeTimePerPacket:histogram:overflows 0
scalar QueueingTimeMeasurementShowcase.destination.app[0].sink packetLifeTime:histogram:count 49286
scalar QueueingTimeMeasurementShowcase.destination.app[0].sink packetLifeTime:histogram:sumweights 49286
scalar QueueingTimeMeasurementShowcase.destination.app[0].sink packetLifeTime:histogram:mean 0.051175128874944
scalar QueueingTimeMeasurementShowcase.destination.app[0].sink packetLifeTime:histogram:stddev 0.03236503827191
scalar QueueingTimeMeasurementShowcase.destination.app[0].sink packetLifeTime:histogram:min 0.00010037
scalar QueueingTimeMeasurementShowcase.destination.app[0].sink packetLifeTime:histogram:max 0.093688501263
scalar QueueingTimeMeasurementShowcase.destination.app[0].sink packetLifeTime:histogram:numbins 74
scalar QueueingTimeMeasurementShowcase.destination.app[0].sink packetLifeTime:histogram:rangemin 0
scalar QueueingTimeMeasurementShowcase.destination.app[0].sink packetLifeTime:histogram:rangemax 0.09472
scalar QueueingTimeMeasurementShowcase.destination.app[0].sink packetLifeTime:histogram:underflows 0
scalar QueueingTimeMeasurementShowcase.destination.app[0].sink packetLifeTime:histogram:overflows 0
scalar QueueingTimeMeasurementShowcase.destination.app[0].sink packetJitter:histogram:count 49286
scalar QueueingTimeMeasurementShowcase.destination.app[0].sink packetJitter:histogram:sumweights 49286
scalar QueueingTimeMeasurementShowcase.destination.app[0].sink packetJitter:histogram:mean 1.8279273907601e-06
scalar QueueingTimeMeasurementShowcase.destination.app[0].sink packetJitter:histogram:stddev 9.920497155116e-05
scalar QueueingTimeMeasurementShowcase.destination.app[0].sink packetJitter:histogram:min -0.000970952498
scalar QueueingTimeMeasurementShowcase.destination.app[0].sink packetJitter:histogram:max 0.00010127959900001
scalar QueueingTimeMeasurementShowcase.destination.app[0].sink packetJitter:histogram:numbins 58
scalar QueueingTimeMeasurementShowcase.destination.app[0].sink packetJitter:histogram:rangemin -0.00098
scalar QueueingTimeMeasurementShowcase.destination.app[0].sink packetJitter:histogram:rangemax 0.00018
scalar QueueingTimeMeasurementShowcase.destination.app[0].sink packetJitter:histogram:underflows 0
scalar QueueingTimeMeasurementShowcase.destination.app[0].sink packetJitter:histogram:overflows 0
scalar QueueingTimeMeasurementShowcase.destination.app[0].sink packetDelayDifferenceToMean:histogram:count 49286
scalar QueueingTimeMeasurementShowcase.destination.app[0].sink packetDelayDifferenceToMean:histogram:sumweights 49286
scalar QueueingTimeMeasurementShowcase.destination.app[0].sink packetDelayDifferenceToMean:histogram:mean -0.027732117123315
scalar QueueingTimeMeasurementShowcase.destination.app[0].sink packetDelayDifferenceToMean:histogram:stddev 0.016684590678024
scalar QueueingTimeMeasurementShowcase.destination.app[0].sink packetDelayDifferenceToMean:histogram:min -0.051453743145419
scalar QueueingTimeMeasurementShowcase.destination.app[0].sink packetDelayDifferenceToMean:histogram:max 0.0017532237598341
scalar QueueingTimeMeasurementShowcase.destination.app[0].sink packetDelayDifferenceToMean:histogram:numbins 85
scalar QueueingTimeMeasurementShowcase.destination.app[0].sink packetDelayDifferenceToMean:histogram:rangemin -0.05204
scalar QueueingTimeMeasurementShowcase.destination.app[0].sink packetDelayDifferenceToMean:histogram:rangemax 0.00236
scalar QueueingTimeMeasurementShowcase.destination.app[0].sink packetDelayDifferenceToMean:histogram:underflows 0
scalar QueueingTimeMeasurementShowcase.destination.app[0].sink packetDelayDifferenceToMean:histogram:overflows 0
scalar QueueingTimeMeasurementShowcase.destination.app[0].sink packetDelayVariation:histogram:count 49286
scalar QueueingTimeMeasurementShowcase.destination.app[0].sink packetDelayVariation:histogram:sumweights 49286
scalar QueueingTimeMeasurementShowcase.destination.app[0].sink packetDelayVariation:histogram:mean 0.017620226685996
scalar QueueingTimeMeasurementShowcase.destination.app[0].sink packetDelayVariation:histogram:stddev 0.011582998730772
scalar QueueingTimeMeasurementShowcase.destination.app[0].sink packetDelayVariation:histogram:min 0
scalar QueueingTimeMeasurementShowcase.destination.app[0].sink packetDelayVariation:histogram:max 0.032364711134981
scalar QueueingTimeMeasurementShowcase.destination.app[0].sink packetDelayVariation:histogram:numbins 51
scalar QueueingTimeMeasurementShowcase.destination.app[0].sink packetDelayVariation:histogram:rangemin 0
scalar QueueingTimeMeasurementShowcase.destination.app[0].sink packetDelayVariation:histogram:rangemax 0.03264
scalar QueueingTimeMeasurementShowcase.destination.app[0].sink packetDelayVariation:histogram:underflows 0
scalar QueueingTimeMeasurementShowcase.destination.app[0].sink packetDelayVariation:histogram:overflows 0
scalar QueueingTimeMeasurementShowcase.destination.app[0].sink droppedPacketLengths:histogram:count 49286
scalar QueueingTimeMeasurementShowcase.destination.app[0].sink droppedPacketLengths:histogram:sumweights 49286
scalar QueueingTimeMeasurementShowcase.destination.app[0].sink droppedPacketLengths:histogram:mean 9600
scalar QueueingTimeMeasurementShowcase.destination.app[0].sink droppedPacketLengths:histogram:stddev 0
scalar QueueingTimeMeasurementShowcase.destination.app[0].sink droppedPacketLengths:histogram:min 9600
scalar QueueingTimeMeasurementShowcase.destination.app[0].sink droppedPacketLengths:histogram:max 9600
scalar QueueingTimeMeasurementShowcase.destination.app[0].sink droppedPacketLengths:histogram:numbins 2
scalar QueueingTimeMeasurementShowcase.destination.app[0].sink droppedPacketLengths:histogram:rangemin 9599
scalar QueueingTimeMeasurementShowcase.destination.app[0].sink droppedPacketLengths:histogram:rangemax 9601
scalar QueueingTimeMeasurementShowcase.destination.app[0].sink droppedPacketLengths:histogram:underflows 0
scalar QueueingTimeMeasurementShowcase.destination.app[0].sink droppedPacketLengths:histogram:overflows 0
statistic QueueingTimeMeasurementShowcase.source.eth[0].queue queueingTime:histogram
field count 49287
field mean 0.051075547391505
field stddev 0.03236518335394
field min 0
field max 0.093588131263
field sum 2517.3605042851
field sqrsum 180.20290177804
bin	-inf	0
bin	0	2979
bin	0.00128	2654
bin	0.00256	1588
bin	0.00384	454
bin	0.00512	168
bin	0.0064	128
bin	0.00768	287
bin	0.00896	393
bin	0.01024	341
bin	0.01152	634
bin	0.0128	1148
bin	0.01408	729
bin	0.01536	547
bin	0.01664	450
bin	0.01792	321
bin	0.0192	214
bin	0.02048	75
bin	0.02176	100
bin	0.02304	152
bin	0.02432	338
bin	0.0256	1414
bin	0.02688	943
bin	0.02816	453
bin	0.02944	209
bin	0.03072	266
bin	0.032	52
bin	0.03328	177
bin	0.03456	328
bin	0.03584	86
bin	0.03712	145
bin	0.0384	139
bin	0.03968	252
bin	0.04096	208
bin	0.04224	443
bin	0.04352	563
bin	0.0448	646
bin	0.04608	398
bin	0.04736	463
bin	0.04864	525
bin	0.04992	754
bin	0.0512	1284
bin	0.05248	1163
bin	0.05376	864
bin	0.05504	517
bin	0.05632	364
bin	0.0576	72
bin	0.05888	249
bin	0.06016	310
bin	0.06144	97
bin	0.06272	164
bin	0.064	233
bin	0.06528	443
bin	0.06656	599
bin	0.06784	277
bin	0.06912	66
bin	0.0704	45
bin	0.07168	71
bin	0.07296	621
bin	0.07424	796
bin	0.07552	1492
bin	0.0768	1184
bin	0.07808	1151
bin	0.07936	641
bin	0.08064	1203
bin	0.08192	1465
bin	0.0832	696
bin	0.08448	2169
bin	0.08576	2368
bin	0.08704	2706
bin	0.08832	2018
bin	0.0896	780
bin	0.09088	729
bin	0.09216	273
bin	0.09344	13
bin	0.09472	0
statistic QueueingTimeMeasurementShowcase.source.eth[0].queue outgoingPacketLengths:histogram
field count 49287
field mean 9968
field stddev 0
field min 9968
field max 9968
field sum 491292816
field sqrsum 4897206789888
bin	-inf	0
bin	9967	0
bin	9968	49287
bin	9969	0
statistic QueueingTimeMeasurementShowcase.source.eth[0].queue flowQueueingTime:histogram
field count 0
field mean -nan
field stddev nan
field min nan
field max nan
field sum 0
field sqrsum 0
bin	-inf	0
bin	0	0
bin	1	0
statistic QueueingTimeMeasurementShowcase.source.eth[0].queue incomingPacketLengths:histogram
field count 50192
field mean 9968
field stddev 0
field min 9968
field max 9968
field sum 500313856
field sqrsum 4987128516608
bin	-inf	0
bin	9967	0
bin	9968	50192
bin	9969	0
statistic QueueingTimeMeasurementShowcase.source.eth[0].mac throughput:histogram
field count 493
field mean 98896851.909379
field stddev 939263.40209426
field min 87892695.793716
field max 99052132.701422
field sum 48756147991.324
field sqrsum 4.8222635977131e+18
bin	-inf	0
bin	85000000	0
bin	85200000	0
bin	85400000	0
bin	85600000	0
bin	85800000	0
bin	86000000	0
bin	86200000	0
bin	86400000	0
bin	86600000	0
bin	86800000	0
bin	87000000	0
bin	87200000	0
bin	87400000	0
bin	87600000	0
bin	87800000	1
bin	88000000	0
bin	88200000	0
bin	88400000	0
bin	88600000	0
bin	88800000	0
bin	89000000	0
bin	89200000	0
bin	89400000	0
bin	89600000	0
bin	89800000	0
bin	90000000	0
bin	90200000	0
bin	90400000	0
bin	90600000	0
bin	90800000	0
bin	91000000	0
bin	91200000	0
bin	91400000	0
bin	91600000	1
bin	91800000	1
bin	92000000	0
bin	92200000	1
bin	92400000	0
bin	92600000	0
bin	92800000	0
bin	93000000	0
bin	93200000	1
bin	93400000	0
bin	93600000	0
bin	93800000	0
bin	94000000	1
bin	94200000	1
bin	94400000	1
bin	94600000	1
bin	94800000	1
bin	95000000	0
bin	95200000	0
bin	95400000	0
bin	95600000	0
bin	95800000	0
bin	96000000	0
bin	96200000	1
bin	96400000	2
bin	96600000	0
bin	96800000	1
bin	97000000	1
bin	97200000	0
bin	97400000	1
bin	97600000	0
bin	97800000	0
bin	98000000	1
bin	98200000	1
bin	98400000	1
bin	98600000	0
bin	98800000	0
bin	99000000	474
bin	99200000	0
bin	99400000	0
bin	99600000	0
bin	99800000	0
bin	100000000	0
bin	100200000	0
bin	100400000	0
bin	100600000	0
bin	100800000	0
bin	101000000	0
bin	101200000	0
bin	101400000	0
bin	101600000	0
bin	101800000	0
bin	102000000	0
statistic QueueingTimeMeasurementShowcase.source.eth[0].mac utilization:histogram
field count 493
field mean 98.898388220181
field stddev 0.95015699192262
field min 87.892695793716
field max 99.052132701422
field sum 48756.905392549
field sqrsum 4822423.5346951
bin	-inf	0
bin	85	0
bin	85.2	0
bin	85.4	0
bin	85.6	0
bin	85.8	0
bin	86	0
bin	86.2	0
bin	86.4	0
bin	86.6	0
bin	86.8	0
bin	87	0
bin	87.2	0
bin	87.4	0
bin	87.6	0
bin	87.8	1
bin	88	0
bin	88.2	0
bin	88.4	0
bin	88.6	0
bin	88.8	0
bin	89	0
bin	89.2	0
bin	89.4	0
bin	89.6	0
bin	89.8	0
bin	90	0
bin	90.2	0
bin	90.4	0
bin	90.6	0
bin	90.8	0
bin	91	0
bin	91.2	0
bin	91.4	0
bin	91.6	1
bin	91.8	1
bin	92	0
bin	92.2	1
bin	92.4	0
bin	92.6	0
bin	92.8	0
bin	93	0
bin	93.2	1
bin	93.4	0
bin	93.6	0
bin	93.8	0
bin	94	1
bin	94.2	1
bin	94.4	2
bin	94.6	1
bin	94.8	1
bin	95	0
bin	95.2	0
bin	95.4	0
bin	95.6	0
bin	95.8	0
bin	96	0
bin	96.2	1
bin	96.4	1
bin	96.6	0
bin	96.8	0
bin	97	1
bin	97.2	0
bin	97.4	1
bin	97.6	0
bin	97.8	0
bin	98	1
bin	98.2	0
bin	98.4	1
bin	98.6	0
bin	98.8	0
bin	99	476
bin	99.2	0
bin	99.4	0
bin	99.6	0
bin	99.8	0
bin	100	0
bin	100.2	0
bin	100.4	0
bin	100.6	0
bin	100.8	0
bin	101	0
bin	101.2	0
bin	101.4	0
bin	101.6	0
bin	101.8	0
bin	102	0
statistic QueueingTimeMeasurementShowcase.source.app[0].source packetLengths:histogram
field count 50192
field mean 9600
field stddev 0
field min 9600
field max 9600
field sum 481843200
field sqrsum 4625694720000
bin	-inf	0
bin	9599	0
bin	9600	50192
bin	9601	0
statistic QueueingTimeMeasurementShowcase.destination.eth[0].queue queueingTime:histogram
field count 0
field mean -nan
field stddev nan
field min nan
field max nan
field sum 0
field sqrsum 0
bin	-inf	0
bin	0	0
bin	1	0
statistic QueueingTimeMeasurementShowcase.destination.eth[0].queue outgoingPacketLengths:histogram
field count 0
field mean -nan
field stddev nan
field min nan
field max nan
field sum 0
field sqrsum 0
bin	-inf	0
bin	0	0
bin	1	0
statistic QueueingTimeMeasurementShowcase.destination.eth[0].queue flowQueueingTime:histogram
field count 0
field mean -nan
field stddev nan
field min nan
field max nan
field sum 0
field sqrsum 0
bin	-inf	0
bin	0	0
bin	1	0
statistic QueueingTimeMeasurementShowcase.destination.eth[0].queue incomingPacketLengths:histogram
field count 0
field mean -nan
field stddev nan
field min nan
field max nan
field sum 0
field sqrsum 0
bin	-inf	0
bin	0	0
bin	1	0
statistic QueueingTimeMeasurementShowcase.destination.eth[0].mac throughput:histogram
field count 50
field mean 0
field stddev 0
field min 0
field max 0
field sum 0
field sqrsum 0
bin	-inf	0
bin	-0.5	0
bin	-0.48	0
bin	-0.46	0
bin	-0.44	0
bin	-0.42	0
bin	-0.4	0
bin	-0.38	0
bin	-0.36	0
bin	-0.34	0
bin	-0.32	0
bin	-0.3	0
bin	-0.28	0
bin	-0.26	0
bin	-0.24	0
bin	-0.22	0
bin	-0.2	0
bin	-0.18	0
bin	-0.16	0
bin	-0.14	0
bin	-0.12	0
bin	-0.1	0
bin	-0.08	0
bin	-0.06	0
bin	-0.04	0
bin	-0.02	0
bin	0	50
bin	0.02	0
bin	0.04	0
bin	0.06	0
bin	0.08	0
bin	0.1	0
bin	0.12	0
bin	0.14	0
bin	0.16	0
bin	0.18	0
bin	0.2	0
bin	0.22	0
bin	0.24	0
bin	0.26	0
bin	0.28	0
bin	0.3	0
bin	0.32	0
bin	0.34	0
bin	0.36	0
bin	0.38	0
bin	0.4	0
bin	0.42	0
bin	0.44	0
bin	0.46	0
bin	0.48	0
bin	0.5	0
statistic QueueingTimeMeasurementShowcase.destination.eth[0].mac utilization:histogram
field count 50
field mean 0
field stddev 0
field min 0
field max 0
field sum 0
field sqrsum 0
bin	-inf	0
bin	-0.5	0
bin	-0.48	0
bin	-0.46	0
bin	-0.44	0
bin	-0.42	0
bin	-0.4	0
bin	-0.38	0
bin	-0.36	0
bin	-0.34	0
bin	-0.32	0
bin	-0.3	0
bin	-0.28	0
bin	-0.26	0
bin	-0.24	0
bin	-0.22	0
bin	-0.2	0
bin	-0.18	0
bin	-0.16	0
bin	-0.14	0
bin	-0.12	0
bin	-0.1	0
bin	-0.08	0
bin	-0.06	0
bin	-0.04	0
bin	-0.02	0
bin	0	50
bin	0.02	0
bin	0.04	0
bin	0.06	0
bin	0.08	0
bin	0.1	0
bin	0.12	0
bin	0.14	0
bin	0.16	0
bin	0.18	0
bin	0.2	0
bin	0.22	0
bin	0.24	0
bin	0.26	0
bin	0.28	0
bin	0.3	0
bin	0.32	0
bin	0.34	0
bin	0.36	0
bin	0.38	0
bin	0.4	0
bin	0.42	0
bin	0.44	0
bin	0.46	0
bin	0.48	0
bin	0.5	0
statistic QueueingTimeMeasurementShowcase.destination.app[0].sink packetLengths:histogram
field count 49286
field mean 9600
field stddev 0
field min 9600
field max 9600
field sum 473145600
field sqrsum 4542197760000
bin	-inf	0
bin	9599	0
bin	9600	49286
bin	9601	0
statistic QueueingTimeMeasurementShowcase.destination.app[0].sink meanBitLifeTimePerPacket:histogram
field count 49286
field mean 0.051175128874944
field stddev 0.03236503827191
field min 0.00010037
field max 0.093688501263
field sum 2522.2174017305
field sqrsum 180.70062627412
bin	-inf	0
bin	0	2751
bin	0.00128	2742
bin	0.00256	1665
bin	0.00384	499
bin	0.00512	176
bin	0.0064	110
bin	0.00768	283
bin	0.00896	390
bin	0.01024	336
bin	0.01152	601
bin	0.0128	1139
bin	0.01408	773
bin	0.01536	562
bin	0.01664	442
bin	0.01792	316
bin	0.0192	247
bin	0.02048	76
bin	0.02176	90
bin	0.02304	153
bin	0.02432	284
bin	0.0256	1410
bin	0.02688	959
bin	0.02816	488
bin	0.02944	210
bin	0.03072	278
bin	0.032	56
bin	0.03328	136
bin	0.03456	365
bin	0.03584	82
bin	0.03712	152
bin	0.0384	102
bin	0.03968	288
bin	0.04096	191
bin	0.04224	451
bin	0.04352	508
bin	0.0448	686
bin	0.04608	393
bin	0.04736	458
bin	0.04864	529
bin	0.04992	704
bin	0.0512	1260
bin	0.05248	1225
bin	0.05376	836
bin	0.05504	562
bin	0.05632	386
bin	0.0576	73
bin	0.05888	230
bin	0.06016	326
bin	0.06144	100
bin	0.06272	156
bin	0.064	216
bin	0.06528	410
bin	0.06656	630
bin	0.06784	300
bin	0.06912	69
bin	0.0704	50
bin	0.07168	69
bin	0.07296	542
bin	0.07424	810
bin	0.07552	1446
bin	0.0768	1202
bin	0.07808	1207
bin	0.07936	621
bin	0.08064	1096
bin	0.08192	1558
bin	0.0832	694
bin	0.08448	2106
bin	0.08576	2293
bin	0.08704	2715
bin	0.08832	2121
bin	0.0896	840
bin	0.09088	753
bin	0.09216	286
bin	0.09344	17
bin	0.09472	0
statistic QueueingTimeMeasurementShowcase.destination.app[0].sink packetLifeTime:histogram
field count 49286
field mean 0.051175128874944
field stddev 0.03236503827191
field min 0.00010037
field max 0.093688501263
field sum 2522.2174017305
field sqrsum 180.70062627412
bin	-inf	0
bin	0	2751
bin	0.00128	2742
bin	0.00256	1665
bin	0.00384	499
bin	0.00512	176
bin	0.0064	110
bin	0.00768	283
bin	0.00896	390
bin	0.01024	336
bin	0.01152	601
bin	0.0128	1139
bin	0.01408	773
bin	0.01536	562
bin	0.01664	442
bin	0.01792	316
bin	0.0192	247
bin	0.02048	76
bin	0.02176	90
bin	0.02304	153
bin	0.02432	284
bin	0.0256	1410
bin	0.02688	959
bin	0.02816	488
bin	0.02944	210
bin	0.03072	278
bin	0.032	56
bin	0.03328	136
bin	0.03456	365
bin	0.03584	82
bin	0.03712	152
bin	0.0384	102
bin	0.03968	288
bin	0.04096	191
bin	0.04224	451
bin	0.04352	508
bin	0.0448	686
bin	0.04608	393
bin	0.04736	458
bin	0.04864	529
bin	0.04992	704
bin	0.0512	1260
bin	0.05248	1225
bin	0.05376	836
bin	0.05504	562
bin	0.05632	386
bin	0.0576	73
bin	0.05888	230
bin	0.06016	326
bin	0.06144	100
bin	0.06272	156
bin	0.064	216
bin	0.06528	410
bin	0.06656	630
bin	0.06784	300
bin	0.06912	69
bin	0.0704	50
bin	0.07168	69
bin	0.07296	542
bin	0.07424	810
bin	0.07552	1446
bin	0.0768	1202
bin	0.07808	1207
bin	0.07936	621
bin	0.08064	1096
bin	0.08192	1558
bin	0.0832	694
bin	0.08448	2106
bin	0.08576	2293
bin	0.08704	2715
bin	0.08832	2121
bin	0.0896	840
bin	0.09088	753
bin	0.09216	286
bin	0.09344	17
bin	0.09472	0
statistic QueueingTimeMeasurementShowcase.destination.app[0].sink packetJitter:histogram
field count 49286
field mean 1.8279273907601e-06
field stddev 9.920497155116e-05
field min -0.000970952498
field max 0.00010127959900001
field sum 0.090091229381
field sqrsum 0.00048520923638714
bin	-inf	0
bin	-0.00098	1
bin	-0.00096	1
bin	-0.00094	1
bin	-0.00092	2
bin	-0.0009	0
bin	-0.00088	0
bin	-0.00086	2
bin	-0.00084	0
bin	-0.00082	3
bin	-0.0008	1
bin	-0.00078	1
bin	-0.00076	6
bin	-0.00074	0
bin	-0.00072	3
bin	-0.0007	3
bin	-0.00068	3
bin	-0.00066	8
bin	-0.00064	4
bin	-0.00062	6
bin	-0.0006	4
bin	-0.00058	14
bin	-0.00056	7
bin	-0.00054	22
bin	-0.00052	19
bin	-0.0005	23
bin	-0.00048	28
bin	-0.00046	35
bin	-0.00044	37
bin	-0.00042	49
bin	-0.0004	77
bin	-0.00038	86
bin	-0.00036	100
bin	-0.00034	123
bin	-0.00032	171
bin	-0.0003	207
bin	-0.00028	229
bin	-0.00026	279
bin	-0.00024	384
bin	-0.00022	451
bin	-0.0002	512
bin	-0.00018	641
bin	-0.00016	845
bin	-0.00014	970
bin	-0.00012	1220
bin	-0.0001	1474
bin	-8e-05	1736
bin	-6e-05	2224
bin	-4e-05	2591
bin	-2e-05	3160
bin	0	4034
bin	2e-05	4824
bin	4e-05	5911
bin	6e-05	7190
bin	8e-05	8902
bin	0.0001	662
bin	0.00012	0
bin	0.00014	0
bin	0.00016	0
bin	0.00018	0
statistic QueueingTimeMeasurementShowcase.destination.app[0].sink packetDelayDifferenceToMean:histogram
field count 49286
field mean -0.027732117123315
field stddev 0.016684590678024
field min -0.051453743145419
field max 0.0017532237598341
field sum -1366.8051245397
field sqrsum 51.624139573386
bin	-inf	0
bin	-0.05204	2
bin	-0.0514	182
bin	-0.05076	533
bin	-0.05012	818
bin	-0.04948	1470
bin	-0.04884	1956
bin	-0.0482	1236
bin	-0.04756	845
bin	-0.04692	809
bin	-0.04628	684
bin	-0.04564	909
bin	-0.045	867
bin	-0.04436	617
bin	-0.04372	465
bin	-0.04308	574
bin	-0.04244	608
bin	-0.0418	635
bin	-0.04116	1093
bin	-0.04052	754
bin	-0.03988	745
bin	-0.03924	557
bin	-0.0386	297
bin	-0.03796	354
bin	-0.03732	528
bin	-0.03668	337
bin	-0.03604	381
bin	-0.0354	508
bin	-0.03476	805
bin	-0.03412	749
bin	-0.03348	546
bin	-0.03284	1371
bin	-0.0322	1902
bin	-0.03156	1820
bin	-0.03092	1039
bin	-0.03028	1188
bin	-0.02964	1134
bin	-0.029	756
bin	-0.02836	773
bin	-0.02772	486
bin	-0.02708	152
bin	-0.02644	32
bin	-0.0258	117
bin	-0.02516	63
bin	-0.02452	86
bin	-0.02388	184
bin	-0.02324	132
bin	-0.0226	145
bin	-0.02196	16
bin	-0.02132	41
bin	-0.02068	181
bin	-0.02004	363
bin	-0.0194	347
bin	-0.01876	714
bin	-0.01812	980
bin	-0.01748	848
bin	-0.01684	313
bin	-0.0162	112
bin	-0.01556	142
bin	-0.01492	93
bin	-0.01428	198
bin	-0.01364	349
bin	-0.013	196
bin	-0.01236	127
bin	-0.01172	260
bin	-0.01108	449
bin	-0.01044	434
bin	-0.0098	305
bin	-0.00916	329
bin	-0.00852	629
bin	-0.00788	605
bin	-0.00724	453
bin	-0.0066	334
bin	-0.00596	285
bin	-0.00532	82
bin	-0.00468	57
bin	-0.00404	106
bin	-0.0034	97
bin	-0.00276	431
bin	-0.00212	915
bin	-0.00148	1005
bin	-0.00084	1469
bin	-0.0002	1702
bin	0.00044	1217
bin	0.00108	851
bin	0.00172	7
bin	0.00236	0
statistic QueueingTimeMeasurementShowcase.destination.app[0].sink packetDelayVariation:histogram
field count 49286
field mean 0.017620226685996
field stddev 0.011582998730772
field min 0
field max 0.032364711134981
field sum 868.430492446
field sqrsum 21.914306528171
bin	-inf	0
bin	0	747
bin	0.00064	7096
bin	0.00128	479
bin	0.00192	461
bin	0.00256	381
bin	0.0032	367
bin	0.00384	261
bin	0.00448	403
bin	0.00512	1914
bin	0.00576	1089
bin	0.0064	400
bin	0.00704	483
bin	0.00768	525
bin	0.00832	753
bin	0.00896	832
bin	0.0096	793
bin	0.01024	563
bin	0.01088	462
bin	0.01152	408
bin	0.01216	438
bin	0.0128	438
bin	0.01344	469
bin	0.01408	546
bin	0.01472	531
bin	0.01536	565
bin	0.016	507
bin	0.01664	524
bin	0.01728	723
bin	0.01792	875
bin	0.01856	1126
bin	0.0192	1055
bin	0.01984	857
bin	0.02048	679
bin	0.02112	657
bin	0.02176	664
bin	0.0224	488
bin	0.02304	520
bin	0.02368	653
bin	0.02432	697
bin	0.02496	609
bin	0.0256	632
bin	0.02624	644
bin	0.02688	720
bin	0.02752	757
bin	0.02816	838
bin	0.0288	838
bin	0.02944	958
bin	0.03008	1178
bin	0.03072	1523
bin	0.03136	7314
bin	0.032	1846
bin	0.03264	0
statistic QueueingTimeMeasurementShowcase.destination.app[0].sink droppedPacketLengths:histogram
field count 49286
field mean 9600
field stddev 0
field min 9600
field max 9600
field sum 473145600
field sqrsum 4542197760000
bin	-inf	0
bin	9599	0
bin	9600	49286
bin	9601	0
scalar QueueingTimeMeasurementShowcase.source.ethernet encapPk:vector(packetBytes):count 50192
scalar QueueingTimeMeasurementShowcase.source.ethernet encapPk:vector(packetBytes):sum 61635776
scalar QueueingTimeMeasurementShowcase.source.ethernet encapPk:vector(packetBytes):sumweights 50192
scalar QueueingTimeMeasurementShowcase.source.ethernet encapPk:vector(packetBytes):mean 1228
scalar QueueingTimeMeasurementShowcase.source.ethernet encapPk:vector(packetBytes):stddev 0
scalar QueueingTimeMeasurementShowcase.source.ethernet encapPk:vector(packetBytes):min 1228
scalar QueueingTimeMeasurementShowcase.source.ethernet encapPk:vector(packetBytes):max 1228
scalar QueueingTimeMeasurementShowcase.source.ethernet encapPk:vector(packetBytes):starttime 0
scalar QueueingTimeMeasurementShowcase.source.ethernet encapPk:vector(packetBytes):endtime 4.999963270608
scalar QueueingTimeMeasurementShowcase.source.ethernet decapPk:vector(packetBytes):count 0
scalar QueueingTimeMeasurementShowcase.source.ethernet decapPk:vector(packetBytes):sum 0
scalar QueueingTimeMeasurementShowcase.source.ethernet decapPk:vector(packetBytes):sumweights 0
scalar QueueingTimeMeasurementShowcase.source.ethernet decapPk:vector(packetBytes):mean -nan
scalar QueueingTimeMeasurementShowcase.source.ethernet decapPk:vector(packetBytes):stddev nan
scalar QueueingTimeMeasurementShowcase.source.ethernet decapPk:vector(packetBytes):min inf
scalar QueueingTimeMeasurementShowcase.source.ethernet decapPk:vector(packetBytes):max -inf
scalar QueueingTimeMeasurementShowcase.source.ethernet decapPk:vector(packetBytes):starttime nan
scalar QueueingTimeMeasurementShowcase.source.ethernet decapPk:vector(packetBytes):endtime nan
scalar QueueingTimeMeasurementShowcase.source.ethernet pauseSent:vector:count 0
scalar QueueingTimeMeasurementShowcase.source.ethernet pauseSent:vector:sum 0
scalar QueueingTimeMeasurementShowcase.source.ethernet pauseSent:vector:sumweights 0
scalar QueueingTimeMeasurementShowcase.source.ethernet pauseSent:vector:mean -nan
scalar QueueingTimeMeasurementShowcase.source.ethernet pauseSent:vector:stddev nan
scalar QueueingTimeMeasurementShowcase.source.ethernet pauseSent:vector:min inf
scalar QueueingTimeMeasurementShowcase.source.ethernet pauseSent:vector:max -inf
scalar QueueingTimeMeasurementShowcase.source.ethernet pauseSent:vector:starttime nan
scalar QueueingTimeMeasurementShowcase.source.ethernet pauseSent:vector:endtime nan
scalar QueueingTimeMeasurementShowcase.source.lo[0].lo rcvdPkFromHl:vector(packetBytes):count 0
scalar QueueingTimeMeasurementShowcase.source.lo[0].lo rcvdPkFromHl:vector(packetBytes):sum 0
scalar QueueingTimeMeasurementShowcase.source.lo[0].lo rcvdPkFromHl:vector(packetBytes):sumweights 0
scalar QueueingTimeMeasurementShowcase.source.lo[0].lo rcvdPkFromHl:vector(packetBytes):mean -nan
scalar QueueingTimeMeasurementShowcase.source.lo[0].lo rcvdPkFromHl:vector(packetBytes):stddev nan
scalar QueueingTimeMeasurementShowcase.source.lo[0].lo rcvdPkFromHl:vector(packetBytes):min inf
scalar QueueingTimeMeasurementShowcase.source.lo[0].lo rcvdPkFromHl:vector(packetBytes):max -inf
scalar QueueingTimeMeasurementShowcase.source.lo[0].lo rcvdPkFromHl:vector(packetBytes):starttime nan
scalar QueueingTimeMeasurementShowcase.source.lo[0].lo rcvdPkFromHl:vector(packetBytes):endtime nan
scalar QueueingTimeMeasurementShowcase.source.lo[0].lo passedUpPk:vector(packetBytes):count 0
scalar QueueingTimeMeasurementShowcase.source.lo[0].lo passedUpPk:vector(packetBytes):sum 0
scalar QueueingTimeMeasurementShowcase.source.lo[0].lo passedUpPk:vector(packetBytes):sumweights 0
scalar QueueingTimeMeasurementShowcase.source.lo[0].lo passedUpPk:vector(packetBytes):mean -nan
scalar QueueingTimeMeasurementShowcase.source.lo[0].lo passedUpPk:vector(packetBytes):stddev nan
scalar QueueingTimeMeasurementShowcase.source.lo[0].lo passedUpPk:vector(packetBytes):min inf
scalar QueueingTimeMeasurementShowcase.source.lo[0].lo passedUpPk:vector(packetBytes):max -inf
scalar QueueingTimeMeasurementShowcase.source.lo[0].lo passedUpPk:vector(packetBytes):starttime nan
scalar QueueingTimeMeasurementShowcase.source.lo[0].lo passedUpPk:vector(packetBytes):endtime nan
scalar QueueingTimeMeasurementShowcase.source.lo[0] packetDropInterfaceDown:vector(packetBytes):count 0
scalar QueueingTimeMeasurementShowcase.source.lo[0] packetDropInterfaceDown:vector(packetBytes):sum 0
scalar QueueingTimeMeasurementShowcase.source.lo[0] packetDropInterfaceDown:vector(packetBytes):sumweights 0
scalar QueueingTimeMeasurementShowcase.source.lo[0] packetDropInterfaceDown:vector(packetBytes):mean -nan
scalar QueueingTimeMeasurementShowcase.source.lo[0] packetDropInterfaceDown:vector(packetBytes):stddev nan
scalar QueueingTimeMeasurementShowcase.source.lo[0] packetDropInterfaceDown:vector(packetBytes):min inf
scalar QueueingTimeMeasurementShowcase.source.lo[0] packetDropInterfaceDown:vector(packetBytes):max -inf
scalar QueueingTimeMeasurementShowcase.source.lo[0] packetDropInterfaceDown:vector(packetBytes):starttime nan
scalar QueueingTimeMeasurementShowcase.source.lo[0] packetDropInterfaceDown:vector(packetBytes):endtime nan
scalar QueueingTimeMeasurementShowcase.source.lo[0] packetDropNoCarrier:vector(packetBytes):count 0
scalar QueueingTimeMeasurementShowcase.source.lo[0] packetDropNoCarrier:vector(packetBytes):sum 0
scalar QueueingTimeMeasurementShowcase.source.lo[0] packetDropNoCarrier:vector(packetBytes):sumweights 0
scalar QueueingTimeMeasurementShowcase.source.lo[0] packetDropNoCarrier:vector(packetBytes):mean -nan
scalar QueueingTimeMeasurementShowcase.source.lo[0] packetDropNoCarrier:vector(packetBytes):stddev nan
scalar QueueingTimeMeasurementShowcase.source.lo[0] packetDropNoCarrier:vector(packetBytes):min inf
scalar QueueingTimeMeasurementShowcase.source.lo[0] packetDropNoCarrier:vector(packetBytes):max -inf
scalar QueueingTimeMeasurementShowcase.source.lo[0] packetDropNoCarrier:vector(packetBytes):starttime nan
scalar QueueingTimeMeasurementShowcase.source.lo[0] packetDropNoCarrier:vector(packetBytes):endtime nan
scalar QueueingTimeMeasurementShowcase.source.eth[0].queue queueLength:vector:count 99397
scalar QueueingTimeMeasurementShowcase.source.eth[0].queue queueLength:vector:sum 50924147
scalar QueueingTimeMeasurementShowcase.source.eth[0].queue queueLength:vector:sumweights 99397
scalar QueueingTimeMeasurementShowcase.source.eth[0].queue queueLength:vector:mean 512.33082487399
scalar QueueingTimeMeasurementShowcase.source.eth[0].queue queueLength:vector:stddev 321.17159487213
scalar QueueingTimeMeasurementShowcase.source.eth[0].queue queueLength:vector:min 0
scalar QueueingTimeMeasurementShowcase.source.eth[0].queue queueLength:vector:max 925
scalar QueueingTimeMeasurementShowcase.source.eth[0].queue queueLength:vector:starttime 0
scalar QueueingTimeMeasurementShowcase.source.eth[0].queue queueLength:vector:endtime 4.999963270608
scalar QueueingTimeMeasurementShowcase.source.eth[0].queue queueBitLength:vector:count 99397
scalar QueueingTimeMeasurementShowcase.source.eth[0].queue queueBitLength:vector:sum 507611897296
scalar QueueingTimeMeasurementShowcase.source.eth[0].queue queueBitLength:vector:sumweights 99397
scalar QueueingTimeMeasurementShowcase.source.eth[0].queue queueBitLength:vector:mean 5106913.6623439
scalar QueueingTimeMeasurementShowcase.source.eth[0].queue queueBitLength:vector:stddev 3201438.4576853
scalar QueueingTimeMeasurementShowcase.source.eth[0].queue queueBitLength:vector:min 0
scalar QueueingTimeMeasurementShowcase.source.eth[0].queue queueBitLength:vector:max 9220400
scalar QueueingTimeMeasurementShowcase.source.eth[0].queue queueBitLength:vector:starttime 0
scalar QueueingTimeMeasurementShowcase.source.eth[0].queue queueBitLength:vector:endtime 4.999963270608
scalar QueueingTimeMeasurementShowcase.source.eth[0].queue queueingTime:vector:count 49287
scalar QueueingTimeMeasurementShowcase.source.eth[0].queue queueingTime:vector:sum 2517.360504285
scalar QueueingTimeMeasurementShowcase.source.eth[0].queue queueingTime:vector:sumweights 49287
scalar QueueingTimeMeasurementShowcase.source.eth[0].queue queueingTime:vector:mean 0.051075547391504
scalar QueueingTimeMeasurementShowcase.source.eth[0].queue queueingTime:vector:stddev 0.032365183353941
scalar QueueingTimeMeasurementShowcase.source.eth[0].queue queueingTime:vector:min 0
scalar QueueingTimeMeasurementShowcase.source.eth[0].queue queueingTime:vector:max 0.093588131263
scalar QueueingTimeMeasurementShowcase.source.eth[0].queue queueingTime:vector:starttime 0
scalar QueueingTimeMeasurementShowcase.source.eth[0].queue queueingTime:vector:endtime 4.999936501761
scalar QueueingTimeMeasurementShowcase.source.eth[0].queue incomingPacketLengths:vector:count 50192
scalar QueueingTimeMeasurementShowcase.source.eth[0].queue incomingPacketLengths:vector:sum 500313856
scalar QueueingTimeMeasurementShowcase.source.eth[0].queue incomingPacketLengths:vector:sumweights 50192
scalar QueueingTimeMeasurementShowcase.source.eth[0].queue incomingPacketLengths:vector:mean 9968
scalar QueueingTimeMeasurementShowcase.source.eth[0].queue incomingPacketLengths:vector:stddev 0
scalar QueueingTimeMeasurementShowcase.source.eth[0].queue incomingPacketLengths:vector:min 9968
scalar QueueingTimeMeasurementShowcase.source.eth[0].queue incomingPacketLengths:vector:max 9968
scalar QueueingTimeMeasurementShowcase.source.eth[0].queue incomingPacketLengths:vector:starttime 0
scalar QueueingTimeMeasurementShowcase.source.eth[0].queue incomingPacketLengths:vector:endtime 4.999963270608
scalar QueueingTimeMeasurementShowcase.source.eth[0].queue incomingDataRate:vector:count 502
scalar QueueingTimeMeasurementShowcase.source.eth[0].queue incomingDataRate:vector:sum 50730587626.766
scalar QueueingTimeMeasurementShowcase.source.eth[0].queue incomingDataRate:vector:sumweights 502
scalar QueueingTimeMeasurementShowcase.source.eth[0].queue incomingDataRate:vector:mean 101056947.46368
scalar QueueingTimeMeasurementShowcase.source.eth[0].queue incomingDataRate:vector:stddev 10157866.98432
scalar QueueingTimeMeasurementShowcase.source.eth[0].queue incomingDataRate:vector:min 78592586.646736
scalar QueueingTimeMeasurementShowcase.source.eth[0].queue incomingDataRate:vector:max 138571743.95441
scalar QueueingTimeMeasurementShowcase.source.eth[0].queue incomingDataRate:vector:starttime 0.009971887076
scalar QueueingTimeMeasurementShowcase.source.eth[0].queue incomingDataRate:vector:endtime 5
scalar QueueingTimeMeasurementShowcase.source.eth[0].queue outgoingPacketLengths:vector:count 49287
scalar QueueingTimeMeasurementShowcase.source.eth[0].queue outgoingPacketLengths:vector:sum 491292816
scalar QueueingTimeMeasurementShowcase.source.eth[0].queue outgoingPacketLengths:vector:sumweights 49287
scalar QueueingTimeMeasurementShowcase.source.eth[0].queue outgoingPacketLengths:vector:mean 9968
scalar QueueingTimeMeasurementShowcase.source.eth[0].queue outgoingPacketLengths:vector:stddev 0
scalar QueueingTimeMeasurementShowcase.source.eth[0].queue outgoingPacketLengths:vector:min 9968
scalar QueueingTimeMeasurementShowcase.source.eth[0].queue outgoingPacketLengths:vector:max 9968
scalar QueueingTimeMeasurementShowcase.source.eth[0].queue outgoingPacketLengths:vector:starttime 0
scalar QueueingTimeMeasurementShowcase.source.eth[0].queue outgoingPacketLengths:vector:endtime 4.999936501761
scalar QueueingTimeMeasurementShowcase.source.eth[0].queue outgoingDataRate:vector:count 493
scalar QueueingTimeMeasurementShowcase.source.eth[0].queue outgoingDataRate:vector:sum 48445966828.777
scalar QueueingTimeMeasurementShowcase.source.eth[0].queue outgoingDataRate:vector:sumweights 493
scalar QueueingTimeMeasurementShowcase.source.eth[0].queue outgoingDataRate:vector:mean 98267681.194274
scalar QueueingTimeMeasurementShowcase.source.eth[0].queue outgoingDataRate:vector:stddev 920871.41119148
scalar QueueingTimeMeasurementShowcase.source.eth[0].queue outgoingDataRate:vector:min 87331976.841284
scalar QueueingTimeMeasurementShowcase.source.eth[0].queue outgoingDataRate:vector:max 98420221.169036
scalar QueueingTimeMeasurementShowcase.source.eth[0].queue outgoingDataRate:vector:starttime 0.010834747836
scalar QueueingTimeMeasurementShowcase.source.eth[0].queue outgoingDataRate:vector:endtime 5
scalar QueueingTimeMeasurementShowcase.source.eth[0].queue droppedPacketLengthsQueueOverflow:vector:count 0
scalar QueueingTimeMeasurementShowcase.source.eth[0].queue droppedPacketLengthsQueueOverflow:vector:sum 0
scalar QueueingTimeMeasurementShowcase.source.eth[0].queue droppedPacketLengthsQueueOverflow:vector:sumweights 0
scalar QueueingTimeMeasurementShowcase.source.eth[0].queue droppedPacketLengthsQueueOverflow:vector:mean -nan
scalar QueueingTimeMeasurementShowcase.source.eth[0].queue droppedPacketLengthsQueueOverflow:vector:stddev nan
scalar QueueingTimeMeasurementShowcase.source.eth[0].queue droppedPacketLengthsQueueOverflow:vector:min inf
scalar QueueingTimeMeasurementShowcase.source.eth[0].queue droppedPacketLengthsQueueOverflow:vector:max -inf
scalar QueueingTimeMeasurementShowcase.source.eth[0].queue droppedPacketLengthsQueueOverflow:vector:starttime nan
scalar QueueingTimeMeasurementShowcase.source.eth[0].queue droppedPacketLengthsQueueOverflow:vector:endtime nan
scalar QueueingTimeMeasurementShowcase.source.eth[0].queue flowQueueingTime:vector:count 0
scalar QueueingTimeMeasurementShowcase.source.eth[0].queue flowQueueingTime:vector:sum 0
scalar QueueingTimeMeasurementShowcase.source.eth[0].queue flowQueueingTime:vector:sumweights 0
scalar QueueingTimeMeasurementShowcase.source.eth[0].queue flowQueueingTime:vector:mean -nan
scalar QueueingTimeMeasurementShowcase.source.eth[0].queue flowQueueingTime:vector:stddev nan
scalar QueueingTimeMeasurementShowcase.source.eth[0].queue flowQueueingTime:vector:min inf
scalar QueueingTimeMeasurementShowcase.source.eth[0].queue flowQueueingTime:vector:max -inf
scalar QueueingTimeMeasurementShowcase.source.eth[0].queue flowQueueingTime:vector:starttime nan
scalar QueueingTimeMeasurementShowcase.source.eth[0].queue flowQueueingTime:vector:endtime nan
scalar QueueingTimeMeasurementShowcase.source.eth[0].queue flowIncomingDataRate:vector:count 50
scalar QueueingTimeMeasurementShowcase.source.eth[0].queue flowIncomingDataRate:vector:sum 0
scalar QueueingTimeMeasurementShowcase.source.eth[0].queue flowIncomingDataRate:vector:sumweights 50
scalar QueueingTimeMeasurementShowcase.source.eth[0].queue flowIncomingDataRate:vector:mean 0
scalar QueueingTimeMeasurementShowcase.source.eth[0].queue flowIncomingDataRate:vector:stddev 0
scalar QueueingTimeMeasurementShowcase.source.eth[0].queue flowIncomingDataRate:vector:min 0
scalar QueueingTimeMeasurementShowcase.source.eth[0].queue flowIncomingDataRate:vector:max 0
scalar QueueingTimeMeasurementShowcase.source.eth[0].queue flowIncomingDataRate:vector:starttime 0.1
scalar QueueingTimeMeasurementShowcase.source.eth[0].queue flowIncomingDataRate:vector:endtime 5
scalar QueueingTimeMeasurementShowcase.source.eth[0].queue flowOutgoingDataRate:vector:count 50
scalar QueueingTimeMeasurementShowcase.source.eth[0].queue flowOutgoingDataRate:vector:sum 0
scalar QueueingTimeMeasurementShowcase.source.eth[0].queue flowOutgoingDataRate:vector:sumweights 50
scalar QueueingTimeMeasurementShowcase.source.eth[0].queue flowOutgoingDataRate:vector:mean 0
scalar QueueingTimeMeasurementShowcase.source.eth[0].queue flowOutgoingDataRate:vector:stddev 0
scalar QueueingTimeMeasurementShowcase.source.eth[0].queue flowOutgoingDataRate:vector:min 0
scalar QueueingTimeMeasurementShowcase.source.eth[0].queue flowOutgoingDataRate:vector:max 0
scalar QueueingTimeMeasurementShowcase.source.eth[0].queue flowOutgoingDataRate:vector:starttime 0.1
scalar QueueingTimeMeasurementShowcase.source.eth[0].queue flowOutgoingDataRate:vector:endtime 5
scalar QueueingTimeMeasurementShowcase.source.eth[0].mac transmitting:vector:count 98575
scalar QueueingTimeMeasurementShowcase.source.eth[0].mac transmitting:vector:sum 49287
scalar QueueingTimeMeasurementShowcase.source.eth[0].mac transmitting:vector:sumweights 98575
scalar QueueingTimeMeasurementShowcase.source.eth[0].mac transmitting:vector:mean 0.49999492772001
scalar QueueingTimeMeasurementShowcase.source.eth[0].mac transmitting:vector:stddev 0.50000253613356
scalar QueueingTimeMeasurementShowcase.source.eth[0].mac transmitting:vector:min 0
scalar QueueingTimeMeasurementShowcase.source.eth[0].mac transmitting:vector:max 1
scalar QueueingTimeMeasurementShowcase.source.eth[0].mac transmitting:vector:starttime 0
scalar QueueingTimeMeasurementShowcase.source.eth[0].mac transmitting:vector:endtime 4.999936501761
scalar QueueingTimeMeasurementShowcase.source.eth[0].mac throughput:vector:count 493
scalar QueueingTimeMeasurementShowcase.source.eth[0].mac throughput:vector:sum 48756147991.323
scalar QueueingTimeMeasurementShowcase.source.eth[0].mac throughput:vector:sumweights 493
scalar QueueingTimeMeasurementShowcase.source.eth[0].mac throughput:vector:mean 98896851.909378
scalar QueueingTimeMeasurementShowcase.source.eth[0].mac throughput:vector:stddev 939263.4022527
scalar QueueingTimeMeasurementShowcase.source.eth[0].mac throughput:vector:min 87892695.793716
scalar QueueingTimeMeasurementShowcase.source.eth[0].mac throughput:vector:max 99052132.701422
scalar QueueingTimeMeasurementShowcase.source.eth[0].mac throughput:vector:starttime 0.010935067836
scalar QueueingTimeMeasurementShowcase.source.eth[0].mac throughput:vector:endtime 5
scalar QueueingTimeMeasurementShowcase.source.eth[0].mac utilization:vector:count 493
scalar QueueingTimeMeasurementShowcase.source.eth[0].mac utilization:vector:sum 48756.905392549
scalar QueueingTimeMeasurementShowcase.source.eth[0].mac utilization:vector:sumweights 493
scalar QueueingTimeMeasurementShowcase.source.eth[0].mac utilization:vector:mean 98.89838822018
scalar QueueingTimeMeasurementShowcase.source.eth[0].mac utilization:vector:stddev 0.95015699195549
scalar QueueingTimeMeasurementShowcase.source.eth[0].mac utilization:vector:min 87.892695793716
scalar QueueingTimeMeasurementShowcase.source.eth[0].mac utilization:vector:max 99.052132701422
scalar QueueingTimeMeasurementShowcase.source.eth[0].mac utilization:vector:starttime 0.010833787836
scalar QueueingTimeMeasurementShowcase.source.eth[0].mac utilization:vector:endtime 5
scalar QueueingTimeMeasurementShowcase.source.eth[0].mac txPk:vector(packetBytes):count 49286
scalar QueueingTimeMeasurementShowcase.source.eth[0].mac txPk:vector(packetBytes):sum 61410356
scalar QueueingTimeMeasurementShowcase.source.eth[0].mac txPk:vector(packetBytes):sumweights 49286
scalar QueueingTimeMeasurementShowcase.source.eth[0].mac txPk:vector(packetBytes):mean 1246
scalar QueueingTimeMeasurementShowcase.source.eth[0].mac txPk:vector(packetBytes):stddev 0
scalar QueueingTimeMeasurementShowcase.source.eth[0].mac txPk:vector(packetBytes):min 1246
scalar QueueingTimeMeasurementShowcase.source.eth[0].mac txPk:vector(packetBytes):max 1246
scalar QueueingTimeMeasurementShowcase.source.eth[0].mac txPk:vector(packetBytes):starttime 0.00010032
scalar QueueingTimeMeasurementShowcase.source.eth[0].mac txPk:vector(packetBytes):endtime 4.999935541761
scalar QueueingTimeMeasurementShowcase.source.eth[0].mac rxPkOk:vector(packetBytes):count 0
scalar QueueingTimeMeasurementShowcase.source.eth[0].mac rxPkOk:vector(packetBytes):sum 0
scalar QueueingTimeMeasurementShowcase.source.eth[0].mac rxPkOk:vector(packetBytes):sumweights 0
scalar QueueingTimeMeasurementShowcase.source.eth[0].mac rxPkOk:vector(packetBytes):mean -nan
scalar QueueingTimeMeasurementShowcase.source.eth[0].mac rxPkOk:vector(packetBytes):stddev nan
scalar QueueingTimeMeasurementShowcase.source.eth[0].mac rxPkOk:vector(packetBytes):min inf
scalar QueueingTimeMeasurementShowcase.source.eth[0].mac rxPkOk:vector(packetBytes):max -inf
scalar QueueingTimeMeasurementShowcase.source.eth[0].mac rxPkOk:vector(packetBytes):starttime nan
scalar QueueingTimeMeasurementShowcase.source.eth[0].mac rxPkOk:vector(packetBytes):endtime nan
scalar QueueingTimeMeasurementShowcase.source.eth[0].mac passedUpPk:vector(packetBytes):count 0
scalar QueueingTimeMeasurementShowcase.source.eth[0].mac passedUpPk:vector(packetBytes):sum 0
scalar QueueingTimeMeasurementShowcase.source.eth[0].mac passedUpPk:vector(packetBytes):sumweights 0
scalar QueueingTimeMeasurementShowcase.source.eth[0].mac passedUpPk:vector(packetBytes):mean -nan
scalar QueueingTimeMeasurementShowcase.source.eth[0].mac passedUpPk:vector(packetBytes):stddev nan
scalar QueueingTimeMeasurementShowcase.source.eth[0].mac passedUpPk:vector(packetBytes):min inf
scalar QueueingTimeMeasurementShowcase.source.eth[0].mac passedUpPk:vector(packetBytes):max -inf
scalar QueueingTimeMeasurementShowcase.source.eth[0].mac passedUpPk:vector(packetBytes):starttime nan
scalar QueueingTimeMeasurementShowcase.source.eth[0].mac passedUpPk:vector(packetBytes):endtime nan
scalar QueueingTimeMeasurementShowcase.source.eth[0].mac txPausePkUnits:vector:count 0
scalar QueueingTimeMeasurementShowcase.source.eth[0].mac txPausePkUnits:vector:sum 0
scalar QueueingTimeMeasurementShowcase.source.eth[0].mac txPausePkUnits:vector:sumweights 0
scalar QueueingTimeMeasurementShowcase.source.eth[0].mac txPausePkUnits:vector:mean -nan
scalar QueueingTimeMeasurementShowcase.source.eth[0].mac txPausePkUnits:vector:stddev nan
scalar QueueingTimeMeasurementShowcase.source.eth[0].mac txPausePkUnits:vector:min inf
scalar QueueingTimeMeasurementShowcase.source.eth[0].mac txPausePkUnits:vector:max -inf
scalar QueueingTimeMeasurementShowcase.source.eth[0].mac txPausePkUnits:vector:starttime nan
scalar QueueingTimeMeasurementShowcase.source.eth[0].mac txPausePkUnits:vector:endtime nan
scalar QueueingTimeMeasurementShowcase.source.eth[0].mac rxPausePkUnits:vector:count 0
scalar QueueingTimeMeasurementShowcase.source.eth[0].mac rxPausePkUnits:vector:sum 0
scalar QueueingTimeMeasurementShowcase.source.eth[0].mac rxPausePkUnits:vector:sumweights 0
scalar QueueingTimeMeasurementShowcase.source.eth[0].mac rxPausePkUnits:vector:mean -nan
scalar QueueingTimeMeasurementShowcase.source.eth[0].mac rxPausePkUnits:vector:stddev nan
scalar QueueingTimeMeasurementShowcase.source.eth[0].mac rxPausePkUnits:vector:min inf
scalar QueueingTimeMeasurementShowcase.source.eth[0].mac rxPausePkUnits:vector:max -inf
scalar QueueingTimeMeasurementShowcase.source.eth[0].mac rxPausePkUnits:vector:starttime nan
scalar QueueingTimeMeasurementShowcase.source.eth[0].mac rxPausePkUnits:vector:endtime nan
scalar QueueingTimeMeasurementShowcase.source.eth[0].mac packetReceivedFromUpper:vector(packetBytes):count 49287
scalar QueueingTimeMeasurementShowcase.source.eth[0].mac packetReceivedFromUpper:vector(packetBytes):sum 61411602
scalar QueueingTimeMeasurementShowcase.source.eth[0].mac packetReceivedFromUpper:vector(packetBytes):sumweights 49287
scalar QueueingTimeMeasurementShowcase.source.eth[0].mac packetReceivedFromUpper:vector(packetBytes):mean 1246
scalar QueueingTimeMeasurementShowcase.source.eth[0].mac packetReceivedFromUpper:vector(packetBytes):stddev 0
scalar QueueingTimeMeasurementShowcase.source.eth[0].mac packetReceivedFromUpper:vector(packetBytes):min 1246
scalar QueueingTimeMeasurementShowcase.source.eth[0].mac packetReceivedFromUpper:vector(packetBytes):max 1246
scalar QueueingTimeMeasurementShowcase.source.eth[0].mac packetReceivedFromUpper:vector(packetBytes):starttime 0
scalar QueueingTimeMeasurementShowcase.source.eth[0].mac packetReceivedFromUpper:vector(packetBytes):endtime 4.999936501761
scalar QueueingTimeMeasurementShowcase.source.eth[0].mac packetDropIncorrectlyReceived:vector(packetBytes):count 0
scalar QueueingTimeMeasurementShowcase.source.eth[0].mac packetDropIncorrectlyReceived:vector(packetBytes):sum 0
scalar QueueingTimeMeasurementShowcase.source.eth[0].mac packetDropIncorrectlyReceived:vector(packetBytes):sumweights 0
scalar QueueingTimeMeasurementShowcase.source.eth[0].mac packetDropIncorrectlyReceived:vector(packetBytes):mean -nan
scalar QueueingTimeMeasurementShowcase.source.eth[0].mac packetDropIncorrectlyReceived:vector(packetBytes):stddev nan
scalar QueueingTimeMeasurementShowcase.source.eth[0].mac packetDropIncorrectlyReceived:vector(packetBytes):min inf
scalar QueueingTimeMeasurementShowcase.source.eth[0].mac packetDropIncorrectlyReceived:vector(packetBytes):max -inf
scalar QueueingTimeMeasurementShowcase.source.eth[0].mac packetDropIncorrectlyReceived:vector(packetBytes):starttime nan
scalar QueueingTimeMeasurementShowcase.source.eth[0].mac packetDropIncorrectlyReceived:vector(packetBytes):endtime nan
scalar QueueingTimeMeasurementShowcase.source.eth[0].mac packetDropInterfaceDown:vector(packetBytes):count 0
scalar QueueingTimeMeasurementShowcase.source.eth[0].mac packetDropInterfaceDown:vector(packetBytes):sum 0
scalar QueueingTimeMeasurementShowcase.source.eth[0].mac packetDropInterfaceDown:vector(packetBytes):sumweights 0
scalar QueueingTimeMeasurementShowcase.source.eth[0].mac packetDropInterfaceDown:vector(packetBytes):mean -nan
scalar QueueingTimeMeasurementShowcase.source.eth[0].mac packetDropInterfaceDown:vector(packetBytes):stddev nan
scalar QueueingTimeMeasurementShowcase.source.eth[0].mac packetDropInterfaceDown:vector(packetBytes):min inf
scalar QueueingTimeMeasurementShowcase.source.eth[0].mac packetDropInterfaceDown:vector(packetBytes):max -inf
scalar QueueingTimeMeasurementShowcase.source.eth[0].mac packetDropInterfaceDown:vector(packetBytes):starttime nan
scalar QueueingTimeMeasurementShowcase.source.eth[0].mac packetDropInterfaceDown:vector(packetBytes):endtime nan
scalar QueueingTimeMeasurementShowcase.source.eth[0].mac packetDropNotAddressedToUs:vector(packetBytes):count 0
scalar QueueingTimeMeasurementShowcase.source.eth[0].mac packetDropNotAddressedToUs:vector(packetBytes):sum 0
scalar QueueingTimeMeasurementShowcase.source.eth[0].mac packetDropNotAddressedToUs:vector(packetBytes):sumweights 0
[...]
scalar QueueingTimeMeasurementShowcase.destination.ipv4.ip packetDropForwardingDisabled:vector(packetBytes):sum 0
scalar QueueingTimeMeasurementShowcase.destination.ipv4.ip packetDropForwardingDisabled:vector(packetBytes):sumweights 0
scalar QueueingTimeMeasurementShowcase.destination.ipv4.ip packetDropForwardingDisabled:vector(packetBytes):mean -nan
scalar QueueingTimeMeasurementShowcase.destination.ipv4.ip packetDropForwardingDisabled:vector(packetBytes):stddev nan
scalar QueueingTimeMeasurementShowcase.destination.ipv4.ip packetDropForwardingDisabled:vector(packetBytes):min inf
scalar QueueingTimeMeasurementShowcase.destination.ipv4.ip packetDropForwardingDisabled:vector(packetBytes):max -inf
scalar QueueingTimeMeasurementShowcase.destination.ipv4.ip packetDropForwardingDisabled:vector(packetBytes):starttime nan
scalar QueueingTimeMeasurementShowcase.destination.ipv4.ip packetDropForwardingDisabled:vector(packetBytes):endtime nan
scalar QueueingTimeMeasurementShowcase.destination.ipv4.ip packetDropLifetimeExpired:vector(packetBytes):count 0
scalar QueueingTimeMeasurementShowcase.destination.ipv4.ip packetDropLifetimeExpired:vector(packetBytes):sum 0
scalar QueueingTimeMeasurementShowcase.destination.ipv4.ip packetDropLifetimeExpired:vector(packetBytes):sumweights 0
scalar QueueingTimeMeasurementShowcase.destination.ipv4.ip packetDropLifetimeExpired:vector(packetBytes):mean -nan
scalar QueueingTimeMeasurementShowcase.destination.ipv4.ip packetDropLifetimeExpired:vector(packetBytes):stddev nan
scalar QueueingTimeMeasurementShowcase.destination.ipv4.ip packetDropLifetimeExpired:vector(packetBytes):min inf
scalar QueueingTimeMeasurementShowcase.destination.ipv4.ip packetDropLifetimeExpired:vector(packetBytes):max -inf
scalar QueueingTimeMeasurementShowcase.destination.ipv4.ip packetDropLifetimeExpired:vector(packetBytes):starttime nan
scalar QueueingTimeMeasurementShowcase.destination.ipv4.ip packetDropLifetimeExpired:vector(packetBytes):endtime nan
scalar QueueingTimeMeasurementShowcase.destination.ipv4.ip packetDropNoInterfaceFound:vector(packetBytes):count 0
scalar QueueingTimeMeasurementShowcase.destination.ipv4.ip packetDropNoInterfaceFound:vector(packetBytes):sum 0
scalar QueueingTimeMeasurementShowcase.destination.ipv4.ip packetDropNoInterfaceFound:vector(packetBytes):sumweights 0
scalar QueueingTimeMeasurementShowcase.destination.ipv4.ip packetDropNoInterfaceFound:vector(packetBytes):mean -nan
scalar QueueingTimeMeasurementShowcase.destination.ipv4.ip packetDropNoInterfaceFound:vector(packetBytes):stddev nan
scalar QueueingTimeMeasurementShowcase.destination.ipv4.ip packetDropNoInterfaceFound:vector(packetBytes):min inf
scalar QueueingTimeMeasurementShowcase.destination.ipv4.ip packetDropNoInterfaceFound:vector(packetBytes):max -inf
scalar QueueingTimeMeasurementShowcase.destination.ipv4.ip packetDropNoInterfaceFound:vector(packetBytes):starttime nan
scalar QueueingTimeMeasurementShowcase.destination.ipv4.ip packetDropNoInterfaceFound:vector(packetBytes):endtime nan
scalar QueueingTimeMeasurementShowcase.destination.ipv4.ip packetDropNoRouteFound:vector(packetBytes):count 0
scalar QueueingTimeMeasurementShowcase.destination.ipv4.ip packetDropNoRouteFound:vector(packetBytes):sum 0
scalar QueueingTimeMeasurementShowcase.destination.ipv4.ip packetDropNoRouteFound:vector(packetBytes):sumweights 0
scalar QueueingTimeMeasurementShowcase.destination.ipv4.ip packetDropNoRouteFound:vector(packetBytes):mean -nan
scalar QueueingTimeMeasurementShowcase.destination.ipv4.ip packetDropNoRouteFound:vector(packetBytes):stddev nan
scalar QueueingTimeMeasurementShowcase.destination.ipv4.ip packetDropNoRouteFound:vector(packetBytes):min inf
scalar QueueingTimeMeasurementShowcase.destination.ipv4.ip packetDropNoRouteFound:vector(packetBytes):max -inf
scalar QueueingTimeMeasurementShowcase.destination.ipv4.ip packetDropNoRouteFound:vector(packetBytes):starttime nan
scalar QueueingTimeMeasurementShowcase.destination.ipv4.ip packetDropNoRouteFound:vector(packetBytes):endtime nan
scalar QueueingTimeMeasurementShowcase.destination.ipv4.ip packetDropUndefined:vector(packetBytes):count 0
scalar QueueingTimeMeasurementShowcase.destination.ipv4.ip packetDropUndefined:vector(packetBytes):sum 0
scalar QueueingTimeMeasurementShowcase.destination.ipv4.ip packetDropUndefined:vector(packetBytes):sumweights 0
scalar QueueingTimeMeasurementShowcase.destination.ipv4.ip packetDropUndefined:vector(packetBytes):mean -nan
scalar QueueingTimeMeasurementShowcase.destination.ipv4.ip packetDropUndefined:vector(packetBytes):stddev nan
scalar QueueingTimeMeasurementShowcase.destination.ipv4.ip packetDropUndefined:vector(packetBytes):min inf
scalar QueueingTimeMeasurementShowcase.destination.ipv4.ip packetDropUndefined:vector(packetBytes):max -inf
scalar QueueingTimeMeasurementShowcase.destination.ipv4.ip packetDropUndefined:vector(packetBytes):starttime nan
scalar QueueingTimeMeasurementShowcase.destination.ipv4.ip packetDropUndefined:vector(packetBytes):endtime nan
scalar QueueingTimeMeasurementShowcase.destination.udp packetSent:vector(packetBytes):count 0
scalar QueueingTimeMeasurementShowcase.destination.udp packetSent:vector(packetBytes):sum 0
scalar QueueingTimeMeasurementShowcase.destination.udp packetSent:vector(packetBytes):sumweights 0
scalar QueueingTimeMeasurementShowcase.destination.udp packetSent:vector(packetBytes):mean -nan
scalar QueueingTimeMeasurementShowcase.destination.udp packetSent:vector(packetBytes):stddev nan
scalar QueueingTimeMeasurementShowcase.destination.udp packetSent:vector(packetBytes):min inf
scalar QueueingTimeMeasurementShowcase.destination.udp packetSent:vector(packetBytes):max -inf
scalar QueueingTimeMeasurementShowcase.destination.udp packetSent:vector(packetBytes):starttime nan
scalar QueueingTimeMeasurementShowcase.destination.udp packetSent:vector(packetBytes):endtime nan
scalar QueueingTimeMeasurementShowcase.destination.udp packetReceived:vector(packetBytes):count 49286
scalar QueueingTimeMeasurementShowcase.destination.udp packetReceived:vector(packetBytes):sum 59537488
scalar QueueingTimeMeasurementShowcase.destination.udp packetReceived:vector(packetBytes):sumweights 49286
scalar QueueingTimeMeasurementShowcase.destination.udp packetReceived:vector(packetBytes):mean 1208
scalar QueueingTimeMeasurementShowcase.destination.udp packetReceived:vector(packetBytes):stddev 0
scalar QueueingTimeMeasurementShowcase.destination.udp packetReceived:vector(packetBytes):min 1208
scalar QueueingTimeMeasurementShowcase.destination.udp packetReceived:vector(packetBytes):max 1208
scalar QueueingTimeMeasurementShowcase.destination.udp packetReceived:vector(packetBytes):starttime 0.00010037
scalar QueueingTimeMeasurementShowcase.destination.udp packetReceived:vector(packetBytes):endtime 4.999935591761
scalar QueueingTimeMeasurementShowcase.destination.udp passedUpPk:vector(count):count 49287
scalar QueueingTimeMeasurementShowcase.destination.udp passedUpPk:vector(count):sum 1214579541
scalar QueueingTimeMeasurementShowcase.destination.udp passedUpPk:vector(count):sumweights 49287
scalar QueueingTimeMeasurementShowcase.destination.udp passedUpPk:vector(count):mean 24643
scalar QueueingTimeMeasurementShowcase.destination.udp passedUpPk:vector(count):stddev 14228.07569561
scalar QueueingTimeMeasurementShowcase.destination.udp passedUpPk:vector(count):min 0
scalar QueueingTimeMeasurementShowcase.destination.udp passedUpPk:vector(count):max 49286
scalar QueueingTimeMeasurementShowcase.destination.udp passedUpPk:vector(count):starttime 0
scalar QueueingTimeMeasurementShowcase.destination.udp passedUpPk:vector(count):endtime 4.999935591761
scalar QueueingTimeMeasurementShowcase.destination.udp droppedPkWrongPort:vector(count):count 1
scalar QueueingTimeMeasurementShowcase.destination.udp droppedPkWrongPort:vector(count):sum 0
scalar QueueingTimeMeasurementShowcase.destination.udp droppedPkWrongPort:vector(count):sumweights 1
scalar QueueingTimeMeasurementShowcase.destination.udp droppedPkWrongPort:vector(count):mean 0
scalar QueueingTimeMeasurementShowcase.destination.udp droppedPkWrongPort:vector(count):stddev nan
scalar QueueingTimeMeasurementShowcase.destination.udp droppedPkWrongPort:vector(count):min 0
scalar QueueingTimeMeasurementShowcase.destination.udp droppedPkWrongPort:vector(count):max 0
scalar QueueingTimeMeasurementShowcase.destination.udp droppedPkWrongPort:vector(count):starttime 0
scalar QueueingTimeMeasurementShowcase.destination.udp droppedPkWrongPort:vector(count):endtime 0
scalar QueueingTimeMeasurementShowcase.destination.udp droppedPkBadChecksum:vector(count):count 1
scalar QueueingTimeMeasurementShowcase.destination.udp droppedPkBadChecksum:vector(count):sum 0
scalar QueueingTimeMeasurementShowcase.destination.udp droppedPkBadChecksum:vector(count):sumweights 1
scalar QueueingTimeMeasurementShowcase.destination.udp droppedPkBadChecksum:vector(count):mean 0
scalar QueueingTimeMeasurementShowcase.destination.udp droppedPkBadChecksum:vector(count):stddev nan
scalar QueueingTimeMeasurementShowcase.destination.udp droppedPkBadChecksum:vector(count):min 0
scalar QueueingTimeMeasurementShowcase.destination.udp droppedPkBadChecksum:vector(count):max 0
scalar QueueingTimeMeasurementShowcase.destination.udp droppedPkBadChecksum:vector(count):starttime 0
scalar QueueingTimeMeasurementShowcase.destination.udp droppedPkBadChecksum:vector(count):endtime 0
scalar QueueingTimeMeasurementShowcase.destination.app[0].sink droppedPacketLengths:vector:count 49286
scalar QueueingTimeMeasurementShowcase.destination.app[0].sink droppedPacketLengths:vector:sum 473145600
scalar QueueingTimeMeasurementShowcase.destination.app[0].sink droppedPacketLengths:vector:sumweights 49286
scalar QueueingTimeMeasurementShowcase.destination.app[0].sink droppedPacketLengths:vector:mean 9600
scalar QueueingTimeMeasurementShowcase.destination.app[0].sink droppedPacketLengths:vector:stddev 0
scalar QueueingTimeMeasurementShowcase.destination.app[0].sink droppedPacketLengths:vector:min 9600
scalar QueueingTimeMeasurementShowcase.destination.app[0].sink droppedPacketLengths:vector:max 9600
scalar QueueingTimeMeasurementShowcase.destination.app[0].sink droppedPacketLengths:vector:starttime 0.00010037
scalar QueueingTimeMeasurementShowcase.destination.app[0].sink droppedPacketLengths:vector:endtime 4.999935591761
scalar QueueingTimeMeasurementShowcase.destination.app[0].sink droppedDataRate:vector:count 493
scalar QueueingTimeMeasurementShowcase.destination.app[0].sink droppedDataRate:vector:sum 46656601083.376
scalar QueueingTimeMeasurementShowcase.destination.app[0].sink droppedDataRate:vector:sumweights 493
scalar QueueingTimeMeasurementShowcase.destination.app[0].sink droppedDataRate:vector:mean 94638136.071757
scalar QueueingTimeMeasurementShowcase.destination.app[0].sink droppedDataRate:vector:stddev 898822.20480349
scalar QueueingTimeMeasurementShowcase.destination.app[0].sink droppedDataRate:vector:min 84107842.8648
scalar QueueingTimeMeasurementShowcase.destination.app[0].sink droppedDataRate:vector:max 94786729.85782
scalar QueueingTimeMeasurementShowcase.destination.app[0].sink droppedDataRate:vector:starttime 0.010935117836
scalar QueueingTimeMeasurementShowcase.destination.app[0].sink droppedDataRate:vector:endtime 5
scalar QueueingTimeMeasurementShowcase.destination.app[0].sink packetLengths:vector:count 49286
scalar QueueingTimeMeasurementShowcase.destination.app[0].sink packetLengths:vector:sum 473145600
scalar QueueingTimeMeasurementShowcase.destination.app[0].sink packetLengths:vector:sumweights 49286
scalar QueueingTimeMeasurementShowcase.destination.app[0].sink packetLengths:vector:mean 9600
scalar QueueingTimeMeasurementShowcase.destination.app[0].sink packetLengths:vector:stddev 0
scalar QueueingTimeMeasurementShowcase.destination.app[0].sink packetLengths:vector:min 9600
scalar QueueingTimeMeasurementShowcase.destination.app[0].sink packetLengths:vector:max 9600
scalar QueueingTimeMeasurementShowcase.destination.app[0].sink packetLengths:vector:starttime 0.00010037
scalar QueueingTimeMeasurementShowcase.destination.app[0].sink packetLengths:vector:endtime 4.999935591761
scalar QueueingTimeMeasurementShowcase.destination.app[0].sink dataRate:vector:count 493
scalar QueueingTimeMeasurementShowcase.destination.app[0].sink dataRate:vector:sum 46656601083.376
scalar QueueingTimeMeasurementShowcase.destination.app[0].sink dataRate:vector:sumweights 493
scalar QueueingTimeMeasurementShowcase.destination.app[0].sink dataRate:vector:mean 94638136.071757
scalar QueueingTimeMeasurementShowcase.destination.app[0].sink dataRate:vector:stddev 898822.20480349
scalar QueueingTimeMeasurementShowcase.destination.app[0].sink dataRate:vector:min 84107842.8648
scalar QueueingTimeMeasurementShowcase.destination.app[0].sink dataRate:vector:max 94786729.85782
scalar QueueingTimeMeasurementShowcase.destination.app[0].sink dataRate:vector:starttime 0.010935117836
scalar QueueingTimeMeasurementShowcase.destination.app[0].sink dataRate:vector:endtime 5
scalar QueueingTimeMeasurementShowcase.destination.app[0].sink meanBitLifeTimePerPacket:vector:count 49286
scalar QueueingTimeMeasurementShowcase.destination.app[0].sink meanBitLifeTimePerPacket:vector:sum 2522.2174017304
scalar QueueingTimeMeasurementShowcase.destination.app[0].sink meanBitLifeTimePerPacket:vector:sumweights 49286
scalar QueueingTimeMeasurementShowcase.destination.app[0].sink meanBitLifeTimePerPacket:vector:mean 0.051175128874942
scalar QueueingTimeMeasurementShowcase.destination.app[0].sink meanBitLifeTimePerPacket:vector:stddev 0.032365038271914
scalar QueueingTimeMeasurementShowcase.destination.app[0].sink meanBitLifeTimePerPacket:vector:min 0.00010037
scalar QueueingTimeMeasurementShowcase.destination.app[0].sink meanBitLifeTimePerPacket:vector:max 0.093688501263
scalar QueueingTimeMeasurementShowcase.destination.app[0].sink meanBitLifeTimePerPacket:vector:starttime 0.00010037
scalar QueueingTimeMeasurementShowcase.destination.app[0].sink meanBitLifeTimePerPacket:vector:endtime 4.999935591761
scalar QueueingTimeMeasurementShowcase.destination.app[0].sink packetLifeTime:vector:count 49286
scalar QueueingTimeMeasurementShowcase.destination.app[0].sink packetLifeTime:vector:sum 2522.2174017304
scalar QueueingTimeMeasurementShowcase.destination.app[0].sink packetLifeTime:vector:sumweights 49286
scalar QueueingTimeMeasurementShowcase.destination.app[0].sink packetLifeTime:vector:mean 0.051175128874942
scalar QueueingTimeMeasurementShowcase.destination.app[0].sink packetLifeTime:vector:stddev 0.032365038271913
scalar QueueingTimeMeasurementShowcase.destination.app[0].sink packetLifeTime:vector:min 0.00010037
scalar QueueingTimeMeasurementShowcase.destination.app[0].sink packetLifeTime:vector:max 0.093688501263
scalar QueueingTimeMeasurementShowcase.destination.app[0].sink packetLifeTime:vector:starttime 0.00010037
scalar QueueingTimeMeasurementShowcase.destination.app[0].sink packetLifeTime:vector:endtime 4.999935591761
scalar QueueingTimeMeasurementShowcase.destination.app[0].sink packetJitter:vector:count 49286
scalar QueueingTimeMeasurementShowcase.destination.app[0].sink packetJitter:vector:sum 0.090091229381
scalar QueueingTimeMeasurementShowcase.destination.app[0].sink packetJitter:vector:sumweights 49286
scalar QueueingTimeMeasurementShowcase.destination.app[0].sink packetJitter:vector:mean 1.8279273907601e-06
scalar QueueingTimeMeasurementShowcase.destination.app[0].sink packetJitter:vector:stddev 9.920497155116e-05
scalar QueueingTimeMeasurementShowcase.destination.app[0].sink packetJitter:vector:min -0.000970952498
scalar QueueingTimeMeasurementShowcase.destination.app[0].sink packetJitter:vector:max 0.00010127959900001
scalar QueueingTimeMeasurementShowcase.destination.app[0].sink packetJitter:vector:starttime 0.00010037
scalar QueueingTimeMeasurementShowcase.destination.app[0].sink packetJitter:vector:endtime 4.999935591761
scalar QueueingTimeMeasurementShowcase.destination.app[0].sink packetDelayDifferenceToMean:vector:count 49286
scalar QueueingTimeMeasurementShowcase.destination.app[0].sink packetDelayDifferenceToMean:vector:sum -1366.8051245397
scalar QueueingTimeMeasurementShowcase.destination.app[0].sink packetDelayDifferenceToMean:vector:sumweights 49286
scalar QueueingTimeMeasurementShowcase.destination.app[0].sink packetDelayDifferenceToMean:vector:mean -0.027732117123315
scalar QueueingTimeMeasurementShowcase.destination.app[0].sink packetDelayDifferenceToMean:vector:stddev 0.016684590678025
scalar QueueingTimeMeasurementShowcase.destination.app[0].sink packetDelayDifferenceToMean:vector:min -0.051453743145419
scalar QueueingTimeMeasurementShowcase.destination.app[0].sink packetDelayDifferenceToMean:vector:max 0.0017532237598341
scalar QueueingTimeMeasurementShowcase.destination.app[0].sink packetDelayDifferenceToMean:vector:starttime 0.00010037
scalar QueueingTimeMeasurementShowcase.destination.app[0].sink packetDelayDifferenceToMean:vector:endtime 4.999935591761
scalar QueueingTimeMeasurementShowcase.destination.app[0].sink packetDelayVariation:vector:count 49286
scalar QueueingTimeMeasurementShowcase.destination.app[0].sink packetDelayVariation:vector:sum 868.430492446
scalar QueueingTimeMeasurementShowcase.destination.app[0].sink packetDelayVariation:vector:sumweights 49286
scalar QueueingTimeMeasurementShowcase.destination.app[0].sink packetDelayVariation:vector:mean 0.017620226685996
scalar QueueingTimeMeasurementShowcase.destination.app[0].sink packetDelayVariation:vector:stddev 0.011582998730772
scalar QueueingTimeMeasurementShowcase.destination.app[0].sink packetDelayVariation:vector:min 0
scalar QueueingTimeMeasurementShowcase.destination.app[0].sink packetDelayVariation:vector:max 0.032364711134981
scalar QueueingTimeMeasurementShowcase.destination.app[0].sink packetDelayVariation:vector:starttime 0.00010037
scalar QueueingTimeMeasurementShowcase.destination.app[0].sink packetDelayVariation:vector:endtime 4.999935591761
scalar QueueingTimeMeasurementShowcase.destination.app[0].io packetSent:vector(packetBytes):count 0
scalar QueueingTimeMeasurementShowcase.destination.app[0].io packetSent:vector(packetBytes):sum 0
scalar QueueingTimeMeasurementShowcase.destination.app[0].io packetSent:vector(packetBytes):sumweights 0
scalar QueueingTimeMeasurementShowcase.destination.app[0].io packetSent:vector(packetBytes):mean -nan
scalar QueueingTimeMeasurementShowcase.destination.app[0].io packetSent:vector(packetBytes):stddev nan
scalar QueueingTimeMeasurementShowcase.destination.app[0].io packetSent:vector(packetBytes):min inf
scalar QueueingTimeMeasurementShowcase.destination.app[0].io packetSent:vector(packetBytes):max -inf
scalar QueueingTimeMeasurementShowcase.destination.app[0].io packetSent:vector(packetBytes):starttime nan
scalar QueueingTimeMeasurementShowcase.destination.app[0].io packetSent:vector(packetBytes):endtime nan
scalar QueueingTimeMeasurementShowcase.destination.app[0].io packetReceived:vector(packetBytes):count 49286
scalar QueueingTimeMeasurementShowcase.destination.app[0].io packetReceived:vector(packetBytes):sum 59143200
scalar QueueingTimeMeasurementShowcase.destination.app[0].io packetReceived:vector(packetBytes):sumweights 49286
scalar QueueingTimeMeasurementShowcase.destination.app[0].io packetReceived:vector(packetBytes):mean 1200
scalar QueueingTimeMeasurementShowcase.destination.app[0].io packetReceived:vector(packetBytes):stddev 0
scalar QueueingTimeMeasurementShowcase.destination.app[0].io packetReceived:vector(packetBytes):min 1200
scalar QueueingTimeMeasurementShowcase.destination.app[0].io packetReceived:vector(packetBytes):max 1200
scalar QueueingTimeMeasurementShowcase.destination.app[0].io packetReceived:vector(packetBytes):starttime 0.00010037
scalar QueueingTimeMeasurementShowcase.destination.app[0].io packetReceived:vector(packetBytes):endtime 4.999935591761

