version 3
run General-0-20251118-11:49:01-110843
attr configname General
attr datetime 20251118-11:49:01
attr datetimef 20251118-114901
attr experiment General
attr inifile omnetpp.ini
attr iterationvars ""
attr iterationvarsd ""
attr iterationvarsf ""
attr measurement ""
attr network ClientServerWithSM
attr processid 110843
attr repetition 0
attr replication #0
attr resultdir results
attr runnumber 0
attr seedset 0
config **.param-recording false
config image-path /home/zoli/Projects/OMNET/inet/images
config output-scalar-file results/omnetpp.ini-General-#0.sca
config output-scalar-precision 17
config output-vector-file results/omnetpp.ini-General-#0.vec
config output-vector-precision 17
config record-eventlog false
config sim-time-limit 10s
config sim-time-limit 10s
config network ClientServerWithSM
config total-stack 7MiB
config **.scenarioManager.script "xmldoc(\"scenario.xml\")"
config **.numApps 1
config **.client*.app[*].typename TcpSessionApp
config **.client*.app[0].active true
config **.client*.app[0].localPort -1
config **.client*.app[0].connectAddress "\"server\""
config **.client*.app[0].connectPort 1000
config **.client*.app[0].tOpen 0.2s
config **.client*.app[0].tSend 0.4s
config **.client*.app[0].sendBytes 2000000B
config **.client*.app[0].sendScript "\"\""
config **.client*.app[0].tClose 25s
config **.server*.app[*].typename TcpEchoApp
config **.server*.app[0].localPort 1000
config **.server*.app[0].echoFactor 2.0
config **.server*.app[0].echoDelay 0s
config **.ppp[*].queue.typename DropTailQueue
config **.ppp[*].queue.packetCapacity 10
config *.configurator.config "xml(\"<config><interface hosts='*' address='192.168.1.x' netmask='255.255.255.0'/></config>\")"

scalar ClientServerWithSM.client1.lo[0].lo rcvdPkFromHl:count 0
scalar ClientServerWithSM.client1.lo[0].lo rcvdPkFromHl:sum(packetBytes) 0
scalar ClientServerWithSM.client1.lo[0].lo passedUpPk:count 0
scalar ClientServerWithSM.client1.lo[0].lo passedUpPk:sum(packetBytes) 0
scalar ClientServerWithSM.client1.lo[0] packetDropInterfaceDown:count 0
scalar ClientServerWithSM.client1.lo[0] packetDropInterfaceDown:sum(packetBytes) 0
scalar ClientServerWithSM.client1.lo[0] packetDropNoCarrier:count 0
scalar ClientServerWithSM.client1.lo[0] packetDropNoCarrier:sum(packetBytes) 0
scalar ClientServerWithSM.client1.ppp[0].queue queueLength:last 9
scalar ClientServerWithSM.client1.ppp[0].queue queueLength:max 10
scalar ClientServerWithSM.client1.ppp[0].queue queueLength:timeavg 3.2581342670226001
scalar ClientServerWithSM.client1.ppp[0].queue queueBitLength:last 15744
scalar ClientServerWithSM.client1.ppp[0].queue queueBitLength:max 36864
scalar ClientServerWithSM.client1.ppp[0].queue queueBitLength:timeavg 5760.9713257782014
scalar ClientServerWithSM.client1.ppp[0].queue outgoingPackets:count 363
scalar ClientServerWithSM.client1.ppp[0].queue outgoingPacketLengths:sum 772256
scalar ClientServerWithSM.client1.ppp[0].queue incomingPackets:count 392
scalar ClientServerWithSM.client1.ppp[0].queue incomingPacketLengths:sum 854432
scalar ClientServerWithSM.client1.ppp[0].queue droppedPacketsQueueOverflow:count 20
scalar ClientServerWithSM.client1.ppp[0].queue droppedPacketLengthsQueueOverflow:sum 66432
scalar ClientServerWithSM.client1.ppp[0].ppp transmissionState:timeavg 0.50563895189139996
scalar ClientServerWithSM.client1.ppp[0].ppp rxPkOk:count 373
scalar ClientServerWithSM.client1.ppp[0].ppp rxPkOk:sum(packetBytes) 135455
scalar ClientServerWithSM.client1.ppp[0].ppp txPk:count 363
scalar ClientServerWithSM.client1.ppp[0].ppp txPk:sum(packetBytes) 99073
scalar ClientServerWithSM.client1.ppp[0].ppp rcvdPkFromHl:count 363
scalar ClientServerWithSM.client1.ppp[0].ppp rcvdPkFromHl:sum(packetBytes) 96532
scalar ClientServerWithSM.client1.ppp[0].ppp passedUpPk:count 373
scalar ClientServerWithSM.client1.ppp[0].ppp passedUpPk:sum(packetBytes) 132844
scalar ClientServerWithSM.client1.ppp[0].ppp packetDropIncorrectlyReceived:count 0
scalar ClientServerWithSM.client1.ppp[0].ppp packetDropIncorrectlyReceived:sum(packetBytes) 0
scalar ClientServerWithSM.client1.ppp[0].ppp packetDropInterfaceDown:count 0
scalar ClientServerWithSM.client1.ppp[0].ppp packetDropInterfaceDown:sum(packetBytes) 0
scalar ClientServerWithSM.client1.ppp[0] packetDropInterfaceDown:count 0
scalar ClientServerWithSM.client1.ppp[0] packetDropInterfaceDown:sum(packetBytes) 0
scalar ClientServerWithSM.client1.ppp[0] packetDropNoCarrier:count 0
scalar ClientServerWithSM.client1.ppp[0] packetDropNoCarrier:sum(packetBytes) 0
scalar ClientServerWithSM.client1.ipv4.ip packetDropAddressResolutionFailed:count 0
scalar ClientServerWithSM.client1.ipv4.ip packetDropAddressResolutionFailed:sum(packetBytes) 0
scalar ClientServerWithSM.client1.ipv4.ip packetDropHopLimitReached:count 0
scalar ClientServerWithSM.client1.ipv4.ip packetDropHopLimitReached:sum(packetBytes) 0
scalar ClientServerWithSM.client1.ipv4.ip packetDropForwardingDisabled:count 0
scalar ClientServerWithSM.client1.ipv4.ip packetDropForwardingDisabled:sum(packetBytes) 0
scalar ClientServerWithSM.client1.ipv4.ip packetDropLifetimeExpired:count 0
scalar ClientServerWithSM.client1.ipv4.ip packetDropLifetimeExpired:sum(packetBytes) 0
scalar ClientServerWithSM.client1.ipv4.ip packetDropNoInterfaceFound:count 0
scalar ClientServerWithSM.client1.ipv4.ip packetDropNoInterfaceFound:sum(packetBytes) 0
scalar ClientServerWithSM.client1.ipv4.ip packetDropNoRouteFound:count 0
scalar ClientServerWithSM.client1.ipv4.ip packetDropNoRouteFound:sum(packetBytes) 0
scalar ClientServerWithSM.client1.ipv4.ip packetDropUndefined:count 0
scalar ClientServerWithSM.client1.ipv4.ip packetDropUndefined:sum(packetBytes) 0
scalar ClientServerWithSM.client1.ipv4.arp arpResolutionFailed:count 0
scalar ClientServerWithSM.client1.ipv4.arp arpResolutionCompleted:count 0
scalar ClientServerWithSM.client1.ipv4.arp arpResolutionInitiated:count 0
scalar ClientServerWithSM.client1.ipv4.arp arpReplySent:count 0
scalar ClientServerWithSM.client1.ipv4.arp arpReplySent:sum(packetBytes) 0
scalar ClientServerWithSM.client1.ipv4.arp arpRequestSent:count 0
scalar ClientServerWithSM.client1.ipv4.arp arpRequestSent:sum(packetBytes) 0
scalar ClientServerWithSM.client1.udp packetReceived:count 0
scalar ClientServerWithSM.client1.udp packetReceived:sum(packetBytes) 0
scalar ClientServerWithSM.client1.udp packetSent:count 0
scalar ClientServerWithSM.client1.udp packetSent:sum(packetBytes) 0
scalar ClientServerWithSM.client1.udp passedUpPk:count 0
scalar ClientServerWithSM.client1.udp droppedPkWrongPort:count 0
scalar ClientServerWithSM.client1.udp droppedPkBadChecksum:count 0
scalar ClientServerWithSM.client1.app[0] bytesRcvd 112560
scalar ClientServerWithSM.client1.app[0] bytesSent 2000000
scalar ClientServerWithSM.client1.app[0] packetReceived:count 195
scalar ClientServerWithSM.client1.app[0] packetReceived:sum(packetBytes) 112560
scalar ClientServerWithSM.client1.app[0] packetSent:count 1
scalar ClientServerWithSM.client1.app[0] packetSent:sum(packetBytes) 2000000
scalar ClientServerWithSM.server.lo[0].lo rcvdPkFromHl:count 0
scalar ClientServerWithSM.server.lo[0].lo rcvdPkFromHl:sum(packetBytes) 0
scalar ClientServerWithSM.server.lo[0].lo passedUpPk:count 0
scalar ClientServerWithSM.server.lo[0].lo passedUpPk:sum(packetBytes) 0
scalar ClientServerWithSM.server.lo[0] packetDropInterfaceDown:count 0
scalar ClientServerWithSM.server.lo[0] packetDropInterfaceDown:sum(packetBytes) 0
scalar ClientServerWithSM.server.lo[0] packetDropNoCarrier:count 0
scalar ClientServerWithSM.server.lo[0] packetDropNoCarrier:sum(packetBytes) 0
scalar ClientServerWithSM.server.ppp[0].queue queueLength:last 0
scalar ClientServerWithSM.server.ppp[0].queue queueLength:max 10
scalar ClientServerWithSM.server.ppp[0].queue queueLength:timeavg 0.046617034238299999
scalar ClientServerWithSM.server.ppp[0].queue queueBitLength:last 0
scalar ClientServerWithSM.server.ppp[0].queue queueBitLength:max 46080
scalar ClientServerWithSM.server.ppp[0].queue queueBitLength:timeavg 166.65671073008662
scalar ClientServerWithSM.server.ppp[0].queue outgoingPackets:count 373
scalar ClientServerWithSM.server.ppp[0].queue outgoingPacketLengths:sum 1062752
scalar ClientServerWithSM.server.ppp[0].queue incomingPackets:count 389
scalar ClientServerWithSM.server.ppp[0].queue incomingPacketLengths:sum 1136480
scalar ClientServerWithSM.server.ppp[0].queue droppedPacketsQueueOverflow:count 16
scalar ClientServerWithSM.server.ppp[0].queue droppedPacketLengthsQueueOverflow:sum 73728
scalar ClientServerWithSM.server.ppp[0].ppp transmissionState:timeavg 0.010836400000000027
scalar ClientServerWithSM.server.ppp[0].ppp rxPkOk:count 362
scalar ClientServerWithSM.server.ppp[0].ppp rxPkOk:sum(packetBytes) 98490
scalar ClientServerWithSM.server.ppp[0].ppp txPk:count 373
scalar ClientServerWithSM.server.ppp[0].ppp txPk:sum(packetBytes) 135455
scalar ClientServerWithSM.server.ppp[0].ppp rcvdPkFromHl:count 373
scalar ClientServerWithSM.server.ppp[0].ppp rcvdPkFromHl:sum(packetBytes) 132844
scalar ClientServerWithSM.server.ppp[0].ppp passedUpPk:count 362
scalar ClientServerWithSM.server.ppp[0].ppp passedUpPk:sum(packetBytes) 95956
scalar ClientServerWithSM.server.ppp[0].ppp packetDropIncorrectlyReceived:count 0
scalar ClientServerWithSM.server.ppp[0].ppp packetDropIncorrectlyReceived:sum(packetBytes) 0
scalar ClientServerWithSM.server.ppp[0].ppp packetDropInterfaceDown:count 0
scalar ClientServerWithSM.server.ppp[0].ppp packetDropInterfaceDown:sum(packetBytes) 0
scalar ClientServerWithSM.server.ppp[0] packetDropInterfaceDown:count 0
scalar ClientServerWithSM.server.ppp[0] packetDropInterfaceDown:sum(packetBytes) 0
scalar ClientServerWithSM.server.ppp[0] packetDropNoCarrier:count 0
scalar ClientServerWithSM.server.ppp[0] packetDropNoCarrier:sum(packetBytes) 0
scalar ClientServerWithSM.server.ipv4.ip packetDropAddressResolutionFailed:count 0
scalar ClientServerWithSM.server.ipv4.ip packetDropAddressResolutionFailed:sum(packetBytes) 0
scalar ClientServerWithSM.server.ipv4.ip packetDropHopLimitReached:count 0
scalar ClientServerWithSM.server.ipv4.ip packetDropHopLimitReached:sum(packetBytes) 0
scalar ClientServerWithSM.server.ipv4.ip packetDropForwardingDisabled:count 0
scalar ClientServerWithSM.server.ipv4.ip packetDropForwardingDisabled:sum(packetBytes) 0
scalar ClientServerWithSM.server.ipv4.ip packetDropLifetimeExpired:count 0
scalar ClientServerWithSM.server.ipv4.ip packetDropLifetimeExpired:sum(packetBytes) 0
scalar ClientServerWithSM.server.ipv4.ip packetDropNoInterfaceFound:count 0
scalar ClientServerWithSM.server.ipv4.ip packetDropNoInterfaceFound:sum(packetBytes) 0
scalar ClientServerWithSM.server.ipv4.ip packetDropNoRouteFound:count 0
scalar ClientServerWithSM.server.ipv4.ip packetDropNoRouteFound:sum(packetBytes) 0
scalar ClientServerWithSM.server.ipv4.ip packetDropUndefined:count 0
scalar ClientServerWithSM.server.ipv4.ip packetDropUndefined:sum(packetBytes) 0
scalar ClientServerWithSM.server.ipv4.arp arpResolutionFailed:count 0
scalar ClientServerWithSM.server.ipv4.arp arpResolutionCompleted:count 0
scalar ClientServerWithSM.server.ipv4.arp arpResolutionInitiated:count 0
scalar ClientServerWithSM.server.ipv4.arp arpReplySent:count 0
scalar ClientServerWithSM.server.ipv4.arp arpReplySent:sum(packetBytes) 0
scalar ClientServerWithSM.server.ipv4.arp arpRequestSent:count 0
scalar ClientServerWithSM.server.ipv4.arp arpRequestSent:sum(packetBytes) 0
scalar ClientServerWithSM.server.udp packetReceived:count 0
scalar ClientServerWithSM.server.udp packetReceived:sum(packetBytes) 0
scalar ClientServerWithSM.server.udp packetSent:count 0
scalar ClientServerWithSM.server.udp packetSent:sum(packetBytes) 0
scalar ClientServerWithSM.server.udp passedUpPk:count 0
scalar ClientServerWithSM.server.udp droppedPkWrongPort:count 0
scalar ClientServerWithSM.server.udp droppedPkBadChecksum:count 0
scalar ClientServerWithSM.server.app[0].thread_5 packetReceived:count 122
scalar ClientServerWithSM.server.app[0].thread_5 packetReceived:sum(packetBytes) 77720
scalar ClientServerWithSM.server.app[0].thread_5 packetSent:count 122
scalar ClientServerWithSM.server.app[0].thread_5 packetSent:sum(packetBytes) 155440
scalar ClientServerWithSM.server.app[0] bytesRcvd 77720
scalar ClientServerWithSM.server.app[0] bytesSent 155440
scalar ClientServerWithSM.server.app[0] packetReceived:count 122
scalar ClientServerWithSM.server.app[0] packetReceived:sum(packetBytes) 77720
scalar ClientServerWithSM.server.app[0] packetSent:count 122
scalar ClientServerWithSM.server.app[0] packetSent:sum(packetBytes) 155440
scalar ClientServerWithSM.client1.ppp[0].queue queueingTime:histogram:count 363
scalar ClientServerWithSM.client1.ppp[0].queue queueingTime:histogram:sumweights 363
scalar ClientServerWithSM.client1.ppp[0].queue queueingTime:histogram:mean 0.050677748760330592
scalar ClientServerWithSM.client1.ppp[0].queue queueingTime:histogram:stddev 0.23906259911017808
scalar ClientServerWithSM.client1.ppp[0].queue queueingTime:histogram:min 0
scalar ClientServerWithSM.client1.ppp[0].queue queueingTime:histogram:max 1.5871622000000001
scalar ClientServerWithSM.client1.ppp[0].queue queueingTime:histogram:numbins 50
scalar ClientServerWithSM.client1.ppp[0].queue queueingTime:histogram:rangemin 0
scalar ClientServerWithSM.client1.ppp[0].queue queueingTime:histogram:rangemax 1.6000000000000001
scalar ClientServerWithSM.client1.ppp[0].queue queueingTime:histogram:underflows 0
scalar ClientServerWithSM.client1.ppp[0].queue queueingTime:histogram:overflows 0
scalar ClientServerWithSM.client1.ppp[0].queue outgoingPacketLengths:histogram:count 363
scalar ClientServerWithSM.client1.ppp[0].queue outgoingPacketLengths:histogram:sumweights 363
scalar ClientServerWithSM.client1.ppp[0].queue outgoingPacketLengths:histogram:mean 2127.4269972451789
scalar ClientServerWithSM.client1.ppp[0].queue outgoingPacketLengths:histogram:stddev 2120.2508404813693
scalar ClientServerWithSM.client1.ppp[0].queue outgoingPacketLengths:histogram:min 320
scalar ClientServerWithSM.client1.ppp[0].queue outgoingPacketLengths:histogram:max 4608
scalar ClientServerWithSM.client1.ppp[0].queue outgoingPacketLengths:histogram:numbins 57
scalar ClientServerWithSM.client1.ppp[0].queue outgoingPacketLengths:histogram:rangemin 0
scalar ClientServerWithSM.client1.ppp[0].queue outgoingPacketLengths:histogram:rangemax 5700
scalar ClientServerWithSM.client1.ppp[0].queue outgoingPacketLengths:histogram:underflows 0
scalar ClientServerWithSM.client1.ppp[0].queue outgoingPacketLengths:histogram:overflows 0
scalar ClientServerWithSM.client1.ppp[0].queue flowQueueingTime:histogram:count 0
scalar ClientServerWithSM.client1.ppp[0].queue flowQueueingTime:histogram:sumweights 0
scalar ClientServerWithSM.client1.ppp[0].queue flowQueueingTime:histogram:mean -nan
scalar ClientServerWithSM.client1.ppp[0].queue flowQueueingTime:histogram:stddev nan
scalar ClientServerWithSM.client1.ppp[0].queue flowQueueingTime:histogram:min nan
scalar ClientServerWithSM.client1.ppp[0].queue flowQueueingTime:histogram:max nan
scalar ClientServerWithSM.client1.ppp[0].queue flowQueueingTime:histogram:numbins 1
scalar ClientServerWithSM.client1.ppp[0].queue flowQueueingTime:histogram:rangemin 0
scalar ClientServerWithSM.client1.ppp[0].queue flowQueueingTime:histogram:rangemax 1
scalar ClientServerWithSM.client1.ppp[0].queue flowQueueingTime:histogram:underflows 0
scalar ClientServerWithSM.client1.ppp[0].queue flowQueueingTime:histogram:overflows 0
scalar ClientServerWithSM.client1.ppp[0].queue incomingPacketLengths:histogram:count 392
scalar ClientServerWithSM.client1.ppp[0].queue incomingPacketLengths:histogram:sumweights 392
scalar ClientServerWithSM.client1.ppp[0].queue incomingPacketLengths:histogram:mean 2179.6734693877552
scalar ClientServerWithSM.client1.ppp[0].queue incomingPacketLengths:histogram:stddev 2127.6972785060016
scalar ClientServerWithSM.client1.ppp[0].queue incomingPacketLengths:histogram:min 320
scalar ClientServerWithSM.client1.ppp[0].queue incomingPacketLengths:histogram:max 4608
scalar ClientServerWithSM.client1.ppp[0].queue incomingPacketLengths:histogram:numbins 57
scalar ClientServerWithSM.client1.ppp[0].queue incomingPacketLengths:histogram:rangemin 0
scalar ClientServerWithSM.client1.ppp[0].queue incomingPacketLengths:histogram:rangemax 5700
scalar ClientServerWithSM.client1.ppp[0].queue incomingPacketLengths:histogram:underflows 0
scalar ClientServerWithSM.client1.ppp[0].queue incomingPacketLengths:histogram:overflows 0
scalar ClientServerWithSM.client1.app[0] endToEndDelay:histogram:count 210
scalar ClientServerWithSM.client1.app[0] endToEndDelay:histogram:sumweights 210
scalar ClientServerWithSM.client1.app[0] endToEndDelay:histogram:mean 0.33011641209825737
scalar ClientServerWithSM.client1.app[0] endToEndDelay:histogram:stddev 0.82275494347434153
scalar ClientServerWithSM.client1.app[0] endToEndDelay:histogram:min 0.00050409999999999995
scalar ClientServerWithSM.client1.app[0] endToEndDelay:histogram:max 4.0790674999999998
scalar ClientServerWithSM.client1.app[0] endToEndDelay:histogram:numbins 68
scalar ClientServerWithSM.client1.app[0] endToEndDelay:histogram:rangemin 0
scalar ClientServerWithSM.client1.app[0] endToEndDelay:histogram:rangemax 4.0799999999999992
scalar ClientServerWithSM.client1.app[0] endToEndDelay:histogram:underflows 0
scalar ClientServerWithSM.client1.app[0] endToEndDelay:histogram:overflows 0
scalar ClientServerWithSM.client1.app[0] endToEndDelay:weightedHistogram:count 210
scalar ClientServerWithSM.client1.app[0] endToEndDelay:weightedHistogram:sumweights 900480
scalar ClientServerWithSM.client1.app[0] endToEndDelay:weightedHistogram:mean 0.33011641209825698
scalar ClientServerWithSM.client1.app[0] endToEndDelay:weightedHistogram:stddev 0.82275494347434142
scalar ClientServerWithSM.client1.app[0] endToEndDelay:weightedHistogram:min 0.00050409999999999995
scalar ClientServerWithSM.client1.app[0] endToEndDelay:weightedHistogram:max 4.0790674999999998
scalar ClientServerWithSM.client1.app[0] endToEndDelay:weightedHistogram:numbins 68
scalar ClientServerWithSM.client1.app[0] endToEndDelay:weightedHistogram:rangemin 0
scalar ClientServerWithSM.client1.app[0] endToEndDelay:weightedHistogram:rangemax 4.0799999999999992
scalar ClientServerWithSM.client1.app[0] endToEndDelay:weightedHistogram:underflows 0
scalar ClientServerWithSM.client1.app[0] endToEndDelay:weightedHistogram:overflows 0
scalar ClientServerWithSM.server.ppp[0].queue queueingTime:histogram:count 373
scalar ClientServerWithSM.server.ppp[0].queue queueingTime:histogram:sumweights 373
scalar ClientServerWithSM.server.ppp[0].queue queueingTime:histogram:mean 0.0012497864407050947
scalar ClientServerWithSM.server.ppp[0].queue queueingTime:histogram:stddev 0.0012158731530369652
scalar ClientServerWithSM.server.ppp[0].queue queueingTime:histogram:min 0
scalar ClientServerWithSM.server.ppp[0].queue queueingTime:histogram:max 0.0046261999999999996
scalar ClientServerWithSM.server.ppp[0].queue queueingTime:histogram:numbins 47
scalar ClientServerWithSM.server.ppp[0].queue queueingTime:histogram:rangemin 0
scalar ClientServerWithSM.server.ppp[0].queue queueingTime:histogram:rangemax 0.0047000000000000002
scalar ClientServerWithSM.server.ppp[0].queue queueingTime:histogram:underflows 0
scalar ClientServerWithSM.server.ppp[0].queue queueingTime:histogram:overflows 0
scalar ClientServerWithSM.server.ppp[0].queue outgoingPacketLengths:histogram:count 373
scalar ClientServerWithSM.server.ppp[0].queue outgoingPacketLengths:histogram:sumweights 373
scalar ClientServerWithSM.server.ppp[0].queue outgoingPacketLengths:histogram:mean 2849.201072386059
scalar ClientServerWithSM.server.ppp[0].queue outgoingPacketLengths:histogram:stddev 2111.8588903859254
scalar ClientServerWithSM.server.ppp[0].queue outgoingPacketLengths:histogram:min 320
scalar ClientServerWithSM.server.ppp[0].queue outgoingPacketLengths:histogram:max 4608
scalar ClientServerWithSM.server.ppp[0].queue outgoingPacketLengths:histogram:numbins 57
scalar ClientServerWithSM.server.ppp[0].queue outgoingPacketLengths:histogram:rangemin 0
scalar ClientServerWithSM.server.ppp[0].queue outgoingPacketLengths:histogram:rangemax 5700
scalar ClientServerWithSM.server.ppp[0].queue outgoingPacketLengths:histogram:underflows 0
scalar ClientServerWithSM.server.ppp[0].queue outgoingPacketLengths:histogram:overflows 0
scalar ClientServerWithSM.server.ppp[0].queue flowQueueingTime:histogram:count 0
scalar ClientServerWithSM.server.ppp[0].queue flowQueueingTime:histogram:sumweights 0
scalar ClientServerWithSM.server.ppp[0].queue flowQueueingTime:histogram:mean -nan
scalar ClientServerWithSM.server.ppp[0].queue flowQueueingTime:histogram:stddev nan
scalar ClientServerWithSM.server.ppp[0].queue flowQueueingTime:histogram:min nan
scalar ClientServerWithSM.server.ppp[0].queue flowQueueingTime:histogram:max nan
scalar ClientServerWithSM.server.ppp[0].queue flowQueueingTime:histogram:numbins 1
scalar ClientServerWithSM.server.ppp[0].queue flowQueueingTime:histogram:rangemin 0
scalar ClientServerWithSM.server.ppp[0].queue flowQueueingTime:histogram:rangemax 1
scalar ClientServerWithSM.server.ppp[0].queue flowQueueingTime:histogram:underflows 0
scalar ClientServerWithSM.server.ppp[0].queue flowQueueingTime:histogram:overflows 0
scalar ClientServerWithSM.server.ppp[0].queue incomingPacketLengths:histogram:count 389
scalar ClientServerWithSM.server.ppp[0].queue incomingPacketLengths:histogram:sumweights 389
scalar ClientServerWithSM.server.ppp[0].queue incomingPacketLengths:histogram:mean 2921.542416452442
scalar ClientServerWithSM.server.ppp[0].queue incomingPacketLengths:histogram:stddev 2097.2237924071137
scalar ClientServerWithSM.server.ppp[0].queue incomingPacketLengths:histogram:min 320
scalar ClientServerWithSM.server.ppp[0].queue incomingPacketLengths:histogram:max 4608
scalar ClientServerWithSM.server.ppp[0].queue incomingPacketLengths:histogram:numbins 57
scalar ClientServerWithSM.server.ppp[0].queue incomingPacketLengths:histogram:rangemin 0
scalar ClientServerWithSM.server.ppp[0].queue incomingPacketLengths:histogram:rangemax 5700
scalar ClientServerWithSM.server.ppp[0].queue incomingPacketLengths:histogram:underflows 0
scalar ClientServerWithSM.server.ppp[0].queue incomingPacketLengths:histogram:overflows 0
scalar ClientServerWithSM.server.app[0].thread_5 endToEndDelay:histogram:count 145
scalar ClientServerWithSM.server.app[0].thread_5 endToEndDelay:histogram:sumweights 145
scalar ClientServerWithSM.server.app[0].thread_5 endToEndDelay:histogram:mean 2.7157834683919724
scalar ClientServerWithSM.server.app[0].thread_5 endToEndDelay:histogram:stddev 1.8196748831289304
scalar ClientServerWithSM.server.app[0].thread_5 endToEndDelay:histogram:min 0.00046650000000000001
scalar ClientServerWithSM.server.app[0].thread_5 endToEndDelay:histogram:max 9.1699225810860003
scalar ClientServerWithSM.server.app[0].thread_5 endToEndDelay:histogram:numbins 58
scalar ClientServerWithSM.server.app[0].thread_5 endToEndDelay:histogram:rangemin 0
scalar ClientServerWithSM.server.app[0].thread_5 endToEndDelay:histogram:rangemax 11.600000000000001
scalar ClientServerWithSM.server.app[0].thread_5 endToEndDelay:histogram:underflows 0
scalar ClientServerWithSM.server.app[0].thread_5 endToEndDelay:histogram:overflows 0
scalar ClientServerWithSM.server.app[0].thread_5 endToEndDelay:weightedHistogram:count 145
scalar ClientServerWithSM.server.app[0].thread_5 endToEndDelay:weightedHistogram:sumweights 621760
scalar ClientServerWithSM.server.app[0].thread_5 endToEndDelay:weightedHistogram:mean 2.7157834683919737
scalar ClientServerWithSM.server.app[0].thread_5 endToEndDelay:weightedHistogram:stddev 1.8196748831289262
scalar ClientServerWithSM.server.app[0].thread_5 endToEndDelay:weightedHistogram:min 0.00046650000000000001
scalar ClientServerWithSM.server.app[0].thread_5 endToEndDelay:weightedHistogram:max 9.1699225810860003
scalar ClientServerWithSM.server.app[0].thread_5 endToEndDelay:weightedHistogram:numbins 58
scalar ClientServerWithSM.server.app[0].thread_5 endToEndDelay:weightedHistogram:rangemin 0
scalar ClientServerWithSM.server.app[0].thread_5 endToEndDelay:weightedHistogram:rangemax 11.600000000000001
scalar ClientServerWithSM.server.app[0].thread_5 endToEndDelay:weightedHistogram:underflows 0
scalar ClientServerWithSM.server.app[0].thread_5 endToEndDelay:weightedHistogram:overflows 0
scalar ClientServerWithSM.server.app[0] endToEndDelay:histogram:count 145
scalar ClientServerWithSM.server.app[0] endToEndDelay:histogram:sumweights 145
scalar ClientServerWithSM.server.app[0] endToEndDelay:histogram:mean 2.7157834683919724
scalar ClientServerWithSM.server.app[0] endToEndDelay:histogram:stddev 1.8196748831289304
scalar ClientServerWithSM.server.app[0] endToEndDelay:histogram:min 0.00046650000000000001
scalar ClientServerWithSM.server.app[0] endToEndDelay:histogram:max 9.1699225810860003
scalar ClientServerWithSM.server.app[0] endToEndDelay:histogram:numbins 58
scalar ClientServerWithSM.server.app[0] endToEndDelay:histogram:rangemin 0
scalar ClientServerWithSM.server.app[0] endToEndDelay:histogram:rangemax 11.600000000000001
scalar ClientServerWithSM.server.app[0] endToEndDelay:histogram:underflows 0
scalar ClientServerWithSM.server.app[0] endToEndDelay:histogram:overflows 0
scalar ClientServerWithSM.server.app[0] endToEndDelay:weightedHistogram:count 145
scalar ClientServerWithSM.server.app[0] endToEndDelay:weightedHistogram:sumweights 621760
scalar ClientServerWithSM.server.app[0] endToEndDelay:weightedHistogram:mean 2.7157834683919737
scalar ClientServerWithSM.server.app[0] endToEndDelay:weightedHistogram:stddev 1.8196748831289262
scalar ClientServerWithSM.server.app[0] endToEndDelay:weightedHistogram:min 0.00046650000000000001
scalar ClientServerWithSM.server.app[0] endToEndDelay:weightedHistogram:max 9.1699225810860003
scalar ClientServerWithSM.server.app[0] endToEndDelay:weightedHistogram:numbins 58
scalar ClientServerWithSM.server.app[0] endToEndDelay:weightedHistogram:rangemin 0
scalar ClientServerWithSM.server.app[0] endToEndDelay:weightedHistogram:rangemax 11.600000000000001
scalar ClientServerWithSM.server.app[0] endToEndDelay:weightedHistogram:underflows 0
scalar ClientServerWithSM.server.app[0] endToEndDelay:weightedHistogram:overflows 0
statistic ClientServerWithSM.client1.ppp[0].queue queueingTime:histogram
field count 363
field mean 0.050677748760330592
field stddev 0.23906259911017808
field min 0
field max 1.5871622000000001
field sum 18.396022800000004
field sqrsum 21.620904339827277
bin	-inf	0
bin	0	346
bin	0.032000000000000001	1
bin	0.064000000000000001	0
bin	0.096000000000000002	0
bin	0.128	0
bin	0.16	0
bin	0.192	0
bin	0.224	0
bin	0.25600000000000001	0
bin	0.28800000000000003	0
bin	0.32000000000000001	0
bin	0.35200000000000004	0
bin	0.38400000000000001	0
bin	0.41600000000000004	0
bin	0.44800000000000001	1
bin	0.48000000000000004	1
bin	0.51200000000000001	1
bin	0.54400000000000004	0
bin	0.57600000000000007	0
bin	0.60799999999999998	0
bin	0.64000000000000001	0
bin	0.67200000000000004	0
bin	0.70399999999999996	0
bin	0.73599999999999999	0
bin	0.76800000000000002	0
bin	0.80000000000000004	0
bin	0.83200000000000007	0
bin	0.86399999999999999	0
bin	0.89600000000000002	0
bin	0.92799999999999994	1
bin	0.95999999999999996	1
bin	0.99199999999999999	2
bin	1.024	0
bin	1.056	2
bin	1.0880000000000001	0
bin	1.1200000000000001	1
bin	1.1520000000000001	0
bin	1.1839999999999999	0
bin	1.216	0
bin	1.248	0
bin	1.28	0
bin	1.3120000000000001	0
bin	1.3440000000000001	0
bin	1.3759999999999999	0
bin	1.4079999999999999	1
bin	1.4399999999999999	0
bin	1.472	3
bin	1.504	1
bin	1.536	0
bin	1.5680000000000001	1
bin	1.6000000000000001	0
statistic ClientServerWithSM.client1.ppp[0].queue outgoingPacketLengths:histogram
field count 363
field mean 2127.4269972451789
field stddev 2120.2508404813693
field min 320
field max 4608
field sum 772256
field sqrsum 3270276096
bin	-inf	0
bin	0	0
bin	100	0
bin	200	0
bin	300	210
bin	400	0
bin	500	0
bin	600	0
bin	700	0
bin	800	0
bin	900	0
bin	1000	0
bin	1100	0
bin	1200	0
bin	1300	0
bin	1400	0
bin	1500	0
bin	1600	0
bin	1700	0
bin	1800	0
bin	1900	0
bin	2000	0
bin	2100	0
bin	2200	0
bin	2300	0
bin	2400	0
bin	2500	0
bin	2600	0
bin	2700	0
bin	2800	0
bin	2900	0
bin	3000	0
bin	3100	0
bin	3200	0
bin	3300	0
bin	3400	0
bin	3500	0
bin	3600	0
bin	3700	0
bin	3800	0
bin	3900	0
bin	4000	0
bin	4100	0
bin	4200	0
bin	4300	0
bin	4400	0
bin	4500	0
bin	4600	153
bin	4700	0
bin	4800	0
bin	4900	0
bin	5000	0
bin	5100	0
bin	5200	0
bin	5300	0
bin	5400	0
bin	5500	0
bin	5600	0
bin	5700	0
statistic ClientServerWithSM.client1.ppp[0].queue flowQueueingTime:histogram
field count 0
field mean -nan
field stddev nan
field min nan
field max nan
field sum 0
field sqrsum 0
bin	-inf	0
bin	0	0
bin	1	0
statistic ClientServerWithSM.client1.ppp[0].queue incomingPacketLengths:histogram
field count 392
field mean 2179.6734693877552
field stddev 2127.6972785060016
field min 320
field max 4608
field sum 854432
field sqrsum 3632477184
bin	-inf	0
bin	0	0
bin	100	0
bin	200	0
bin	300	222
bin	400	0
bin	500	0
bin	600	0
bin	700	0
bin	800	0
bin	900	0
bin	1000	0
bin	1100	0
bin	1200	0
bin	1300	0
bin	1400	0
bin	1500	0
bin	1600	0
bin	1700	0
bin	1800	0
bin	1900	0
bin	2000	0
bin	2100	0
bin	2200	0
bin	2300	0
bin	2400	0
bin	2500	0
bin	2600	0
bin	2700	0
bin	2800	0
bin	2900	0
bin	3000	0
bin	3100	0
bin	3200	0
bin	3300	0
bin	3400	0
bin	3500	0
bin	3600	0
bin	3700	0
bin	3800	0
bin	3900	0
bin	4000	0
bin	4100	0
bin	4200	0
bin	4300	0
bin	4400	0
bin	4500	0
bin	4600	170
bin	4700	0
bin	4800	0
bin	4900	0
bin	5000	0
bin	5100	0
bin	5200	0
bin	5300	0
bin	5400	0
bin	5500	0
bin	5600	0
bin	5700	0
statistic ClientServerWithSM.client1.app[0] endToEndDelay:histogram
field count 210
field mean 0.33011641209825737
field stddev 0.82275494347434153
field min 0.00050409999999999995
field max 4.0790674999999998
field sum 69.324446540634042
field sqrsum 164.36260823808814
bin	-inf	0
bin	0	178
bin	0.059999999999999998	0
bin	0.12	0
bin	0.17999999999999999	0
bin	0.23999999999999999	0
bin	0.29999999999999999	0
bin	0.35999999999999999	0
bin	0.41999999999999998	0
bin	0.47999999999999998	0
bin	0.54000000000000004	0
bin	0.59999999999999998	0
bin	0.66000000000000003	0
bin	0.71999999999999997	0
bin	0.78000000000000003	0
bin	0.83999999999999997	0
bin	0.90000000000000002	0
bin	0.95999999999999996	1
bin	1.02	0
bin	1.0800000000000001	0
bin	1.1400000000000001	0
bin	1.2	0
bin	1.26	0
bin	1.3200000000000001	0
bin	1.3800000000000001	0
bin	1.4399999999999999	0
bin	1.5	14
bin	1.5600000000000001	7
bin	1.6200000000000001	0
bin	1.6799999999999999	0
bin	1.74	0
bin	1.8	0
bin	1.8600000000000001	0
bin	1.9199999999999999	0
bin	1.98	0
bin	2.04	0
bin	2.1000000000000001	0
bin	2.1600000000000001	0
bin	2.2199999999999998	0
bin	2.2799999999999998	0
bin	2.3399999999999999	0
bin	2.3999999999999999	0
bin	2.46	5
bin	2.52	0
bin	2.5800000000000001	0
bin	2.6400000000000001	0
bin	2.7000000000000002	0
bin	2.7599999999999998	0
bin	2.8199999999999998	0
bin	2.8799999999999999	0
bin	2.9399999999999999	0
bin	3	0
bin	3.0600000000000001	0
bin	3.1200000000000001	0
bin	3.1799999999999997	0
bin	3.2400000000000002	0
bin	3.2999999999999998	0
bin	3.3599999999999999	0
bin	3.4199999999999999	0
bin	3.48	0
bin	3.54	0
bin	3.6000000000000001	0
bin	3.6600000000000001	0
bin	3.7199999999999998	0
bin	3.7800000000000002	0
bin	3.8399999999999999	0
bin	3.8999999999999999	0
bin	3.96	2
bin	4.0199999999999996	3
bin	4.0799999999999992	0
statistic ClientServerWithSM.client1.app[0] endToEndDelay:weightedHistogram
field count 210
field mean 0.33011641209825698
field stddev 0.82275494347434142
field min 0.00050409999999999995
field max 4.0790674999999998
field weights 900480
field weightedSum 297263.22676623845
field sqrSumWeights 3861258240
field weightedSqrSum 704786.8641249215
bin	-inf	0
bin	0	763264
bin	0.059999999999999998	0
bin	0.12	0
bin	0.17999999999999999	0
bin	0.23999999999999999	0
bin	0.29999999999999999	0
bin	0.35999999999999999	0
bin	0.41999999999999998	0
bin	0.47999999999999998	0
bin	0.54000000000000004	0
bin	0.59999999999999998	0
bin	0.66000000000000003	0
bin	0.71999999999999997	0
bin	0.78000000000000003	0
bin	0.83999999999999997	0
bin	0.90000000000000002	0
bin	0.95999999999999996	4288
bin	1.02	0
bin	1.0800000000000001	0
bin	1.1400000000000001	0
bin	1.2	0
bin	1.26	0
bin	1.3200000000000001	0
bin	1.3800000000000001	0
bin	1.4399999999999999	0
bin	1.5	60032
bin	1.5600000000000001	30016
bin	1.6200000000000001	0
bin	1.6799999999999999	0
bin	1.74	0
bin	1.8	0
bin	1.8600000000000001	0
bin	1.9199999999999999	0
bin	1.98	0
bin	2.04	0
bin	2.1000000000000001	0
bin	2.1600000000000001	0
bin	2.2199999999999998	0
bin	2.2799999999999998	0
bin	2.3399999999999999	0
bin	2.3999999999999999	0
bin	2.46	21440
bin	2.52	0
bin	2.5800000000000001	0
bin	2.6400000000000001	0
bin	2.7000000000000002	0
bin	2.7599999999999998	0
bin	2.8199999999999998	0
bin	2.8799999999999999	0
bin	2.9399999999999999	0
bin	3	0
bin	3.0600000000000001	0
bin	3.1200000000000001	0
bin	3.1799999999999997	0
bin	3.2400000000000002	0
bin	3.2999999999999998	0
bin	3.3599999999999999	0
bin	3.4199999999999999	0
bin	3.48	0
bin	3.54	0
bin	3.6000000000000001	0
bin	3.6600000000000001	0
bin	3.7199999999999998	0
bin	3.7800000000000002	0
bin	3.8399999999999999	0
bin	3.8999999999999999	0
bin	3.96	8576
bin	4.0199999999999996	12864
bin	4.0799999999999992	0
statistic ClientServerWithSM.server.ppp[0].queue queueingTime:histogram
field count 373
field mean 0.0012497864407050947
field stddev 0.0012158731530369652
field min 0
field max 0.0046261999999999996
field sum 0.46617034238300031
field sqrsum 0.0011325586519998164
bin	-inf	0
bin	0	102
bin	0.0001	3
bin	0.00020000000000000001	5
bin	0.00030000000000000003	7
bin	0.00040000000000000002	25
bin	0.00050000000000000001	13
bin	0.00060000000000000006	6
bin	0.00069999999999999999	7
bin	0.00080000000000000004	11
bin	0.00090000000000000008	17
bin	0.001	5
bin	0.0011000000000000001	10
bin	0.0012000000000000001	1
bin	0.0013000000000000002	23
bin	0.0014	6
bin	0.0015	7
bin	0.0016000000000000001	8
bin	0.0017000000000000001	8
bin	0.0018000000000000002	8
bin	0.0019	7
bin	0.002	6
bin	0.0021000000000000003	3
bin	0.0022000000000000001	13
bin	0.0023	1
bin	0.0024000000000000002	8
bin	0.0025000000000000001	2
bin	0.0026000000000000003	3
bin	0.0027000000000000001	10
bin	0.0028	3
bin	0.0029000000000000002	5
bin	0.0030000000000000001	0
bin	0.0031000000000000003	2
bin	0.0032000000000000002	9
bin	0.0033	3
bin	0.0034000000000000002	0
bin	0.0035000000000000001	0
bin	0.0036000000000000003	11
bin	0.0037000000000000002	1
bin	0.0038	0
bin	0.0039000000000000003	0
bin	0.0040000000000000001	0
bin	0.0041000000000000003	11
bin	0.0042000000000000006	1
bin	0.0043000000000000009	0
bin	0.0044000000000000003	0
bin	0.0045000000000000005	0
bin	0.0046000000000000008	2
bin	0.0047000000000000002	0
statistic ClientServerWithSM.server.ppp[0].queue outgoingPacketLengths:histogram
field count 373
field mean 2849.201072386059
field stddev 2111.8588903859254
field min 320
field max 4608
field sum 1062752
field sqrsum 4687094784
bin	-inf	0
bin	0	0
bin	100	0
bin	200	0
bin	300	153
bin	400	0
bin	500	0
bin	600	0
bin	700	0
bin	800	0
bin	900	0
bin	1000	0
bin	1100	0
bin	1200	0
bin	1300	0
bin	1400	0
bin	1500	0
bin	1600	0
bin	1700	0
bin	1800	0
bin	1900	0
bin	2000	0
bin	2100	0
bin	2200	0
bin	2300	0
bin	2400	0
bin	2500	0
bin	2600	0
bin	2700	0
bin	2800	0
bin	2900	0
bin	3000	0
bin	3100	0
bin	3200	0
bin	3300	0
bin	3400	0
bin	3500	0
bin	3600	0
bin	3700	0
bin	3800	0
bin	3900	0
bin	4000	0
bin	4100	0
bin	4200	0
bin	4300	0
bin	4400	0
bin	4500	0
bin	4600	220
bin	4700	0
bin	4800	0
bin	4900	0
bin	5000	0
bin	5100	0
bin	5200	0
bin	5300	0
bin	5400	0
bin	5500	0
bin	5600	0
bin	5700	0
statistic ClientServerWithSM.server.ppp[0].queue flowQueueingTime:histogram
field count 0
field mean -nan
field stddev nan
field min nan
field max nan
field sum 0
field sqrsum 0
bin	-inf	0
bin	0	0
bin	1	0
statistic ClientServerWithSM.server.ppp[0].queue incomingPacketLengths:histogram
field count 389
field mean 2921.542416452442
field stddev 2097.2237924071137
field min 320
field max 4608
field sum 1136480
field sqrsum 5026833408
bin	-inf	0
bin	0	0
bin	100	0
bin	200	0
bin	300	153
bin	400	0
bin	500	0
bin	600	0
bin	700	0
bin	800	0
bin	900	0
bin	1000	0
bin	1100	0
bin	1200	0
bin	1300	0
bin	1400	0
bin	1500	0
bin	1600	0
bin	1700	0
bin	1800	0
bin	1900	0
bin	2000	0
bin	2100	0
bin	2200	0
bin	2300	0
bin	2400	0
bin	2500	0
bin	2600	0
bin	2700	0
bin	2800	0
bin	2900	0
bin	3000	0
bin	3100	0
bin	3200	0
bin	3300	0
bin	3400	0
bin	3500	0
bin	3600	0
bin	3700	0
bin	3800	0
bin	3900	0
bin	4000	0
bin	4100	0
bin	4200	0
bin	4300	0
bin	4400	0
bin	4500	0
bin	4600	236
bin	4700	0
bin	4800	0
bin	4900	0
bin	5000	0
bin	5100	0
bin	5200	0
bin	5300	0
bin	5400	0
bin	5500	0
bin	5600	0
bin	5700	0
statistic ClientServerWithSM.server.app[0].thread_5 endToEndDelay:histogram
field count 145
field mean 2.7157834683919724
field stddev 1.8196748831289304
field min 0.00046650000000000001
field max 9.1699225810860003
field sum 393.788602916836
field sqrsum 1546.2597798045151
bin	-inf	0
bin	0	19
bin	0.20000000000000001	0
bin	0.40000000000000002	0
bin	0.60000000000000009	0
bin	0.80000000000000004	0
bin	1	0
bin	1.2000000000000002	0
bin	1.4000000000000001	45
bin	1.6000000000000001	0
bin	1.8	0
bin	2	0
bin	2.2000000000000002	0
bin	2.4000000000000004	8
bin	2.6000000000000001	6
bin	2.8000000000000003	0
bin	3	0
bin	3.2000000000000002	0
bin	3.4000000000000004	0
bin	3.6000000000000001	51
bin	3.8000000000000003	0
bin	4	0
bin	4.2000000000000002	0
bin	4.4000000000000004	0
bin	4.6000000000000005	0
bin	4.8000000000000007	0
bin	5	8
bin	5.2000000000000002	0
bin	5.4000000000000004	0
bin	5.6000000000000005	1
bin	5.8000000000000007	0
bin	6	1
bin	6.2000000000000002	0
bin	6.4000000000000004	0
bin	6.6000000000000005	1
bin	6.8000000000000007	0
bin	7	1
bin	7.2000000000000002	0
bin	7.4000000000000004	1
bin	7.6000000000000005	0
bin	7.8000000000000007	0
bin	8	1
bin	8.2000000000000011	0
bin	8.4000000000000004	0
bin	8.5999999999999996	1
bin	8.8000000000000007	0
bin	9	1
bin	9.2000000000000011	0
bin	9.4000000000000004	0
bin	9.6000000000000014	0
bin	9.8000000000000007	0
bin	10	0
bin	10.200000000000001	0
bin	10.4	0
bin	10.600000000000001	0
bin	10.800000000000001	0
bin	11	0
bin	11.200000000000001	0
bin	11.4	0
bin	11.600000000000001	0
statistic ClientServerWithSM.server.app[0].thread_5 endToEndDelay:weightedHistogram
field count 145
field mean 2.7157834683919737
field stddev 1.8196748831289262
field min 0.00046650000000000001
field max 9.1699225810860003
field weights 621760
field weightedSum 1688565.5293073936
field sqrSumWeights 2666106880
field weightedSqrSum 6630361.9358017566
bin	-inf	0
bin	0	81472
bin	0.20000000000000001	0
bin	0.40000000000000002	0
bin	0.60000000000000009	0
bin	0.80000000000000004	0
bin	1	0
bin	1.2000000000000002	0
bin	1.4000000000000001	192960
bin	1.6000000000000001	0
bin	1.8	0
bin	2	0
bin	2.2000000000000002	0
bin	2.4000000000000004	34304
bin	2.6000000000000001	25728
bin	2.8000000000000003	0
bin	3	0
bin	3.2000000000000002	0
bin	3.4000000000000004	0
bin	3.6000000000000001	218688
bin	3.8000000000000003	0
bin	4	0
bin	4.2000000000000002	0
bin	4.4000000000000004	0
bin	4.6000000000000005	0
bin	4.8000000000000007	0
bin	5	34304
bin	5.2000000000000002	0
bin	5.4000000000000004	0
bin	5.6000000000000005	4288
bin	5.8000000000000007	0
bin	6	4288
bin	6.2000000000000002	0
bin	6.4000000000000004	0
bin	6.6000000000000005	4288
bin	6.8000000000000007	0
bin	7	4288
bin	7.2000000000000002	0
bin	7.4000000000000004	4288
bin	7.6000000000000005	0
bin	7.8000000000000007	0
bin	8	4288
bin	8.2000000000000011	0
bin	8.4000000000000004	0
bin	8.5999999999999996	4288
bin	8.8000000000000007	0
bin	9	4288
bin	9.2000000000000011	0
bin	9.4000000000000004	0
bin	9.6000000000000014	0
bin	9.8000000000000007	0
bin	10	0
bin	10.200000000000001	0
bin	10.4	0
bin	10.600000000000001	0
bin	10.800000000000001	0
bin	11	0
bin	11.200000000000001	0
bin	11.4	0
bin	11.600000000000001	0
statistic ClientServerWithSM.server.app[0] endToEndDelay:histogram
field count 145
field mean 2.7157834683919724
field stddev 1.8196748831289304
field min 0.00046650000000000001
field max 9.1699225810860003
field sum 393.788602916836
field sqrsum 1546.2597798045151
bin	-inf	0
bin	0	19
bin	0.20000000000000001	0
bin	0.40000000000000002	0
bin	0.60000000000000009	0
bin	0.80000000000000004	0
bin	1	0
bin	1.2000000000000002	0
bin	1.4000000000000001	45
bin	1.6000000000000001	0
bin	1.8	0
bin	2	0
bin	2.2000000000000002	0
bin	2.4000000000000004	8
bin	2.6000000000000001	6
bin	2.8000000000000003	0
bin	3	0
bin	3.2000000000000002	0
bin	3.4000000000000004	0
bin	3.6000000000000001	51
bin	3.8000000000000003	0
bin	4	0
bin	4.2000000000000002	0
bin	4.4000000000000004	0
bin	4.6000000000000005	0
bin	4.8000000000000007	0
bin	5	8
bin	5.2000000000000002	0
bin	5.4000000000000004	0
bin	5.6000000000000005	1
bin	5.8000000000000007	0
bin	6	1
bin	6.2000000000000002	0
bin	6.4000000000000004	0
bin	6.6000000000000005	1
bin	6.8000000000000007	0
bin	7	1
bin	7.2000000000000002	0
bin	7.4000000000000004	1
bin	7.6000000000000005	0
bin	7.8000000000000007	0
bin	8	1
bin	8.2000000000000011	0
bin	8.4000000000000004	0
bin	8.5999999999999996	1
bin	8.8000000000000007	0
bin	9	1
bin	9.2000000000000011	0
bin	9.4000000000000004	0
bin	9.6000000000000014	0
bin	9.8000000000000007	0
bin	10	0
bin	10.200000000000001	0
bin	10.4	0
bin	10.600000000000001	0
bin	10.800000000000001	0
bin	11	0
bin	11.200000000000001	0
bin	11.4	0
bin	11.600000000000001	0
statistic ClientServerWithSM.server.app[0] endToEndDelay:weightedHistogram
field count 145
field mean 2.7157834683919737
field stddev 1.8196748831289262
field min 0.00046650000000000001
field max 9.1699225810860003
field weights 621760
field weightedSum 1688565.5293073936
field sqrSumWeights 2666106880
field weightedSqrSum 6630361.9358017566
bin	-inf	0
bin	0	81472
bin	0.20000000000000001	0
bin	0.40000000000000002	0
bin	0.60000000000000009	0
bin	0.80000000000000004	0
bin	1	0
bin	1.2000000000000002	0
bin	1.4000000000000001	192960
bin	1.6000000000000001	0
bin	1.8	0
bin	2	0
bin	2.2000000000000002	0
bin	2.4000000000000004	34304
bin	2.6000000000000001	25728
bin	2.8000000000000003	0
bin	3	0
bin	3.2000000000000002	0
bin	3.4000000000000004	0
bin	3.6000000000000001	218688
bin	3.8000000000000003	0
bin	4	0
bin	4.2000000000000002	0
bin	4.4000000000000004	0
bin	4.6000000000000005	0
bin	4.8000000000000007	0
bin	5	34304
bin	5.2000000000000002	0
bin	5.4000000000000004	0
bin	5.6000000000000005	4288
bin	5.8000000000000007	0
bin	6	4288
bin	6.2000000000000002	0
bin	6.4000000000000004	0
bin	6.6000000000000005	4288
bin	6.8000000000000007	0
bin	7	4288
bin	7.2000000000000002	0
bin	7.4000000000000004	4288
bin	7.6000000000000005	0
bin	7.8000000000000007	0
bin	8	4288
bin	8.2000000000000011	0
bin	8.4000000000000004	0
bin	8.5999999999999996	4288
bin	8.8000000000000007	0
bin	9	4288
bin	9.2000000000000011	0
bin	9.4000000000000004	0
bin	9.6000000000000014	0
bin	9.8000000000000007	0
bin	10	0
bin	10.200000000000001	0
bin	10.4	0
bin	10.600000000000001	0
bin	10.800000000000001	0
bin	11	0
bin	11.200000000000001	0
bin	11.4	0
bin	11.600000000000001	0
scalar ClientServerWithSM.client1.lo[0].lo rcvdPkFromHl:vector(packetBytes):count 0
scalar ClientServerWithSM.client1.lo[0].lo rcvdPkFromHl:vector(packetBytes):sum 0
scalar ClientServerWithSM.client1.lo[0].lo rcvdPkFromHl:vector(packetBytes):sumweights 0
scalar ClientServerWithSM.client1.lo[0].lo rcvdPkFromHl:vector(packetBytes):mean -nan
scalar ClientServerWithSM.client1.lo[0].lo rcvdPkFromHl:vector(packetBytes):stddev nan
scalar ClientServerWithSM.client1.lo[0].lo rcvdPkFromHl:vector(packetBytes):min inf
scalar ClientServerWithSM.client1.lo[0].lo rcvdPkFromHl:vector(packetBytes):max -inf
scalar ClientServerWithSM.client1.lo[0].lo rcvdPkFromHl:vector(packetBytes):starttime nan
scalar ClientServerWithSM.client1.lo[0].lo rcvdPkFromHl:vector(packetBytes):endtime nan
scalar ClientServerWithSM.client1.lo[0].lo passedUpPk:vector(packetBytes):count 0
scalar ClientServerWithSM.client1.lo[0].lo passedUpPk:vector(packetBytes):sum 0
scalar ClientServerWithSM.client1.lo[0].lo passedUpPk:vector(packetBytes):sumweights 0
scalar ClientServerWithSM.client1.lo[0].lo passedUpPk:vector(packetBytes):mean -nan
scalar ClientServerWithSM.client1.lo[0].lo passedUpPk:vector(packetBytes):stddev nan
scalar ClientServerWithSM.client1.lo[0].lo passedUpPk:vector(packetBytes):min inf
scalar ClientServerWithSM.client1.lo[0].lo passedUpPk:vector(packetBytes):max -inf
scalar ClientServerWithSM.client1.lo[0].lo passedUpPk:vector(packetBytes):starttime nan
scalar ClientServerWithSM.client1.lo[0].lo passedUpPk:vector(packetBytes):endtime nan
scalar ClientServerWithSM.client1.lo[0] packetDropInterfaceDown:vector(packetBytes):count 0
scalar ClientServerWithSM.client1.lo[0] packetDropInterfaceDown:vector(packetBytes):sum 0
scalar ClientServerWithSM.client1.lo[0] packetDropInterfaceDown:vector(packetBytes):sumweights 0
scalar ClientServerWithSM.client1.lo[0] packetDropInterfaceDown:vector(packetBytes):mean -nan
scalar ClientServerWithSM.client1.lo[0] packetDropInterfaceDown:vector(packetBytes):stddev nan
scalar ClientServerWithSM.client1.lo[0] packetDropInterfaceDown:vector(packetBytes):min inf
scalar ClientServerWithSM.client1.lo[0] packetDropInterfaceDown:vector(packetBytes):max -inf
scalar ClientServerWithSM.client1.lo[0] packetDropInterfaceDown:vector(packetBytes):starttime nan
scalar ClientServerWithSM.client1.lo[0] packetDropInterfaceDown:vector(packetBytes):endtime nan
scalar ClientServerWithSM.client1.lo[0] packetDropNoCarrier:vector(packetBytes):count 0
scalar ClientServerWithSM.client1.lo[0] packetDropNoCarrier:vector(packetBytes):sum 0
scalar ClientServerWithSM.client1.lo[0] packetDropNoCarrier:vector(packetBytes):sumweights 0
scalar ClientServerWithSM.client1.lo[0] packetDropNoCarrier:vector(packetBytes):mean -nan
scalar ClientServerWithSM.client1.lo[0] packetDropNoCarrier:vector(packetBytes):stddev nan
scalar ClientServerWithSM.client1.lo[0] packetDropNoCarrier:vector(packetBytes):min inf
scalar ClientServerWithSM.client1.lo[0] packetDropNoCarrier:vector(packetBytes):max -inf
scalar ClientServerWithSM.client1.lo[0] packetDropNoCarrier:vector(packetBytes):starttime nan
scalar ClientServerWithSM.client1.lo[0] packetDropNoCarrier:vector(packetBytes):endtime nan
scalar ClientServerWithSM.client1.ppp[0].queue queueLength:vector:count 651
scalar ClientServerWithSM.client1.ppp[0].queue queueLength:vector:sum 2751
scalar ClientServerWithSM.client1.ppp[0].queue queueLength:vector:sumweights 651
scalar ClientServerWithSM.client1.ppp[0].queue queueLength:vector:mean 4.225806451612903
scalar ClientServerWithSM.client1.ppp[0].queue queueLength:vector:stddev 3.239612144784501
scalar ClientServerWithSM.client1.ppp[0].queue queueLength:vector:min 0
scalar ClientServerWithSM.client1.ppp[0].queue queueLength:vector:max 10
scalar ClientServerWithSM.client1.ppp[0].queue queueLength:vector:starttime 0
scalar ClientServerWithSM.client1.ppp[0].queue queueLength:vector:endtime 9.5699602810860025
scalar ClientServerWithSM.client1.ppp[0].queue queueBitLength:vector:count 651
scalar ClientServerWithSM.client1.ppp[0].queue queueBitLength:vector:sum 6952128
scalar ClientServerWithSM.client1.ppp[0].queue queueBitLength:vector:sumweights 651
scalar ClientServerWithSM.client1.ppp[0].queue queueBitLength:vector:mean 10679.152073732719
scalar ClientServerWithSM.client1.ppp[0].queue queueBitLength:vector:stddev 9582.5885370647193
scalar ClientServerWithSM.client1.ppp[0].queue queueBitLength:vector:min 0
scalar ClientServerWithSM.client1.ppp[0].queue queueBitLength:vector:max 36864
scalar ClientServerWithSM.client1.ppp[0].queue queueBitLength:vector:starttime 0
scalar ClientServerWithSM.client1.ppp[0].queue queueBitLength:vector:endtime 9.5699602810860025
scalar ClientServerWithSM.client1.ppp[0].queue queueingTime:vector:count 363
scalar ClientServerWithSM.client1.ppp[0].queue queueingTime:vector:sum 18.396022800000004
scalar ClientServerWithSM.client1.ppp[0].queue queueingTime:vector:sumweights 363
scalar ClientServerWithSM.client1.ppp[0].queue queueingTime:vector:mean 0.050677748760330592
scalar ClientServerWithSM.client1.ppp[0].queue queueingTime:vector:stddev 0.23906259911017808
scalar ClientServerWithSM.client1.ppp[0].queue queueingTime:vector:min 0
scalar ClientServerWithSM.client1.ppp[0].queue queueingTime:vector:max 1.5871622000000001
scalar ClientServerWithSM.client1.ppp[0].queue queueingTime:vector:starttime 0.20000000000000001
scalar ClientServerWithSM.client1.ppp[0].queue queueingTime:vector:endtime 9.5699224810860013
scalar ClientServerWithSM.client1.ppp[0].queue incomingPacketLengths:vector:count 392
scalar ClientServerWithSM.client1.ppp[0].queue incomingPacketLengths:vector:sum 854432
scalar ClientServerWithSM.client1.ppp[0].queue incomingPacketLengths:vector:sumweights 392
scalar ClientServerWithSM.client1.ppp[0].queue incomingPacketLengths:vector:mean 2179.6734693877552
scalar ClientServerWithSM.client1.ppp[0].queue incomingPacketLengths:vector:stddev 2127.6972785060016
scalar ClientServerWithSM.client1.ppp[0].queue incomingPacketLengths:vector:min 320
scalar ClientServerWithSM.client1.ppp[0].queue incomingPacketLengths:vector:max 4608
scalar ClientServerWithSM.client1.ppp[0].queue incomingPacketLengths:vector:starttime 0.20000000000000001
scalar ClientServerWithSM.client1.ppp[0].queue incomingPacketLengths:vector:endtime 9.5699602810860025
scalar ClientServerWithSM.client1.ppp[0].queue incomingDataRate:vector:count 101
scalar ClientServerWithSM.client1.ppp[0].queue incomingDataRate:vector:sum 9594201.0578142218
scalar ClientServerWithSM.client1.ppp[0].queue incomingDataRate:vector:sumweights 101
scalar ClientServerWithSM.client1.ppp[0].queue incomingDataRate:vector:mean 94992.089681328929
scalar ClientServerWithSM.client1.ppp[0].queue incomingDataRate:vector:stddev 474350.11989659682
scalar ClientServerWithSM.client1.ppp[0].queue incomingDataRate:vector:min 0
scalar ClientServerWithSM.client1.ppp[0].queue incomingDataRate:vector:max 3480097.988420465
scalar ClientServerWithSM.client1.ppp[0].queue incomingDataRate:vector:starttime 0.10000000000000001
scalar ClientServerWithSM.client1.ppp[0].queue incomingDataRate:vector:endtime 10
scalar ClientServerWithSM.client1.ppp[0].queue outgoingPacketLengths:vector:count 363
scalar ClientServerWithSM.client1.ppp[0].queue outgoingPacketLengths:vector:sum 772256
scalar ClientServerWithSM.client1.ppp[0].queue outgoingPacketLengths:vector:sumweights 363
scalar ClientServerWithSM.client1.ppp[0].queue outgoingPacketLengths:vector:mean 2127.4269972451789
scalar ClientServerWithSM.client1.ppp[0].queue outgoingPacketLengths:vector:stddev 2120.2508404813693
scalar ClientServerWithSM.client1.ppp[0].queue outgoingPacketLengths:vector:min 320
scalar ClientServerWithSM.client1.ppp[0].queue outgoingPacketLengths:vector:max 4608
scalar ClientServerWithSM.client1.ppp[0].queue outgoingPacketLengths:vector:starttime 0.20000000000000001
scalar ClientServerWithSM.client1.ppp[0].queue outgoingPacketLengths:vector:endtime 9.5699224810860013
scalar ClientServerWithSM.client1.ppp[0].queue outgoingDataRate:vector:count 101
scalar ClientServerWithSM.client1.ppp[0].queue outgoingDataRate:vector:sum 8601254.5154552273
scalar ClientServerWithSM.client1.ppp[0].queue outgoingDataRate:vector:sumweights 101
scalar ClientServerWithSM.client1.ppp[0].queue outgoingDataRate:vector:mean 85160.935796586404
scalar ClientServerWithSM.client1.ppp[0].queue outgoingDataRate:vector:stddev 441308.12430238124
scalar ClientServerWithSM.client1.ppp[0].queue outgoingDataRate:vector:min 0
scalar ClientServerWithSM.client1.ppp[0].queue outgoingDataRate:vector:max 3325513.3253424405
scalar ClientServerWithSM.client1.ppp[0].queue outgoingDataRate:vector:starttime 0.10000000000000001
scalar ClientServerWithSM.client1.ppp[0].queue outgoingDataRate:vector:endtime 10
scalar ClientServerWithSM.client1.ppp[0].queue droppedPacketLengthsQueueOverflow:vector:count 20
scalar ClientServerWithSM.client1.ppp[0].queue droppedPacketLengthsQueueOverflow:vector:sum 66432
scalar ClientServerWithSM.client1.ppp[0].queue droppedPacketLengthsQueueOverflow:vector:sumweights 20
scalar ClientServerWithSM.client1.ppp[0].queue droppedPacketLengthsQueueOverflow:vector:mean 3321.5999999999999
scalar ClientServerWithSM.client1.ppp[0].queue droppedPacketLengthsQueueOverflow:vector:stddev 2016.0561395692177
scalar ClientServerWithSM.client1.ppp[0].queue droppedPacketLengthsQueueOverflow:vector:min 320
scalar ClientServerWithSM.client1.ppp[0].queue droppedPacketLengthsQueueOverflow:vector:max 4608
scalar ClientServerWithSM.client1.ppp[0].queue droppedPacketLengthsQueueOverflow:vector:starttime 0.40531880000000009
scalar ClientServerWithSM.client1.ppp[0].queue droppedPacketLengthsQueueOverflow:vector:endtime 4.0646014810860009
scalar ClientServerWithSM.client1.ppp[0].queue flowQueueingTime:vector:count 0
scalar ClientServerWithSM.client1.ppp[0].queue flowQueueingTime:vector:sum 0
scalar ClientServerWithSM.client1.ppp[0].queue flowQueueingTime:vector:sumweights 0
scalar ClientServerWithSM.client1.ppp[0].queue flowQueueingTime:vector:mean -nan
scalar ClientServerWithSM.client1.ppp[0].queue flowQueueingTime:vector:stddev nan
scalar ClientServerWithSM.client1.ppp[0].queue flowQueueingTime:vector:min inf
scalar ClientServerWithSM.client1.ppp[0].queue flowQueueingTime:vector:max -inf
scalar ClientServerWithSM.client1.ppp[0].queue flowQueueingTime:vector:starttime nan
scalar ClientServerWithSM.client1.ppp[0].queue flowQueueingTime:vector:endtime nan
scalar ClientServerWithSM.client1.ppp[0].queue flowIncomingDataRate:vector:count 100
scalar ClientServerWithSM.client1.ppp[0].queue flowIncomingDataRate:vector:sum 0
scalar ClientServerWithSM.client1.ppp[0].queue flowIncomingDataRate:vector:sumweights 100
scalar ClientServerWithSM.client1.ppp[0].queue flowIncomingDataRate:vector:mean 0
scalar ClientServerWithSM.client1.ppp[0].queue flowIncomingDataRate:vector:stddev 0
scalar ClientServerWithSM.client1.ppp[0].queue flowIncomingDataRate:vector:min 0
scalar ClientServerWithSM.client1.ppp[0].queue flowIncomingDataRate:vector:max 0
scalar ClientServerWithSM.client1.ppp[0].queue flowIncomingDataRate:vector:starttime 0.10000000000000001
scalar ClientServerWithSM.client1.ppp[0].queue flowIncomingDataRate:vector:endtime 10
scalar ClientServerWithSM.client1.ppp[0].queue flowOutgoingDataRate:vector:count 100
scalar ClientServerWithSM.client1.ppp[0].queue flowOutgoingDataRate:vector:sum 0
scalar ClientServerWithSM.client1.ppp[0].queue flowOutgoingDataRate:vector:sumweights 100
scalar ClientServerWithSM.client1.ppp[0].queue flowOutgoingDataRate:vector:mean 0
scalar ClientServerWithSM.client1.ppp[0].queue flowOutgoingDataRate:vector:stddev 0
scalar ClientServerWithSM.client1.ppp[0].queue flowOutgoingDataRate:vector:min 0
scalar ClientServerWithSM.client1.ppp[0].queue flowOutgoingDataRate:vector:max 0
scalar ClientServerWithSM.client1.ppp[0].queue flowOutgoingDataRate:vector:starttime 0.10000000000000001
scalar ClientServerWithSM.client1.ppp[0].queue flowOutgoingDataRate:vector:endtime 10
scalar ClientServerWithSM.client1.ppp[0].ppp transmissionState:vector:count 726
scalar ClientServerWithSM.client1.ppp[0].ppp transmissionState:vector:sum 363
scalar ClientServerWithSM.client1.ppp[0].ppp transmissionState:vector:sumweights 726
scalar ClientServerWithSM.client1.ppp[0].ppp transmissionState:vector:mean 0.5
scalar ClientServerWithSM.client1.ppp[0].ppp transmissionState:vector:stddev 0.50034470876207626
scalar ClientServerWithSM.client1.ppp[0].ppp transmissionState:vector:min 0
scalar ClientServerWithSM.client1.ppp[0].ppp transmissionState:vector:max 1
scalar ClientServerWithSM.client1.ppp[0].ppp transmissionState:vector:starttime 0
scalar ClientServerWithSM.client1.ppp[0].ppp transmissionState:vector:endtime 9.5699224810860013
scalar ClientServerWithSM.client1.ppp[0].ppp txPk:vector(packetBytes):count 363
scalar ClientServerWithSM.client1.ppp[0].ppp txPk:vector(packetBytes):sum 99073
scalar ClientServerWithSM.client1.ppp[0].ppp txPk:vector(packetBytes):sumweights 363
scalar ClientServerWithSM.client1.ppp[0].ppp txPk:vector(packetBytes):mean 272.92837465564736
scalar ClientServerWithSM.client1.ppp[0].ppp txPk:vector(packetBytes):stddev 265.03135506017117
scalar ClientServerWithSM.client1.ppp[0].ppp txPk:vector(packetBytes):min 47
scalar ClientServerWithSM.client1.ppp[0].ppp txPk:vector(packetBytes):max 583
scalar ClientServerWithSM.client1.ppp[0].ppp txPk:vector(packetBytes):starttime 0.20000000000000001
scalar ClientServerWithSM.client1.ppp[0].ppp txPk:vector(packetBytes):endtime 9.5699224810860013
scalar ClientServerWithSM.client1.ppp[0].ppp rxPkOk:vector(packetBytes):count 373
scalar ClientServerWithSM.client1.ppp[0].ppp rxPkOk:vector(packetBytes):sum 135455
scalar ClientServerWithSM.client1.ppp[0].ppp rxPkOk:vector(packetBytes):sumweights 373
scalar ClientServerWithSM.client1.ppp[0].ppp rxPkOk:vector(packetBytes):mean 363.15013404825737
scalar ClientServerWithSM.client1.ppp[0].ppp rxPkOk:vector(packetBytes):stddev 263.98236129824068
scalar ClientServerWithSM.client1.ppp[0].ppp rxPkOk:vector(packetBytes):min 47
scalar ClientServerWithSM.client1.ppp[0].ppp rxPkOk:vector(packetBytes):max 583
scalar ClientServerWithSM.client1.ppp[0].ppp rxPkOk:vector(packetBytes):starttime 0.20008180000000003
scalar ClientServerWithSM.client1.ppp[0].ppp rxPkOk:vector(packetBytes):endtime 9.5699602810860025
scalar ClientServerWithSM.client1.ppp[0].ppp packetDropIncorrectlyReceived:vector(packetBytes):count 0
scalar ClientServerWithSM.client1.ppp[0].ppp packetDropIncorrectlyReceived:vector(packetBytes):sum 0
scalar ClientServerWithSM.client1.ppp[0].ppp packetDropIncorrectlyReceived:vector(packetBytes):sumweights 0
scalar ClientServerWithSM.client1.ppp[0].ppp packetDropIncorrectlyReceived:vector(packetBytes):mean -nan
scalar ClientServerWithSM.client1.ppp[0].ppp packetDropIncorrectlyReceived:vector(packetBytes):stddev nan
scalar ClientServerWithSM.client1.ppp[0].ppp packetDropIncorrectlyReceived:vector(packetBytes):min inf
scalar ClientServerWithSM.client1.ppp[0].ppp packetDropIncorrectlyReceived:vector(packetBytes):max -inf
scalar ClientServerWithSM.client1.ppp[0].ppp packetDropIncorrectlyReceived:vector(packetBytes):starttime nan
scalar ClientServerWithSM.client1.ppp[0].ppp packetDropIncorrectlyReceived:vector(packetBytes):endtime nan
scalar ClientServerWithSM.client1.ppp[0].ppp packetDropInterfaceDown:vector(packetBytes):count 0
scalar ClientServerWithSM.client1.ppp[0].ppp packetDropInterfaceDown:vector(packetBytes):sum 0
scalar ClientServerWithSM.client1.ppp[0].ppp packetDropInterfaceDown:vector(packetBytes):sumweights 0
scalar ClientServerWithSM.client1.ppp[0].ppp packetDropInterfaceDown:vector(packetBytes):mean -nan
scalar ClientServerWithSM.client1.ppp[0].ppp packetDropInterfaceDown:vector(packetBytes):stddev nan
scalar ClientServerWithSM.client1.ppp[0].ppp packetDropInterfaceDown:vector(packetBytes):min inf
scalar ClientServerWithSM.client1.ppp[0].ppp packetDropInterfaceDown:vector(packetBytes):max -inf
scalar ClientServerWithSM.client1.ppp[0].ppp packetDropInterfaceDown:vector(packetBytes):starttime nan
scalar ClientServerWithSM.client1.ppp[0].ppp packetDropInterfaceDown:vector(packetBytes):endtime nan
scalar ClientServerWithSM.client1.ppp[0].ppp rcvdPkFromHl:vector(packetBytes):count 363
scalar ClientServerWithSM.client1.ppp[0].ppp rcvdPkFromHl:vector(packetBytes):sum 96532
scalar ClientServerWithSM.client1.ppp[0].ppp rcvdPkFromHl:vector(packetBytes):sumweights 363
scalar ClientServerWithSM.client1.ppp[0].ppp rcvdPkFromHl:vector(packetBytes):mean 265.92837465564736
scalar ClientServerWithSM.client1.ppp[0].ppp rcvdPkFromHl:vector(packetBytes):stddev 265.03135506017117
scalar ClientServerWithSM.client1.ppp[0].ppp rcvdPkFromHl:vector(packetBytes):min 40
scalar ClientServerWithSM.client1.ppp[0].ppp rcvdPkFromHl:vector(packetBytes):max 576
scalar ClientServerWithSM.client1.ppp[0].ppp rcvdPkFromHl:vector(packetBytes):starttime 0.20000000000000001
scalar ClientServerWithSM.client1.ppp[0].ppp rcvdPkFromHl:vector(packetBytes):endtime 9.5699224810860013
scalar ClientServerWithSM.client1.ppp[0].ppp passedUpPk:vector(packetBytes):count 373
scalar ClientServerWithSM.client1.ppp[0].ppp passedUpPk:vector(packetBytes):sum 132844
scalar ClientServerWithSM.client1.ppp[0].ppp passedUpPk:vector(packetBytes):sumweights 373
scalar ClientServerWithSM.client1.ppp[0].ppp passedUpPk:vector(packetBytes):mean 356.15013404825737
scalar ClientServerWithSM.client1.ppp[0].ppp passedUpPk:vector(packetBytes):stddev 263.98236129824068
scalar ClientServerWithSM.client1.ppp[0].ppp passedUpPk:vector(packetBytes):min 40
scalar ClientServerWithSM.client1.ppp[0].ppp passedUpPk:vector(packetBytes):max 576
scalar ClientServerWithSM.client1.ppp[0].ppp passedUpPk:vector(packetBytes):starttime 0.20008180000000003
scalar ClientServerWithSM.client1.ppp[0].ppp passedUpPk:vector(packetBytes):endtime 9.5699602810860025
scalar ClientServerWithSM.client1.ppp[0] packetDropInterfaceDown:vector(packetBytes):count 0
scalar ClientServerWithSM.client1.ppp[0] packetDropInterfaceDown:vector(packetBytes):sum 0
scalar ClientServerWithSM.client1.ppp[0] packetDropInterfaceDown:vector(packetBytes):sumweights 0
scalar ClientServerWithSM.client1.ppp[0] packetDropInterfaceDown:vector(packetBytes):mean -nan
scalar ClientServerWithSM.client1.ppp[0] packetDropInterfaceDown:vector(packetBytes):stddev nan
scalar ClientServerWithSM.client1.ppp[0] packetDropInterfaceDown:vector(packetBytes):min inf
scalar ClientServerWithSM.client1.ppp[0] packetDropInterfaceDown:vector(packetBytes):max -inf
scalar ClientServerWithSM.client1.ppp[0] packetDropInterfaceDown:vector(packetBytes):starttime nan
scalar ClientServerWithSM.client1.ppp[0] packetDropInterfaceDown:vector(packetBytes):endtime nan
scalar ClientServerWithSM.client1.ppp[0] packetDropNoCarrier:vector(packetBytes):count 0
scalar ClientServerWithSM.client1.ppp[0] packetDropNoCarrier:vector(packetBytes):sum 0
scalar ClientServerWithSM.client1.ppp[0] packetDropNoCarrier:vector(packetBytes):sumweights 0
scalar ClientServerWithSM.client1.ppp[0] packetDropNoCarrier:vector(packetBytes):mean -nan
scalar ClientServerWithSM.client1.ppp[0] packetDropNoCarrier:vector(packetBytes):stddev nan
scalar ClientServerWithSM.client1.ppp[0] packetDropNoCarrier:vector(packetBytes):min inf
scalar ClientServerWithSM.client1.ppp[0] packetDropNoCarrier:vector(packetBytes):max -inf
scalar ClientServerWithSM.client1.ppp[0] packetDropNoCarrier:vector(packetBytes):starttime nan
scalar ClientServerWithSM.client1.ppp[0] packetDropNoCarrier:vector(packetBytes):endtime nan
scalar ClientServerWithSM.client1.ipv4.ip packetDropAddressResolutionFailed:vector(packetBytes):count 0
scalar ClientServerWithSM.client1.ipv4.ip packetDropAddressResolutionFailed:vector(packetBytes):sum 0
scalar ClientServerWithSM.client1.ipv4.ip packetDropAddressResolutionFailed:vector(packetBytes):sumweights 0
scalar ClientServerWithSM.client1.ipv4.ip packetDropAddressResolutionFailed:vector(packetBytes):mean -nan
scalar ClientServerWithSM.client1.ipv4.ip packetDropAddressResolutionFailed:vector(packetBytes):stddev nan
scalar ClientServerWithSM.client1.ipv4.ip packetDropAddressResolutionFailed:vector(packetBytes):min inf
scalar ClientServerWithSM.client1.ipv4.ip packetDropAddressResolutionFailed:vector(packetBytes):max -inf
scalar ClientServerWithSM.client1.ipv4.ip packetDropAddressResolutionFailed:vector(packetBytes):starttime nan
scalar ClientServerWithSM.client1.ipv4.ip packetDropAddressResolutionFailed:vector(packetBytes):endtime nan
scalar ClientServerWithSM.client1.ipv4.ip packetDropHopLimitReached:vector(packetBytes):count 0
scalar ClientServerWithSM.client1.ipv4.ip packetDropHopLimitReached:vector(packetBytes):sum 0
scalar ClientServerWithSM.client1.ipv4.ip packetDropHopLimitReached:vector(packetBytes):sumweights 0
scalar ClientServerWithSM.client1.ipv4.ip packetDropHopLimitReached:vector(packetBytes):mean -nan
scalar ClientServerWithSM.client1.ipv4.ip packetDropHopLimitReached:vector(packetBytes):stddev nan
scalar ClientServerWithSM.client1.ipv4.ip packetDropHopLimitReached:vector(packetBytes):min inf
scalar ClientServerWithSM.client1.ipv4.ip packetDropHopLimitReached:vector(packetBytes):max -inf
scalar ClientServerWithSM.client1.ipv4.ip packetDropHopLimitReached:vector(packetBytes):starttime nan
scalar ClientServerWithSM.client1.ipv4.ip packetDropHopLimitReached:vector(packetBytes):endtime nan
scalar ClientServerWithSM.client1.ipv4.ip packetDropForwardingDisabled:vector(packetBytes):count 0
scalar ClientServerWithSM.client1.ipv4.ip packetDropForwardingDisabled:vector(packetBytes):sum 0
scalar ClientServerWithSM.client1.ipv4.ip packetDropForwardingDisabled:vector(packetBytes):sumweights 0
scalar ClientServerWithSM.client1.ipv4.ip packetDropForwardingDisabled:vector(packetBytes):mean -nan
scalar ClientServerWithSM.client1.ipv4.ip packetDropForwardingDisabled:vector(packetBytes):stddev nan
scalar ClientServerWithSM.client1.ipv4.ip packetDropForwardingDisabled:vector(packetBytes):min inf
scalar ClientServerWithSM.client1.ipv4.ip packetDropForwardingDisabled:vector(packetBytes):max -inf
scalar ClientServerWithSM.client1.ipv4.ip packetDropForwardingDisabled:vector(packetBytes):starttime nan
scalar ClientServerWithSM.client1.ipv4.ip packetDropForwardingDisabled:vector(packetBytes):endtime nan
scalar ClientServerWithSM.client1.ipv4.ip packetDropLifetimeExpired:vector(packetBytes):count 0
scalar ClientServerWithSM.client1.ipv4.ip packetDropLifetimeExpired:vector(packetBytes):sum 0
scalar ClientServerWithSM.client1.ipv4.ip packetDropLifetimeExpired:vector(packetBytes):sumweights 0
scalar ClientServerWithSM.client1.ipv4.ip packetDropLifetimeExpired:vector(packetBytes):mean -nan
scalar ClientServerWithSM.client1.ipv4.ip packetDropLifetimeExpired:vector(packetBytes):stddev nan
scalar ClientServerWithSM.client1.ipv4.ip packetDropLifetimeExpired:vector(packetBytes):min inf
scalar ClientServerWithSM.client1.ipv4.ip packetDropLifetimeExpired:vector(packetBytes):max -inf
scalar ClientServerWithSM.client1.ipv4.ip packetDropLifetimeExpired:vector(packetBytes):starttime nan
scalar ClientServerWithSM.client1.ipv4.ip packetDropLifetimeExpired:vector(packetBytes):endtime nan
scalar ClientServerWithSM.client1.ipv4.ip packetDropNoInterfaceFound:vector(packetBytes):count 0
scalar ClientServerWithSM.client1.ipv4.ip packetDropNoInterfaceFound:vector(packetBytes):sum 0
scalar ClientServerWithSM.client1.ipv4.ip packetDropNoInterfaceFound:vector(packetBytes):sumweights 0
scalar ClientServerWithSM.client1.ipv4.ip packetDropNoInterfaceFound:vector(packetBytes):mean -nan
scalar ClientServerWithSM.client1.ipv4.ip packetDropNoInterfaceFound:vector(packetBytes):stddev nan
scalar ClientServerWithSM.client1.ipv4.ip packetDropNoInterfaceFound:vector(packetBytes):min inf
scalar ClientServerWithSM.client1.ipv4.ip packetDropNoInterfaceFound:vector(packetBytes):max -inf
scalar ClientServerWithSM.client1.ipv4.ip packetDropNoInterfaceFound:vector(packetBytes):starttime nan
scalar ClientServerWithSM.client1.ipv4.ip packetDropNoInterfaceFound:vector(packetBytes):endtime nan
scalar ClientServerWithSM.client1.ipv4.ip packetDropNoRouteFound:vector(packetBytes):count 0
scalar ClientServerWithSM.client1.ipv4.ip packetDropNoRouteFound:vector(packetBytes):sum 0
scalar ClientServerWithSM.client1.ipv4.ip packetDropNoRouteFound:vector(packetBytes):sumweights 0
scalar ClientServerWithSM.client1.ipv4.ip packetDropNoRouteFound:vector(packetBytes):mean -nan
scalar ClientServerWithSM.client1.ipv4.ip packetDropNoRouteFound:vector(packetBytes):stddev nan
scalar ClientServerWithSM.client1.ipv4.ip packetDropNoRouteFound:vector(packetBytes):min inf
scalar ClientServerWithSM.client1.ipv4.ip packetDropNoRouteFound:vector(packetBytes):max -inf
scalar ClientServerWithSM.client1.ipv4.ip packetDropNoRouteFound:vector(packetBytes):starttime nan
scalar ClientServerWithSM.client1.ipv4.ip packetDropNoRouteFound:vector(packetBytes):endtime nan
scalar ClientServerWithSM.client1.ipv4.ip packetDropUndefined:vector(packetBytes):count 0
scalar ClientServerWithSM.client1.ipv4.ip packetDropUndefined:vector(packetBytes):sum 0
scalar ClientServerWithSM.client1.ipv4.ip packetDropUndefined:vector(packetBytes):sumweights 0
scalar ClientServerWithSM.client1.ipv4.ip packetDropUndefined:vector(packetBytes):mean -nan
scalar ClientServerWithSM.client1.ipv4.ip packetDropUndefined:vector(packetBytes):stddev nan
scalar ClientServerWithSM.client1.ipv4.ip packetDropUndefined:vector(packetBytes):min inf
scalar ClientServerWithSM.client1.ipv4.ip packetDropUndefined:vector(packetBytes):max -inf
scalar ClientServerWithSM.client1.ipv4.ip packetDropUndefined:vector(packetBytes):starttime nan
scalar ClientServerWithSM.client1.ipv4.ip packetDropUndefined:vector(packetBytes):endtime nan
scalar ClientServerWithSM.client1.ipv4.arp arpRequestSent:vector(packetBytes):count 0
scalar ClientServerWithSM.client1.ipv4.arp arpRequestSent:vector(packetBytes):sum 0
scalar ClientServerWithSM.client1.ipv4.arp arpRequestSent:vector(packetBytes):sumweights 0
scalar ClientServerWithSM.client1.ipv4.arp arpRequestSent:vector(packetBytes):mean -nan
scalar ClientServerWithSM.client1.ipv4.arp arpRequestSent:vector(packetBytes):stddev nan
scalar ClientServerWithSM.client1.ipv4.arp arpRequestSent:vector(packetBytes):min inf
scalar ClientServerWithSM.client1.ipv4.arp arpRequestSent:vector(packetBytes):max -inf
scalar ClientServerWithSM.client1.ipv4.arp arpRequestSent:vector(packetBytes):starttime nan
scalar ClientServerWithSM.client1.ipv4.arp arpRequestSent:vector(packetBytes):endtime nan
scalar ClientServerWithSM.client1.ipv4.arp arpReplySent:vector(packetBytes):count 0
scalar ClientServerWithSM.client1.ipv4.arp arpReplySent:vector(packetBytes):sum 0
scalar ClientServerWithSM.client1.ipv4.arp arpReplySent:vector(packetBytes):sumweights 0
scalar ClientServerWithSM.client1.ipv4.arp arpReplySent:vector(packetBytes):mean -nan
scalar ClientServerWithSM.client1.ipv4.arp arpReplySent:vector(packetBytes):stddev nan
scalar ClientServerWithSM.client1.ipv4.arp arpReplySent:vector(packetBytes):min inf
scalar ClientServerWithSM.client1.ipv4.arp arpReplySent:vector(packetBytes):max -inf
scalar ClientServerWithSM.client1.ipv4.arp arpReplySent:vector(packetBytes):starttime nan
scalar ClientServerWithSM.client1.ipv4.arp arpReplySent:vector(packetBytes):endtime nan
scalar ClientServerWithSM.client1.udp packetSent:vector(packetBytes):count 0
scalar ClientServerWithSM.client1.udp packetSent:vector(packetBytes):sum 0
scalar ClientServerWithSM.client1.udp packetSent:vector(packetBytes):sumweights 0
scalar ClientServerWithSM.client1.udp packetSent:vector(packetBytes):mean -nan
scalar ClientServerWithSM.client1.udp packetSent:vector(packetBytes):stddev nan
scalar ClientServerWithSM.client1.udp packetSent:vector(packetBytes):min inf
scalar ClientServerWithSM.client1.udp packetSent:vector(packetBytes):max -inf
scalar ClientServerWithSM.client1.udp packetSent:vector(packetBytes):starttime nan
scalar ClientServerWithSM.client1.udp packetSent:vector(packetBytes):endtime nan
scalar ClientServerWithSM.client1.udp packetReceived:vector(packetBytes):count 0
scalar ClientServerWithSM.client1.udp packetReceived:vector(packetBytes):sum 0
scalar ClientServerWithSM.client1.udp packetReceived:vector(packetBytes):sumweights 0
scalar ClientServerWithSM.client1.udp packetReceived:vector(packetBytes):mean -nan
scalar ClientServerWithSM.client1.udp packetReceived:vector(packetBytes):stddev nan
scalar ClientServerWithSM.client1.udp packetReceived:vector(packetBytes):min inf
scalar ClientServerWithSM.client1.udp packetReceived:vector(packetBytes):max -inf
scalar ClientServerWithSM.client1.udp packetReceived:vector(packetBytes):starttime nan
scalar ClientServerWithSM.client1.udp packetReceived:vector(packetBytes):endtime nan
scalar ClientServerWithSM.client1.udp passedUpPk:vector(count):count 1
scalar ClientServerWithSM.client1.udp passedUpPk:vector(count):sum 0
scalar ClientServerWithSM.client1.udp passedUpPk:vector(count):sumweights 1
scalar ClientServerWithSM.client1.udp passedUpPk:vector(count):mean 0
scalar ClientServerWithSM.client1.udp passedUpPk:vector(count):stddev nan
scalar ClientServerWithSM.client1.udp passedUpPk:vector(count):min 0
scalar ClientServerWithSM.client1.udp passedUpPk:vector(count):max 0
scalar ClientServerWithSM.client1.udp passedUpPk:vector(count):starttime 0
scalar ClientServerWithSM.client1.udp passedUpPk:vector(count):endtime 0
scalar ClientServerWithSM.client1.udp droppedPkWrongPort:vector(count):count 1
scalar ClientServerWithSM.client1.udp droppedPkWrongPort:vector(count):sum 0
scalar ClientServerWithSM.client1.udp droppedPkWrongPort:vector(count):sumweights 1
scalar ClientServerWithSM.client1.udp droppedPkWrongPort:vector(count):mean 0
scalar ClientServerWithSM.client1.udp droppedPkWrongPort:vector(count):stddev nan
scalar ClientServerWithSM.client1.udp droppedPkWrongPort:vector(count):min 0
scalar ClientServerWithSM.client1.udp droppedPkWrongPort:vector(count):max 0
scalar ClientServerWithSM.client1.udp droppedPkWrongPort:vector(count):starttime 0
scalar ClientServerWithSM.client1.udp droppedPkWrongPort:vector(count):endtime 0
scalar ClientServerWithSM.client1.udp droppedPkBadChecksum:vector(count):count 1
scalar ClientServerWithSM.client1.udp droppedPkBadChecksum:vector(count):sum 0
scalar ClientServerWithSM.client1.udp droppedPkBadChecksum:vector(count):sumweights 1
scalar ClientServerWithSM.client1.udp droppedPkBadChecksum:vector(count):mean 0
scalar ClientServerWithSM.client1.udp droppedPkBadChecksum:vector(count):stddev nan
scalar ClientServerWithSM.client1.udp droppedPkBadChecksum:vector(count):min 0
scalar ClientServerWithSM.client1.udp droppedPkBadChecksum:vector(count):max 0
scalar ClientServerWithSM.client1.udp droppedPkBadChecksum:vector(count):starttime 0
scalar ClientServerWithSM.client1.udp droppedPkBadChecksum:vector(count):endtime 0
scalar ClientServerWithSM.client1.app[0] packetReceived:vector(packetBytes):count 195
scalar ClientServerWithSM.client1.app[0] packetReceived:vector(packetBytes):sum 112560
scalar ClientServerWithSM.client1.app[0] packetReceived:vector(packetBytes):sumweights 195
scalar ClientServerWithSM.client1.app[0] packetReceived:vector(packetBytes):mean 577.23076923076928
scalar ClientServerWithSM.client1.app[0] packetReceived:vector(packetBytes):stddev 343.86733697768807
scalar ClientServerWithSM.client1.app[0] packetReceived:vector(packetBytes):min 536
scalar ClientServerWithSM.client1.app[0] packetReceived:vector(packetBytes):max 4288
scalar ClientServerWithSM.client1.app[0] packetReceived:vector(packetBytes):starttime 0.40097060000000007
scalar ClientServerWithSM.client1.app[0] packetReceived:vector(packetBytes):endtime 8.1349882810860024
scalar ClientServerWithSM.client1.app[0] packetSent:vector(packetBytes):count 1
scalar ClientServerWithSM.client1.app[0] packetSent:vector(packetBytes):sum 2000000
scalar ClientServerWithSM.client1.app[0] packetSent:vector(packetBytes):sumweights 1
scalar ClientServerWithSM.client1.app[0] packetSent:vector(packetBytes):mean 2000000
scalar ClientServerWithSM.client1.app[0] packetSent:vector(packetBytes):stddev nan
scalar ClientServerWithSM.client1.app[0] packetSent:vector(packetBytes):min 2000000
scalar ClientServerWithSM.client1.app[0] packetSent:vector(packetBytes):max 2000000
scalar ClientServerWithSM.client1.app[0] packetSent:vector(packetBytes):starttime 0.40000000000000002
scalar ClientServerWithSM.client1.app[0] packetSent:vector(packetBytes):endtime 0.40000000000000002
scalar ClientServerWithSM.client1.app[0] endToEndDelay:vector:count 210
scalar ClientServerWithSM.client1.app[0] endToEndDelay:vector:sum 69.324446540634042
scalar ClientServerWithSM.client1.app[0] endToEndDelay:vector:sumweights 210
scalar ClientServerWithSM.client1.app[0] endToEndDelay:vector:mean 0.33011641209825737
scalar ClientServerWithSM.client1.app[0] endToEndDelay:vector:stddev 0.82275494347434153
scalar ClientServerWithSM.client1.app[0] endToEndDelay:vector:min 0.00050409999999999995
scalar ClientServerWithSM.client1.app[0] endToEndDelay:vector:max 4.0790674999999998
scalar ClientServerWithSM.client1.app[0] endToEndDelay:vector:starttime 0.40097060000000007
scalar ClientServerWithSM.client1.app[0] endToEndDelay:vector:endtime 8.1349882810860024
scalar ClientServerWithSM.server.lo[0].lo rcvdPkFromHl:vector(packetBytes):count 0
scalar ClientServerWithSM.server.lo[0].lo rcvdPkFromHl:vector(packetBytes):sum 0
scalar ClientServerWithSM.server.lo[0].lo rcvdPkFromHl:vector(packetBytes):sumweights 0
scalar ClientServerWithSM.server.lo[0].lo rcvdPkFromHl:vector(packetBytes):mean -nan
scalar ClientServerWithSM.server.lo[0].lo rcvdPkFromHl:vector(packetBytes):stddev nan
scalar ClientServerWithSM.server.lo[0].lo rcvdPkFromHl:vector(packetBytes):min inf
scalar ClientServerWithSM.server.lo[0].lo rcvdPkFromHl:vector(packetBytes):max -inf
scalar ClientServerWithSM.server.lo[0].lo rcvdPkFromHl:vector(packetBytes):starttime nan
scalar ClientServerWithSM.server.lo[0].lo rcvdPkFromHl:vector(packetBytes):endtime nan
scalar ClientServerWithSM.server.lo[0].lo passedUpPk:vector(packetBytes):count 0
scalar ClientServerWithSM.server.lo[0].lo passedUpPk:vector(packetBytes):sum 0
scalar ClientServerWithSM.server.lo[0].lo passedUpPk:vector(packetBytes):sumweights 0
scalar ClientServerWithSM.server.lo[0].lo passedUpPk:vector(packetBytes):mean -nan
scalar ClientServerWithSM.server.lo[0].lo passedUpPk:vector(packetBytes):stddev nan
scalar ClientServerWithSM.server.lo[0].lo passedUpPk:vector(packetBytes):min inf
scalar ClientServerWithSM.server.lo[0].lo passedUpPk:vector(packetBytes):max -inf
scalar ClientServerWithSM.server.lo[0].lo passedUpPk:vector(packetBytes):starttime nan
scalar ClientServerWithSM.server.lo[0].lo passedUpPk:vector(packetBytes):endtime nan
scalar ClientServerWithSM.server.lo[0] packetDropInterfaceDown:vector(packetBytes):count 0
scalar ClientServerWithSM.server.lo[0] packetDropInterfaceDown:vector(packetBytes):sum 0
scalar ClientServerWithSM.server.lo[0] packetDropInterfaceDown:vector(packetBytes):sumweights 0
scalar ClientServerWithSM.server.lo[0] packetDropInterfaceDown:vector(packetBytes):mean -nan
scalar ClientServerWithSM.server.lo[0] packetDropInterfaceDown:vector(packetBytes):stddev nan
scalar ClientServerWithSM.server.lo[0] packetDropInterfaceDown:vector(packetBytes):min inf
scalar ClientServerWithSM.server.lo[0] packetDropInterfaceDown:vector(packetBytes):max -inf
scalar ClientServerWithSM.server.lo[0] packetDropInterfaceDown:vector(packetBytes):starttime nan
scalar ClientServerWithSM.server.lo[0] packetDropInterfaceDown:vector(packetBytes):endtime nan
scalar ClientServerWithSM.server.lo[0] packetDropNoCarrier:vector(packetBytes):count 0
scalar ClientServerWithSM.server.lo[0] packetDropNoCarrier:vector(packetBytes):sum 0
scalar ClientServerWithSM.server.lo[0] packetDropNoCarrier:vector(packetBytes):sumweights 0
scalar ClientServerWithSM.server.lo[0] packetDropNoCarrier:vector(packetBytes):mean -nan
scalar ClientServerWithSM.server.lo[0] packetDropNoCarrier:vector(packetBytes):stddev nan
scalar ClientServerWithSM.server.lo[0] packetDropNoCarrier:vector(packetBytes):min inf
scalar ClientServerWithSM.server.lo[0] packetDropNoCarrier:vector(packetBytes):max -inf
scalar ClientServerWithSM.server.lo[0] packetDropNoCarrier:vector(packetBytes):starttime nan
scalar ClientServerWithSM.server.lo[0] packetDropNoCarrier:vector(packetBytes):endtime nan
scalar ClientServerWithSM.server.ppp[0].queue queueLength:vector:count 686
scalar ClientServerWithSM.server.ppp[0].queue queueLength:vector:sum 2802
scalar ClientServerWithSM.server.ppp[0].queue queueLength:vector:sumweights 686
scalar ClientServerWithSM.server.ppp[0].queue queueLength:vector:mean 4.0845481049562684
scalar ClientServerWithSM.server.ppp[0].queue queueLength:vector:stddev 3.088735410783598
scalar ClientServerWithSM.server.ppp[0].queue queueLength:vector:min 0
[...]
scalar ClientServerWithSM.server.tcp.conn-5 rcvAdv:vector:stddev 20022.338169188959
scalar ClientServerWithSM.server.tcp.conn-5 rcvAdv:vector:min 57504
scalar ClientServerWithSM.server.tcp.conn-5 rcvAdv:vector:max 135224
scalar ClientServerWithSM.server.tcp.conn-5 rcvAdv:vector:starttime 0.20004090000000005
scalar ClientServerWithSM.server.tcp.conn-5 rcvAdv:vector:endtime 9.5699225810860025
scalar ClientServerWithSM.server.tcp.conn-5 sndNxt:vector:count 236
scalar ClientServerWithSM.server.tcp.conn-5 sndNxt:vector:sum 24879924
scalar ClientServerWithSM.server.tcp.conn-5 sndNxt:vector:sumweights 236
scalar ClientServerWithSM.server.tcp.conn-5 sndNxt:vector:mean 105423.40677966102
scalar ClientServerWithSM.server.tcp.conn-5 sndNxt:vector:stddev 34216.962034400625
scalar ClientServerWithSM.server.tcp.conn-5 sndNxt:vector:min 50011
scalar ClientServerWithSM.server.tcp.conn-5 sndNxt:vector:max 162035
scalar ClientServerWithSM.server.tcp.conn-5 sndNxt:vector:starttime 0.40046650000000011
scalar ClientServerWithSM.server.tcp.conn-5 sndNxt:vector:endtime 8.1331225810860008
scalar ClientServerWithSM.server.tcp.conn-5 sndAck:vector:count 389
scalar ClientServerWithSM.server.tcp.conn-5 sndAck:vector:sum 33882336
scalar ClientServerWithSM.server.tcp.conn-5 sndAck:vector:sumweights 389
scalar ClientServerWithSM.server.tcp.conn-5 sndAck:vector:mean 87101.120822622106
scalar ClientServerWithSM.server.tcp.conn-5 sndAck:vector:stddev 19864.426705766422
scalar ClientServerWithSM.server.tcp.conn-5 sndAck:vector:min 50000
scalar ClientServerWithSM.server.tcp.conn-5 sndAck:vector:max 127720
scalar ClientServerWithSM.server.tcp.conn-5 sndAck:vector:starttime 0.20004090000000005
scalar ClientServerWithSM.server.tcp.conn-5 sndAck:vector:endtime 9.5699225810860025
scalar ClientServerWithSM.server.tcp.conn-5 rcvSeq:vector:count 361
scalar ClientServerWithSM.server.tcp.conn-5 rcvSeq:vector:sum 32110352
scalar ClientServerWithSM.server.tcp.conn-5 rcvSeq:vector:sumweights 361
scalar ClientServerWithSM.server.tcp.conn-5 rcvSeq:vector:mean 88948.343490304716
scalar ClientServerWithSM.server.tcp.conn-5 rcvSeq:vector:stddev 18920.294766717154
scalar ClientServerWithSM.server.tcp.conn-5 rcvSeq:vector:min 50000
scalar ClientServerWithSM.server.tcp.conn-5 rcvSeq:vector:max 127184
scalar ClientServerWithSM.server.tcp.conn-5 rcvSeq:vector:starttime 0.20011950000000003
scalar ClientServerWithSM.server.tcp.conn-5 rcvSeq:vector:endtime 9.5699225810860025
scalar ClientServerWithSM.server.tcp.conn-5 rcvAck:vector:count 361
scalar ClientServerWithSM.server.tcp.conn-5 rcvAck:vector:sum 37551507
scalar ClientServerWithSM.server.tcp.conn-5 rcvAck:vector:sumweights 361
scalar ClientServerWithSM.server.tcp.conn-5 rcvAck:vector:mean 104020.79501385041
scalar ClientServerWithSM.server.tcp.conn-5 rcvAck:vector:stddev 37192.686284209718
scalar ClientServerWithSM.server.tcp.conn-5 rcvAck:vector:min 50011
scalar ClientServerWithSM.server.tcp.conn-5 rcvAck:vector:max 159891
scalar ClientServerWithSM.server.tcp.conn-5 rcvAck:vector:starttime 0.20011950000000003
scalar ClientServerWithSM.server.tcp.conn-5 rcvAck:vector:endtime 9.5699225810860025
scalar ClientServerWithSM.server.tcp.conn-5 unacked:vector:count 351
scalar ClientServerWithSM.server.tcp.conn-5 unacked:vector:sum 1266568
scalar ClientServerWithSM.server.tcp.conn-5 unacked:vector:sumweights 351
scalar ClientServerWithSM.server.tcp.conn-5 unacked:vector:mean 3608.4558404558406
scalar ClientServerWithSM.server.tcp.conn-5 unacked:vector:stddev 1587.6632308121689
scalar ClientServerWithSM.server.tcp.conn-5 unacked:vector:min 0
scalar ClientServerWithSM.server.tcp.conn-5 unacked:vector:max 7504
scalar ClientServerWithSM.server.tcp.conn-5 unacked:vector:starttime 0.20011950000000003
scalar ClientServerWithSM.server.tcp.conn-5 unacked:vector:endtime 8.1331225810860008
scalar ClientServerWithSM.server.tcp.conn-5 dupAcks:vector:count 353
scalar ClientServerWithSM.server.tcp.conn-5 dupAcks:vector:sum 48
scalar ClientServerWithSM.server.tcp.conn-5 dupAcks:vector:sumweights 353
scalar ClientServerWithSM.server.tcp.conn-5 dupAcks:vector:mean 0.1359773371104816
scalar ClientServerWithSM.server.tcp.conn-5 dupAcks:vector:stddev 0.56777348190776011
scalar ClientServerWithSM.server.tcp.conn-5 dupAcks:vector:min 0
scalar ClientServerWithSM.server.tcp.conn-5 dupAcks:vector:max 4
scalar ClientServerWithSM.server.tcp.conn-5 dupAcks:vector:starttime 0.40046650000000011
scalar ClientServerWithSM.server.tcp.conn-5 dupAcks:vector:endtime 9.5699225810860025
scalar ClientServerWithSM.server.tcp.conn-5 pipe:vector:count 0
scalar ClientServerWithSM.server.tcp.conn-5 pipe:vector:sum 0
scalar ClientServerWithSM.server.tcp.conn-5 pipe:vector:sumweights 0
scalar ClientServerWithSM.server.tcp.conn-5 pipe:vector:mean -nan
scalar ClientServerWithSM.server.tcp.conn-5 pipe:vector:stddev nan
scalar ClientServerWithSM.server.tcp.conn-5 pipe:vector:min inf
scalar ClientServerWithSM.server.tcp.conn-5 pipe:vector:max -inf
scalar ClientServerWithSM.server.tcp.conn-5 pipe:vector:starttime nan
scalar ClientServerWithSM.server.tcp.conn-5 pipe:vector:endtime nan
scalar ClientServerWithSM.server.tcp.conn-5 sndSacks:vector:count 0
scalar ClientServerWithSM.server.tcp.conn-5 sndSacks:vector:sum 0
scalar ClientServerWithSM.server.tcp.conn-5 sndSacks:vector:sumweights 0
scalar ClientServerWithSM.server.tcp.conn-5 sndSacks:vector:mean -nan
scalar ClientServerWithSM.server.tcp.conn-5 sndSacks:vector:stddev nan
scalar ClientServerWithSM.server.tcp.conn-5 sndSacks:vector:min inf
scalar ClientServerWithSM.server.tcp.conn-5 sndSacks:vector:max -inf
scalar ClientServerWithSM.server.tcp.conn-5 sndSacks:vector:starttime nan
scalar ClientServerWithSM.server.tcp.conn-5 sndSacks:vector:endtime nan
scalar ClientServerWithSM.server.tcp.conn-5 rcvSacks:vector:count 0
scalar ClientServerWithSM.server.tcp.conn-5 rcvSacks:vector:sum 0
scalar ClientServerWithSM.server.tcp.conn-5 rcvSacks:vector:sumweights 0
scalar ClientServerWithSM.server.tcp.conn-5 rcvSacks:vector:mean -nan
scalar ClientServerWithSM.server.tcp.conn-5 rcvSacks:vector:stddev nan
scalar ClientServerWithSM.server.tcp.conn-5 rcvSacks:vector:min inf
scalar ClientServerWithSM.server.tcp.conn-5 rcvSacks:vector:max -inf
scalar ClientServerWithSM.server.tcp.conn-5 rcvSacks:vector:starttime nan
scalar ClientServerWithSM.server.tcp.conn-5 rcvSacks:vector:endtime nan
scalar ClientServerWithSM.server.tcp.conn-5 rcvOooSeg:vector:count 23
scalar ClientServerWithSM.server.tcp.conn-5 rcvOooSeg:vector:sum 276
scalar ClientServerWithSM.server.tcp.conn-5 rcvOooSeg:vector:sumweights 23
scalar ClientServerWithSM.server.tcp.conn-5 rcvOooSeg:vector:mean 12
scalar ClientServerWithSM.server.tcp.conn-5 rcvOooSeg:vector:stddev 6.7823299831252681
scalar ClientServerWithSM.server.tcp.conn-5 rcvOooSeg:vector:min 1
scalar ClientServerWithSM.server.tcp.conn-5 rcvOooSeg:vector:max 23
scalar ClientServerWithSM.server.tcp.conn-5 rcvOooSeg:vector:starttime 0.4091627000000001
scalar ClientServerWithSM.server.tcp.conn-5 rcvOooSeg:vector:endtime 4.0710183810860006
scalar ClientServerWithSM.server.tcp.conn-5 rcvNASeg:vector:count 7
scalar ClientServerWithSM.server.tcp.conn-5 rcvNASeg:vector:sum 28
scalar ClientServerWithSM.server.tcp.conn-5 rcvNASeg:vector:sumweights 7
scalar ClientServerWithSM.server.tcp.conn-5 rcvNASeg:vector:mean 4
scalar ClientServerWithSM.server.tcp.conn-5 rcvNASeg:vector:stddev 2.1602468994692869
scalar ClientServerWithSM.server.tcp.conn-5 rcvNASeg:vector:min 1
scalar ClientServerWithSM.server.tcp.conn-5 rcvNASeg:vector:max 7
scalar ClientServerWithSM.server.tcp.conn-5 rcvNASeg:vector:starttime 0.41362370000000009
scalar ClientServerWithSM.server.tcp.conn-5 rcvNASeg:vector:endtime 4.0719887810860005
scalar ClientServerWithSM.server.tcp.conn-5 sackedBytes:vector:count 0
scalar ClientServerWithSM.server.tcp.conn-5 sackedBytes:vector:sum 0
scalar ClientServerWithSM.server.tcp.conn-5 sackedBytes:vector:sumweights 0
scalar ClientServerWithSM.server.tcp.conn-5 sackedBytes:vector:mean -nan
scalar ClientServerWithSM.server.tcp.conn-5 sackedBytes:vector:stddev nan
scalar ClientServerWithSM.server.tcp.conn-5 sackedBytes:vector:min inf
scalar ClientServerWithSM.server.tcp.conn-5 sackedBytes:vector:max -inf
scalar ClientServerWithSM.server.tcp.conn-5 sackedBytes:vector:starttime nan
scalar ClientServerWithSM.server.tcp.conn-5 sackedBytes:vector:endtime nan
scalar ClientServerWithSM.server.tcp.conn-5 tcpRcvQueueBytes:vector:count 534
scalar ClientServerWithSM.server.tcp.conn-5 tcpRcvQueueBytes:vector:sum 467392
scalar ClientServerWithSM.server.tcp.conn-5 tcpRcvQueueBytes:vector:sumweights 534
scalar ClientServerWithSM.server.tcp.conn-5 tcpRcvQueueBytes:vector:mean 875.2659176029963
scalar ClientServerWithSM.server.tcp.conn-5 tcpRcvQueueBytes:vector:stddev 1357.7444712574627
scalar ClientServerWithSM.server.tcp.conn-5 tcpRcvQueueBytes:vector:min 0
scalar ClientServerWithSM.server.tcp.conn-5 tcpRcvQueueBytes:vector:max 3752
scalar ClientServerWithSM.server.tcp.conn-5 tcpRcvQueueBytes:vector:starttime 0.20004090000000005
scalar ClientServerWithSM.server.tcp.conn-5 tcpRcvQueueBytes:vector:endtime 9.5699225810860025
scalar ClientServerWithSM.server.tcp.conn-5 tcpRcvQueueDrops:vector:count 0
scalar ClientServerWithSM.server.tcp.conn-5 tcpRcvQueueDrops:vector:sum 0
scalar ClientServerWithSM.server.tcp.conn-5 tcpRcvQueueDrops:vector:sumweights 0
scalar ClientServerWithSM.server.tcp.conn-5 tcpRcvQueueDrops:vector:mean -nan
scalar ClientServerWithSM.server.tcp.conn-5 tcpRcvQueueDrops:vector:stddev nan
scalar ClientServerWithSM.server.tcp.conn-5 tcpRcvQueueDrops:vector:min inf
scalar ClientServerWithSM.server.tcp.conn-5 tcpRcvQueueDrops:vector:max -inf
scalar ClientServerWithSM.server.tcp.conn-5 tcpRcvQueueDrops:vector:starttime nan
scalar ClientServerWithSM.server.tcp.conn-5 tcpRcvQueueDrops:vector:endtime nan
scalar ClientServerWithSM.server.tcp.conn-5 tcpRcvPayloadBytes:vector:count 361
scalar ClientServerWithSM.server.tcp.conn-5 tcpRcvPayloadBytes:vector:sum 81472
scalar ClientServerWithSM.server.tcp.conn-5 tcpRcvPayloadBytes:vector:sumweights 361
scalar ClientServerWithSM.server.tcp.conn-5 tcpRcvPayloadBytes:vector:mean 225.68421052631578
scalar ClientServerWithSM.server.tcp.conn-5 tcpRcvPayloadBytes:vector:stddev 265.00549260555169
scalar ClientServerWithSM.server.tcp.conn-5 tcpRcvPayloadBytes:vector:min 0
scalar ClientServerWithSM.server.tcp.conn-5 tcpRcvPayloadBytes:vector:max 536
scalar ClientServerWithSM.server.tcp.conn-5 tcpRcvPayloadBytes:vector:starttime 0.20011950000000003
scalar ClientServerWithSM.server.tcp.conn-5 tcpRcvPayloadBytes:vector:endtime 9.5699225810860025
scalar ClientServerWithSM.server.tcp.conn-5 cwnd:vector:count 196
scalar ClientServerWithSM.server.tcp.conn-5 cwnd:vector:sum 866472
scalar ClientServerWithSM.server.tcp.conn-5 cwnd:vector:sumweights 196
scalar ClientServerWithSM.server.tcp.conn-5 cwnd:vector:mean 4420.7755102040819
scalar ClientServerWithSM.server.tcp.conn-5 cwnd:vector:stddev 1827.9219645051182
scalar ClientServerWithSM.server.tcp.conn-5 cwnd:vector:min 536
scalar ClientServerWithSM.server.tcp.conn-5 cwnd:vector:max 10184
scalar ClientServerWithSM.server.tcp.conn-5 cwnd:vector:starttime 0.40147470000000007
scalar ClientServerWithSM.server.tcp.conn-5 cwnd:vector:endtime 8.1331225810860008
scalar ClientServerWithSM.server.tcp.conn-5 ssthresh:vector:count 192
scalar ClientServerWithSM.server.tcp.conn-5 ssthresh:vector:sum 77309725275
scalar ClientServerWithSM.server.tcp.conn-5 ssthresh:vector:sumweights 192
scalar ClientServerWithSM.server.tcp.conn-5 ssthresh:vector:mean 402654819.140625
scalar ClientServerWithSM.server.tcp.conn-5 ssthresh:vector:stddev 1255172042.8671937
scalar ClientServerWithSM.server.tcp.conn-5 ssthresh:vector:min 1072
scalar ClientServerWithSM.server.tcp.conn-5 ssthresh:vector:max 4294967295
scalar ClientServerWithSM.server.tcp.conn-5 ssthresh:vector:starttime 0.40147470000000007
scalar ClientServerWithSM.server.tcp.conn-5 ssthresh:vector:endtime 8.1331225810860008
scalar ClientServerWithSM.server.tcp.conn-5 rtt:vector:count 38
scalar ClientServerWithSM.server.tcp.conn-5 rtt:vector:sum 1.1076328
scalar ClientServerWithSM.server.tcp.conn-5 rtt:vector:sumweights 38
scalar ClientServerWithSM.server.tcp.conn-5 rtt:vector:mean 0.029148231578947369
scalar ClientServerWithSM.server.tcp.conn-5 rtt:vector:stddev 0.15687095829598824
scalar ClientServerWithSM.server.tcp.conn-5 rtt:vector:min 0.00088020000000000004
scalar ClientServerWithSM.server.tcp.conn-5 rtt:vector:max 0.97039999999999993
scalar ClientServerWithSM.server.tcp.conn-5 rtt:vector:starttime 0.40147470000000007
scalar ClientServerWithSM.server.tcp.conn-5 rtt:vector:endtime 6.5459225810860016
scalar ClientServerWithSM.server.tcp.conn-5 srtt:vector:count 38
scalar ClientServerWithSM.server.tcp.conn-5 srtt:vector:sum 0.23382813362599997
scalar ClientServerWithSM.server.tcp.conn-5 srtt:vector:sumweights 38
scalar ClientServerWithSM.server.tcp.conn-5 srtt:vector:mean 0.0061533719375263148
scalar ClientServerWithSM.server.tcp.conn-5 srtt:vector:stddev 0.019849269199489074
scalar ClientServerWithSM.server.tcp.conn-5 srtt:vector:min 0.00012602499999999999
scalar ClientServerWithSM.server.tcp.conn-5 srtt:vector:max 0.124829238058
scalar ClientServerWithSM.server.tcp.conn-5 srtt:vector:starttime 0.40147470000000007
scalar ClientServerWithSM.server.tcp.conn-5 srtt:vector:endtime 6.5459225810860016
scalar ClientServerWithSM.server.tcp.conn-5 rttvar:vector:count 38
scalar ClientServerWithSM.server.tcp.conn-5 rttvar:vector:sum 5.4146149700599988
scalar ClientServerWithSM.server.tcp.conn-5 rttvar:vector:sumweights 38
scalar ClientServerWithSM.server.tcp.conn-5 rttvar:vector:mean 0.14248986763315785
scalar ClientServerWithSM.server.tcp.conn-5 rttvar:vector:stddev 0.1717571249242236
scalar ClientServerWithSM.server.tcp.conn-5 rttvar:vector:min 0.0081825555880000005
scalar ClientServerWithSM.server.tcp.conn-5 rttvar:vector:max 0.65637602500000003
scalar ClientServerWithSM.server.tcp.conn-5 rttvar:vector:starttime 0.40147470000000007
scalar ClientServerWithSM.server.tcp.conn-5 rttvar:vector:endtime 6.5459225810860016
scalar ClientServerWithSM.server.tcp.conn-5 rto:vector:count 38
scalar ClientServerWithSM.server.tcp.conn-5 rto:vector:sum 43.815656490927999
scalar ClientServerWithSM.server.tcp.conn-5 rto:vector:sumweights 38
scalar ClientServerWithSM.server.tcp.conn-5 rto:vector:mean 1.1530435918665263
scalar ClientServerWithSM.server.tcp.conn-5 rto:vector:stddev 0.38565774688186205
scalar ClientServerWithSM.server.tcp.conn-5 rto:vector:min 1
scalar ClientServerWithSM.server.tcp.conn-5 rto:vector:max 2.6256301249999998
scalar ClientServerWithSM.server.tcp.conn-5 rto:vector:starttime 0.40147470000000007
scalar ClientServerWithSM.server.tcp.conn-5 rto:vector:endtime 6.5459225810860016
scalar ClientServerWithSM.server.tcp.conn-5 numRtos:vector:count 3
scalar ClientServerWithSM.server.tcp.conn-5 numRtos:vector:sum 6
scalar ClientServerWithSM.server.tcp.conn-5 numRtos:vector:sumweights 3
scalar ClientServerWithSM.server.tcp.conn-5 numRtos:vector:mean 2
scalar ClientServerWithSM.server.tcp.conn-5 numRtos:vector:stddev 1
scalar ClientServerWithSM.server.tcp.conn-5 numRtos:vector:min 1
scalar ClientServerWithSM.server.tcp.conn-5 numRtos:vector:max 3
scalar ClientServerWithSM.server.tcp.conn-5 numRtos:vector:starttime 1.9590566387030004
scalar ClientServerWithSM.server.tcp.conn-5 numRtos:vector:endtime 7.583522581086001
scalar ClientServerWithSM.server.tcp.conn-5 load:vector:count 0
scalar ClientServerWithSM.server.tcp.conn-5 load:vector:sum 0
scalar ClientServerWithSM.server.tcp.conn-5 load:vector:sumweights 0
scalar ClientServerWithSM.server.tcp.conn-5 load:vector:mean -nan
scalar ClientServerWithSM.server.tcp.conn-5 load:vector:stddev nan
scalar ClientServerWithSM.server.tcp.conn-5 load:vector:min inf
scalar ClientServerWithSM.server.tcp.conn-5 load:vector:max -inf
scalar ClientServerWithSM.server.tcp.conn-5 load:vector:starttime nan
scalar ClientServerWithSM.server.tcp.conn-5 load:vector:endtime nan
scalar ClientServerWithSM.server.tcp.conn-5 calcLoad:vector:count 0
scalar ClientServerWithSM.server.tcp.conn-5 calcLoad:vector:sum 0
scalar ClientServerWithSM.server.tcp.conn-5 calcLoad:vector:sumweights 0
scalar ClientServerWithSM.server.tcp.conn-5 calcLoad:vector:mean -nan
scalar ClientServerWithSM.server.tcp.conn-5 calcLoad:vector:stddev nan
scalar ClientServerWithSM.server.tcp.conn-5 calcLoad:vector:min inf
scalar ClientServerWithSM.server.tcp.conn-5 calcLoad:vector:max -inf
scalar ClientServerWithSM.server.tcp.conn-5 calcLoad:vector:starttime nan
scalar ClientServerWithSM.server.tcp.conn-5 calcLoad:vector:endtime nan
scalar ClientServerWithSM.server.tcp.conn-5 markingProb:vector:count 0
scalar ClientServerWithSM.server.tcp.conn-5 markingProb:vector:sum 0
scalar ClientServerWithSM.server.tcp.conn-5 markingProb:vector:sumweights 0
scalar ClientServerWithSM.server.tcp.conn-5 markingProb:vector:mean -nan
scalar ClientServerWithSM.server.tcp.conn-5 markingProb:vector:stddev nan
scalar ClientServerWithSM.server.tcp.conn-5 markingProb:vector:min inf
scalar ClientServerWithSM.server.tcp.conn-5 markingProb:vector:max -inf
scalar ClientServerWithSM.server.tcp.conn-5 markingProb:vector:starttime nan
scalar ClientServerWithSM.server.tcp.conn-5 markingProb:vector:endtime nan
scalar ClientServerWithSM.server.app[0].thread_5 packetReceived:vector(packetBytes):count 122
scalar ClientServerWithSM.server.app[0].thread_5 packetReceived:vector(packetBytes):sum 77720
scalar ClientServerWithSM.server.app[0].thread_5 packetReceived:vector(packetBytes):sumweights 122
scalar ClientServerWithSM.server.app[0].thread_5 packetReceived:vector(packetBytes):mean 637.04918032786884
scalar ClientServerWithSM.server.app[0].thread_5 packetReceived:vector(packetBytes):stddev 517.20719911608387
scalar ClientServerWithSM.server.app[0].thread_5 packetReceived:vector(packetBytes):min 536
scalar ClientServerWithSM.server.app[0].thread_5 packetReceived:vector(packetBytes):max 4288
scalar ClientServerWithSM.server.app[0].thread_5 packetReceived:vector(packetBytes):starttime 0.40046650000000011
scalar ClientServerWithSM.server.app[0].thread_5 packetReceived:vector(packetBytes):endtime 9.5699225810860025
scalar ClientServerWithSM.server.app[0].thread_5 packetSent:vector(packetBytes):count 122
scalar ClientServerWithSM.server.app[0].thread_5 packetSent:vector(packetBytes):sum 155440
scalar ClientServerWithSM.server.app[0].thread_5 packetSent:vector(packetBytes):sumweights 122
scalar ClientServerWithSM.server.app[0].thread_5 packetSent:vector(packetBytes):mean 1274.0983606557377
scalar ClientServerWithSM.server.app[0].thread_5 packetSent:vector(packetBytes):stddev 1034.4143982321677
scalar ClientServerWithSM.server.app[0].thread_5 packetSent:vector(packetBytes):min 1072
scalar ClientServerWithSM.server.app[0].thread_5 packetSent:vector(packetBytes):max 8576
scalar ClientServerWithSM.server.app[0].thread_5 packetSent:vector(packetBytes):starttime 0.40046650000000011
scalar ClientServerWithSM.server.app[0].thread_5 packetSent:vector(packetBytes):endtime 9.5699225810860025
scalar ClientServerWithSM.server.app[0].thread_5 endToEndDelay:vector:count 145
scalar ClientServerWithSM.server.app[0].thread_5 endToEndDelay:vector:sum 393.788602916836
scalar ClientServerWithSM.server.app[0].thread_5 endToEndDelay:vector:sumweights 145
scalar ClientServerWithSM.server.app[0].thread_5 endToEndDelay:vector:mean 2.7157834683919724
scalar ClientServerWithSM.server.app[0].thread_5 endToEndDelay:vector:stddev 1.8196748831289304
scalar ClientServerWithSM.server.app[0].thread_5 endToEndDelay:vector:min 0.00046650000000000001
scalar ClientServerWithSM.server.app[0].thread_5 endToEndDelay:vector:max 9.1699225810860003
scalar ClientServerWithSM.server.app[0].thread_5 endToEndDelay:vector:starttime 0.40046650000000011
scalar ClientServerWithSM.server.app[0].thread_5 endToEndDelay:vector:endtime 9.5699225810860025

