version 3
run General-0-20251118-11:59:22-113701
attr configname General
attr datetime 20251118-11:59:22
attr datetimef 20251118-115922
attr experiment General
attr inifile omnetpp.ini
attr iterationvars ""
attr iterationvarsd ""
attr iterationvarsf ""
attr measurement ""
attr network PeekingUnderTheHoodShowcase
attr processid 113701
attr repetition 0
attr replication #0
attr resultdir results
attr runnumber 0
attr seedset 0
config **.param-recording false
config image-path /home/zoli/Projects/OMNET/inet/images
config output-scalar-file results/omnetpp.ini-General-#0.sca
config output-scalar-precision 17
config output-vector-file results/omnetpp.ini-General-#0.vec
config output-vector-precision 17
config record-eventlog false
config sim-time-limit 10s
config network PeekingUnderTheHoodShowcase
config sim-time-limit 10s
config description "Traffic shaping several packet sources directly"
config *.numSources 3
config *.source[*].packetLength 1000B
config *.source[0].productionInterval "replaceUnit(sin(dropUnit(simTime() * 2)) + 5, \"ms\") / 10"
config *.source[1].productionInterval "replaceUnit(sin(dropUnit(simTime() * 3)) + 5, \"ms\") / 10"
config *.source[2].productionInterval "replaceUnit(sin(dropUnit(simTime() * 1)) + sin(dropUnit(simTime() * 8)) + 5, \"ms\") / 10"
config *.meter[*].committedInformationRate 16Mbps
config *.meter[*].committedBurstSize 10kB
config *.meter[*].maxResidenceTime 10ms
config *.server.processingTime 0.1ms
config *.classifier.packetFilters "[\"source[0]*\", \"source[1]*\", \"source[2]*\"]"

scalar PeekingUnderTheHoodShowcase.source[0] packets:count 20284
scalar PeekingUnderTheHoodShowcase.source[0] packetLengths:sum 162272000
scalar PeekingUnderTheHoodShowcase.source[1] packets:count 20299
scalar PeekingUnderTheHoodShowcase.source[1] packetLengths:sum 162392000
scalar PeekingUnderTheHoodShowcase.source[2] packets:count 19995
scalar PeekingUnderTheHoodShowcase.source[2] packetLengths:sum 159960000
scalar PeekingUnderTheHoodShowcase.meter[0] outgoingPackets:count 20284
scalar PeekingUnderTheHoodShowcase.meter[0] outgoingPacketLengths:sum 162272000
scalar PeekingUnderTheHoodShowcase.meter[0] flowOutgoingPacketLengths:sum 0
scalar PeekingUnderTheHoodShowcase.meter[0] incomingPackets:count 20284
scalar PeekingUnderTheHoodShowcase.meter[0] incomingPacketLengths:sum 162272000
scalar PeekingUnderTheHoodShowcase.meter[0] flowIncomingPacketLengths:sum 0
scalar PeekingUnderTheHoodShowcase.meter[1] outgoingPackets:count 20299
scalar PeekingUnderTheHoodShowcase.meter[1] outgoingPacketLengths:sum 162392000
scalar PeekingUnderTheHoodShowcase.meter[1] flowOutgoingPacketLengths:sum 0
scalar PeekingUnderTheHoodShowcase.meter[1] incomingPackets:count 20299
scalar PeekingUnderTheHoodShowcase.meter[1] incomingPacketLengths:sum 162392000
scalar PeekingUnderTheHoodShowcase.meter[1] flowIncomingPacketLengths:sum 0
scalar PeekingUnderTheHoodShowcase.meter[2] outgoingPackets:count 19995
scalar PeekingUnderTheHoodShowcase.meter[2] outgoingPacketLengths:sum 159960000
scalar PeekingUnderTheHoodShowcase.meter[2] flowOutgoingPacketLengths:sum 0
scalar PeekingUnderTheHoodShowcase.meter[2] incomingPackets:count 19995
scalar PeekingUnderTheHoodShowcase.meter[2] incomingPacketLengths:sum 159960000
scalar PeekingUnderTheHoodShowcase.meter[2] flowIncomingPacketLengths:sum 0
scalar PeekingUnderTheHoodShowcase.multiplexer packets:count 0
scalar PeekingUnderTheHoodShowcase.multiplexer packetLengths:sum 0
scalar PeekingUnderTheHoodShowcase.filter outgoingPackets:count 56540
scalar PeekingUnderTheHoodShowcase.filter outgoingPacketLengths:sum 452320000
scalar PeekingUnderTheHoodShowcase.filter flowOutgoingPacketLengths:sum 0
scalar PeekingUnderTheHoodShowcase.filter incomingPackets:count 60578
scalar PeekingUnderTheHoodShowcase.filter incomingPacketLengths:sum 484624000
scalar PeekingUnderTheHoodShowcase.filter flowIncomingPacketLengths:sum 0
scalar PeekingUnderTheHoodShowcase.filter droppedPackets:count 4038
scalar PeekingUnderTheHoodShowcase.filter droppedPacketLengths:sum 32304000
scalar PeekingUnderTheHoodShowcase.filter flowDroppedPacketLengths:sum 0
scalar PeekingUnderTheHoodShowcase.queue queueLength:last 39
scalar PeekingUnderTheHoodShowcase.queue queueLength:max 61
scalar PeekingUnderTheHoodShowcase.queue queueLength:timeavg 24.716108785983732
scalar PeekingUnderTheHoodShowcase.queue queueBitLength:last 312000
scalar PeekingUnderTheHoodShowcase.queue queueBitLength:max 488000
scalar PeekingUnderTheHoodShowcase.queue queueBitLength:timeavg 197728.87028786319
scalar PeekingUnderTheHoodShowcase.queue outgoingPackets:count 56501
scalar PeekingUnderTheHoodShowcase.queue outgoingPacketLengths:sum 452008000
scalar PeekingUnderTheHoodShowcase.queue incomingPackets:count 56540
scalar PeekingUnderTheHoodShowcase.queue incomingPacketLengths:sum 452320000
scalar PeekingUnderTheHoodShowcase.queue droppedPacketsQueueOverflow:count 0
scalar PeekingUnderTheHoodShowcase.queue droppedPacketLengthsQueueOverflow:sum 0
scalar PeekingUnderTheHoodShowcase.gate outgoingPackets:count 56501
scalar PeekingUnderTheHoodShowcase.gate outgoingPacketLengths:sum 452008000
scalar PeekingUnderTheHoodShowcase.gate flowOutgoingPacketLengths:sum 0
scalar PeekingUnderTheHoodShowcase.gate incomingPackets:count 56501
scalar PeekingUnderTheHoodShowcase.gate incomingPacketLengths:sum 452008000
scalar PeekingUnderTheHoodShowcase.gate flowIncomingPacketLengths:sum 0
scalar PeekingUnderTheHoodShowcase.server incomingPackets:count 56501
scalar PeekingUnderTheHoodShowcase.server incomingPacketLengths:sum 452008000
scalar PeekingUnderTheHoodShowcase.server outgoingPackets:count 56501
scalar PeekingUnderTheHoodShowcase.server outgoingPacketLengths:sum 452008000
scalar PeekingUnderTheHoodShowcase.classifier packets:count 56501
scalar PeekingUnderTheHoodShowcase.classifier packetLengths:sum 452008000
scalar PeekingUnderTheHoodShowcase.sink[0] packets:count 18943
scalar PeekingUnderTheHoodShowcase.sink[0] packetLengths:sum 151544000
scalar PeekingUnderTheHoodShowcase.sink[0] droppedPackets:count 18943
scalar PeekingUnderTheHoodShowcase.sink[0] droppedPacketLengths:sum 151544000
scalar PeekingUnderTheHoodShowcase.sink[1] packets:count 18968
scalar PeekingUnderTheHoodShowcase.sink[1] packetLengths:sum 151744000
scalar PeekingUnderTheHoodShowcase.sink[1] droppedPackets:count 18968
scalar PeekingUnderTheHoodShowcase.sink[1] droppedPacketLengths:sum 151744000
scalar PeekingUnderTheHoodShowcase.sink[2] packets:count 18590
scalar PeekingUnderTheHoodShowcase.sink[2] packetLengths:sum 148720000
scalar PeekingUnderTheHoodShowcase.sink[2] droppedPackets:count 18590
scalar PeekingUnderTheHoodShowcase.sink[2] droppedPacketLengths:sum 148720000
scalar PeekingUnderTheHoodShowcase.source[0] packetLengths:histogram:count 20284
scalar PeekingUnderTheHoodShowcase.source[0] packetLengths:histogram:sumweights 20284
scalar PeekingUnderTheHoodShowcase.source[0] packetLengths:histogram:mean 8000
scalar PeekingUnderTheHoodShowcase.source[0] packetLengths:histogram:stddev 0
scalar PeekingUnderTheHoodShowcase.source[0] packetLengths:histogram:min 8000
scalar PeekingUnderTheHoodShowcase.source[0] packetLengths:histogram:max 8000
scalar PeekingUnderTheHoodShowcase.source[0] packetLengths:histogram:numbins 2
scalar PeekingUnderTheHoodShowcase.source[0] packetLengths:histogram:rangemin 7999
scalar PeekingUnderTheHoodShowcase.source[0] packetLengths:histogram:rangemax 8001
scalar PeekingUnderTheHoodShowcase.source[0] packetLengths:histogram:underflows 0
scalar PeekingUnderTheHoodShowcase.source[0] packetLengths:histogram:overflows 0
scalar PeekingUnderTheHoodShowcase.source[1] packetLengths:histogram:count 20299
scalar PeekingUnderTheHoodShowcase.source[1] packetLengths:histogram:sumweights 20299
scalar PeekingUnderTheHoodShowcase.source[1] packetLengths:histogram:mean 8000
scalar PeekingUnderTheHoodShowcase.source[1] packetLengths:histogram:stddev 0
scalar PeekingUnderTheHoodShowcase.source[1] packetLengths:histogram:min 8000
scalar PeekingUnderTheHoodShowcase.source[1] packetLengths:histogram:max 8000
scalar PeekingUnderTheHoodShowcase.source[1] packetLengths:histogram:numbins 2
scalar PeekingUnderTheHoodShowcase.source[1] packetLengths:histogram:rangemin 7999
scalar PeekingUnderTheHoodShowcase.source[1] packetLengths:histogram:rangemax 8001
scalar PeekingUnderTheHoodShowcase.source[1] packetLengths:histogram:underflows 0
scalar PeekingUnderTheHoodShowcase.source[1] packetLengths:histogram:overflows 0
scalar PeekingUnderTheHoodShowcase.source[2] packetLengths:histogram:count 19995
scalar PeekingUnderTheHoodShowcase.source[2] packetLengths:histogram:sumweights 19995
scalar PeekingUnderTheHoodShowcase.source[2] packetLengths:histogram:mean 8000
scalar PeekingUnderTheHoodShowcase.source[2] packetLengths:histogram:stddev 0
scalar PeekingUnderTheHoodShowcase.source[2] packetLengths:histogram:min 8000
scalar PeekingUnderTheHoodShowcase.source[2] packetLengths:histogram:max 8000
scalar PeekingUnderTheHoodShowcase.source[2] packetLengths:histogram:numbins 2
scalar PeekingUnderTheHoodShowcase.source[2] packetLengths:histogram:rangemin 7999
scalar PeekingUnderTheHoodShowcase.source[2] packetLengths:histogram:rangemax 8001
scalar PeekingUnderTheHoodShowcase.source[2] packetLengths:histogram:underflows 0
scalar PeekingUnderTheHoodShowcase.source[2] packetLengths:histogram:overflows 0
scalar PeekingUnderTheHoodShowcase.meter[0] outgoingPacketLengths:histogram:count 20284
scalar PeekingUnderTheHoodShowcase.meter[0] outgoingPacketLengths:histogram:sumweights 20284
scalar PeekingUnderTheHoodShowcase.meter[0] outgoingPacketLengths:histogram:mean 8000
scalar PeekingUnderTheHoodShowcase.meter[0] outgoingPacketLengths:histogram:stddev 0
scalar PeekingUnderTheHoodShowcase.meter[0] outgoingPacketLengths:histogram:min 8000
scalar PeekingUnderTheHoodShowcase.meter[0] outgoingPacketLengths:histogram:max 8000
scalar PeekingUnderTheHoodShowcase.meter[0] outgoingPacketLengths:histogram:numbins 2
scalar PeekingUnderTheHoodShowcase.meter[0] outgoingPacketLengths:histogram:rangemin 7999
scalar PeekingUnderTheHoodShowcase.meter[0] outgoingPacketLengths:histogram:rangemax 8001
scalar PeekingUnderTheHoodShowcase.meter[0] outgoingPacketLengths:histogram:underflows 0
scalar PeekingUnderTheHoodShowcase.meter[0] outgoingPacketLengths:histogram:overflows 0
scalar PeekingUnderTheHoodShowcase.meter[0] flowOutgoingPacketLengths:histogram:count 0
scalar PeekingUnderTheHoodShowcase.meter[0] flowOutgoingPacketLengths:histogram:sumweights 0
scalar PeekingUnderTheHoodShowcase.meter[0] flowOutgoingPacketLengths:histogram:mean -nan
scalar PeekingUnderTheHoodShowcase.meter[0] flowOutgoingPacketLengths:histogram:stddev nan
scalar PeekingUnderTheHoodShowcase.meter[0] flowOutgoingPacketLengths:histogram:min nan
scalar PeekingUnderTheHoodShowcase.meter[0] flowOutgoingPacketLengths:histogram:max nan
scalar PeekingUnderTheHoodShowcase.meter[0] flowOutgoingPacketLengths:histogram:numbins 1
scalar PeekingUnderTheHoodShowcase.meter[0] flowOutgoingPacketLengths:histogram:rangemin 0
scalar PeekingUnderTheHoodShowcase.meter[0] flowOutgoingPacketLengths:histogram:rangemax 1
scalar PeekingUnderTheHoodShowcase.meter[0] flowOutgoingPacketLengths:histogram:underflows 0
scalar PeekingUnderTheHoodShowcase.meter[0] flowOutgoingPacketLengths:histogram:overflows 0
scalar PeekingUnderTheHoodShowcase.meter[0] incomingPacketLengths:histogram:count 20284
scalar PeekingUnderTheHoodShowcase.meter[0] incomingPacketLengths:histogram:sumweights 20284
scalar PeekingUnderTheHoodShowcase.meter[0] incomingPacketLengths:histogram:mean 8000
scalar PeekingUnderTheHoodShowcase.meter[0] incomingPacketLengths:histogram:stddev 0
scalar PeekingUnderTheHoodShowcase.meter[0] incomingPacketLengths:histogram:min 8000
scalar PeekingUnderTheHoodShowcase.meter[0] incomingPacketLengths:histogram:max 8000
scalar PeekingUnderTheHoodShowcase.meter[0] incomingPacketLengths:histogram:numbins 2
scalar PeekingUnderTheHoodShowcase.meter[0] incomingPacketLengths:histogram:rangemin 7999
scalar PeekingUnderTheHoodShowcase.meter[0] incomingPacketLengths:histogram:rangemax 8001
scalar PeekingUnderTheHoodShowcase.meter[0] incomingPacketLengths:histogram:underflows 0
scalar PeekingUnderTheHoodShowcase.meter[0] incomingPacketLengths:histogram:overflows 0
scalar PeekingUnderTheHoodShowcase.meter[0] flowIncomingPacketLengths:histogram:count 0
scalar PeekingUnderTheHoodShowcase.meter[0] flowIncomingPacketLengths:histogram:sumweights 0
scalar PeekingUnderTheHoodShowcase.meter[0] flowIncomingPacketLengths:histogram:mean -nan
scalar PeekingUnderTheHoodShowcase.meter[0] flowIncomingPacketLengths:histogram:stddev nan
scalar PeekingUnderTheHoodShowcase.meter[0] flowIncomingPacketLengths:histogram:min nan
scalar PeekingUnderTheHoodShowcase.meter[0] flowIncomingPacketLengths:histogram:max nan
scalar PeekingUnderTheHoodShowcase.meter[0] flowIncomingPacketLengths:histogram:numbins 1
scalar PeekingUnderTheHoodShowcase.meter[0] flowIncomingPacketLengths:histogram:rangemin 0
scalar PeekingUnderTheHoodShowcase.meter[0] flowIncomingPacketLengths:histogram:rangemax 1
scalar PeekingUnderTheHoodShowcase.meter[0] flowIncomingPacketLengths:histogram:underflows 0
scalar PeekingUnderTheHoodShowcase.meter[0] flowIncomingPacketLengths:histogram:overflows 0
scalar PeekingUnderTheHoodShowcase.meter[1] outgoingPacketLengths:histogram:count 20299
scalar PeekingUnderTheHoodShowcase.meter[1] outgoingPacketLengths:histogram:sumweights 20299
scalar PeekingUnderTheHoodShowcase.meter[1] outgoingPacketLengths:histogram:mean 8000
scalar PeekingUnderTheHoodShowcase.meter[1] outgoingPacketLengths:histogram:stddev 0
scalar PeekingUnderTheHoodShowcase.meter[1] outgoingPacketLengths:histogram:min 8000
scalar PeekingUnderTheHoodShowcase.meter[1] outgoingPacketLengths:histogram:max 8000
scalar PeekingUnderTheHoodShowcase.meter[1] outgoingPacketLengths:histogram:numbins 2
scalar PeekingUnderTheHoodShowcase.meter[1] outgoingPacketLengths:histogram:rangemin 7999
scalar PeekingUnderTheHoodShowcase.meter[1] outgoingPacketLengths:histogram:rangemax 8001
scalar PeekingUnderTheHoodShowcase.meter[1] outgoingPacketLengths:histogram:underflows 0
scalar PeekingUnderTheHoodShowcase.meter[1] outgoingPacketLengths:histogram:overflows 0
scalar PeekingUnderTheHoodShowcase.meter[1] flowOutgoingPacketLengths:histogram:count 0
scalar PeekingUnderTheHoodShowcase.meter[1] flowOutgoingPacketLengths:histogram:sumweights 0
scalar PeekingUnderTheHoodShowcase.meter[1] flowOutgoingPacketLengths:histogram:mean -nan
scalar PeekingUnderTheHoodShowcase.meter[1] flowOutgoingPacketLengths:histogram:stddev nan
scalar PeekingUnderTheHoodShowcase.meter[1] flowOutgoingPacketLengths:histogram:min nan
scalar PeekingUnderTheHoodShowcase.meter[1] flowOutgoingPacketLengths:histogram:max nan
scalar PeekingUnderTheHoodShowcase.meter[1] flowOutgoingPacketLengths:histogram:numbins 1
scalar PeekingUnderTheHoodShowcase.meter[1] flowOutgoingPacketLengths:histogram:rangemin 0
scalar PeekingUnderTheHoodShowcase.meter[1] flowOutgoingPacketLengths:histogram:rangemax 1
scalar PeekingUnderTheHoodShowcase.meter[1] flowOutgoingPacketLengths:histogram:underflows 0
scalar PeekingUnderTheHoodShowcase.meter[1] flowOutgoingPacketLengths:histogram:overflows 0
scalar PeekingUnderTheHoodShowcase.meter[1] incomingPacketLengths:histogram:count 20299
scalar PeekingUnderTheHoodShowcase.meter[1] incomingPacketLengths:histogram:sumweights 20299
scalar PeekingUnderTheHoodShowcase.meter[1] incomingPacketLengths:histogram:mean 8000
scalar PeekingUnderTheHoodShowcase.meter[1] incomingPacketLengths:histogram:stddev 0
scalar PeekingUnderTheHoodShowcase.meter[1] incomingPacketLengths:histogram:min 8000
scalar PeekingUnderTheHoodShowcase.meter[1] incomingPacketLengths:histogram:max 8000
scalar PeekingUnderTheHoodShowcase.meter[1] incomingPacketLengths:histogram:numbins 2
scalar PeekingUnderTheHoodShowcase.meter[1] incomingPacketLengths:histogram:rangemin 7999
scalar PeekingUnderTheHoodShowcase.meter[1] incomingPacketLengths:histogram:rangemax 8001
scalar PeekingUnderTheHoodShowcase.meter[1] incomingPacketLengths:histogram:underflows 0
scalar PeekingUnderTheHoodShowcase.meter[1] incomingPacketLengths:histogram:overflows 0
scalar PeekingUnderTheHoodShowcase.meter[1] flowIncomingPacketLengths:histogram:count 0
scalar PeekingUnderTheHoodShowcase.meter[1] flowIncomingPacketLengths:histogram:sumweights 0
scalar PeekingUnderTheHoodShowcase.meter[1] flowIncomingPacketLengths:histogram:mean -nan
scalar PeekingUnderTheHoodShowcase.meter[1] flowIncomingPacketLengths:histogram:stddev nan
scalar PeekingUnderTheHoodShowcase.meter[1] flowIncomingPacketLengths:histogram:min nan
scalar PeekingUnderTheHoodShowcase.meter[1] flowIncomingPacketLengths:histogram:max nan
scalar PeekingUnderTheHoodShowcase.meter[1] flowIncomingPacketLengths:histogram:numbins 1
scalar PeekingUnderTheHoodShowcase.meter[1] flowIncomingPacketLengths:histogram:rangemin 0
scalar PeekingUnderTheHoodShowcase.meter[1] flowIncomingPacketLengths:histogram:rangemax 1
scalar PeekingUnderTheHoodShowcase.meter[1] flowIncomingPacketLengths:histogram:underflows 0
scalar PeekingUnderTheHoodShowcase.meter[1] flowIncomingPacketLengths:histogram:overflows 0
scalar PeekingUnderTheHoodShowcase.meter[2] outgoingPacketLengths:histogram:count 19995
scalar PeekingUnderTheHoodShowcase.meter[2] outgoingPacketLengths:histogram:sumweights 19995
scalar PeekingUnderTheHoodShowcase.meter[2] outgoingPacketLengths:histogram:mean 8000
scalar PeekingUnderTheHoodShowcase.meter[2] outgoingPacketLengths:histogram:stddev 0
scalar PeekingUnderTheHoodShowcase.meter[2] outgoingPacketLengths:histogram:min 8000
scalar PeekingUnderTheHoodShowcase.meter[2] outgoingPacketLengths:histogram:max 8000
scalar PeekingUnderTheHoodShowcase.meter[2] outgoingPacketLengths:histogram:numbins 2
scalar PeekingUnderTheHoodShowcase.meter[2] outgoingPacketLengths:histogram:rangemin 7999
scalar PeekingUnderTheHoodShowcase.meter[2] outgoingPacketLengths:histogram:rangemax 8001
scalar PeekingUnderTheHoodShowcase.meter[2] outgoingPacketLengths:histogram:underflows 0
scalar PeekingUnderTheHoodShowcase.meter[2] outgoingPacketLengths:histogram:overflows 0
scalar PeekingUnderTheHoodShowcase.meter[2] flowOutgoingPacketLengths:histogram:count 0
scalar PeekingUnderTheHoodShowcase.meter[2] flowOutgoingPacketLengths:histogram:sumweights 0
scalar PeekingUnderTheHoodShowcase.meter[2] flowOutgoingPacketLengths:histogram:mean -nan
scalar PeekingUnderTheHoodShowcase.meter[2] flowOutgoingPacketLengths:histogram:stddev nan
scalar PeekingUnderTheHoodShowcase.meter[2] flowOutgoingPacketLengths:histogram:min nan
scalar PeekingUnderTheHoodShowcase.meter[2] flowOutgoingPacketLengths:histogram:max nan
scalar PeekingUnderTheHoodShowcase.meter[2] flowOutgoingPacketLengths:histogram:numbins 1
scalar PeekingUnderTheHoodShowcase.meter[2] flowOutgoingPacketLengths:histogram:rangemin 0
scalar PeekingUnderTheHoodShowcase.meter[2] flowOutgoingPacketLengths:histogram:rangemax 1
scalar PeekingUnderTheHoodShowcase.meter[2] flowOutgoingPacketLengths:histogram:underflows 0
scalar PeekingUnderTheHoodShowcase.meter[2] flowOutgoingPacketLengths:histogram:overflows 0
scalar PeekingUnderTheHoodShowcase.meter[2] incomingPacketLengths:histogram:count 19995
scalar PeekingUnderTheHoodShowcase.meter[2] incomingPacketLengths:histogram:sumweights 19995
scalar PeekingUnderTheHoodShowcase.meter[2] incomingPacketLengths:histogram:mean 8000
scalar PeekingUnderTheHoodShowcase.meter[2] incomingPacketLengths:histogram:stddev 0
scalar PeekingUnderTheHoodShowcase.meter[2] incomingPacketLengths:histogram:min 8000
scalar PeekingUnderTheHoodShowcase.meter[2] incomingPacketLengths:histogram:max 8000
scalar PeekingUnderTheHoodShowcase.meter[2] incomingPacketLengths:histogram:numbins 2
scalar PeekingUnderTheHoodShowcase.meter[2] incomingPacketLengths:histogram:rangemin 7999
scalar PeekingUnderTheHoodShowcase.meter[2] incomingPacketLengths:histogram:rangemax 8001
scalar PeekingUnderTheHoodShowcase.meter[2] incomingPacketLengths:histogram:underflows 0
scalar PeekingUnderTheHoodShowcase.meter[2] incomingPacketLengths:histogram:overflows 0
scalar PeekingUnderTheHoodShowcase.meter[2] flowIncomingPacketLengths:histogram:count 0
scalar PeekingUnderTheHoodShowcase.meter[2] flowIncomingPacketLengths:histogram:sumweights 0
scalar PeekingUnderTheHoodShowcase.meter[2] flowIncomingPacketLengths:histogram:mean -nan
scalar PeekingUnderTheHoodShowcase.meter[2] flowIncomingPacketLengths:histogram:stddev nan
scalar PeekingUnderTheHoodShowcase.meter[2] flowIncomingPacketLengths:histogram:min nan
scalar PeekingUnderTheHoodShowcase.meter[2] flowIncomingPacketLengths:histogram:max nan
scalar PeekingUnderTheHoodShowcase.meter[2] flowIncomingPacketLengths:histogram:numbins 1
scalar PeekingUnderTheHoodShowcase.meter[2] flowIncomingPacketLengths:histogram:rangemin 0
scalar PeekingUnderTheHoodShowcase.meter[2] flowIncomingPacketLengths:histogram:rangemax 1
scalar PeekingUnderTheHoodShowcase.meter[2] flowIncomingPacketLengths:histogram:underflows 0
scalar PeekingUnderTheHoodShowcase.meter[2] flowIncomingPacketLengths:histogram:overflows 0
scalar PeekingUnderTheHoodShowcase.multiplexer packetLengths:histogram:count 0
scalar PeekingUnderTheHoodShowcase.multiplexer packetLengths:histogram:sumweights 0
scalar PeekingUnderTheHoodShowcase.multiplexer packetLengths:histogram:mean -nan
scalar PeekingUnderTheHoodShowcase.multiplexer packetLengths:histogram:stddev nan
scalar PeekingUnderTheHoodShowcase.multiplexer packetLengths:histogram:min nan
scalar PeekingUnderTheHoodShowcase.multiplexer packetLengths:histogram:max nan
scalar PeekingUnderTheHoodShowcase.multiplexer packetLengths:histogram:numbins 1
scalar PeekingUnderTheHoodShowcase.multiplexer packetLengths:histogram:rangemin 0
scalar PeekingUnderTheHoodShowcase.multiplexer packetLengths:histogram:rangemax 1
scalar PeekingUnderTheHoodShowcase.multiplexer packetLengths:histogram:underflows 0
scalar PeekingUnderTheHoodShowcase.multiplexer packetLengths:histogram:overflows 0
scalar PeekingUnderTheHoodShowcase.filter outgoingPacketLengths:histogram:count 56540
scalar PeekingUnderTheHoodShowcase.filter outgoingPacketLengths:histogram:sumweights 56540
scalar PeekingUnderTheHoodShowcase.filter outgoingPacketLengths:histogram:mean 8000
scalar PeekingUnderTheHoodShowcase.filter outgoingPacketLengths:histogram:stddev 0
scalar PeekingUnderTheHoodShowcase.filter outgoingPacketLengths:histogram:min 8000
scalar PeekingUnderTheHoodShowcase.filter outgoingPacketLengths:histogram:max 8000
scalar PeekingUnderTheHoodShowcase.filter outgoingPacketLengths:histogram:numbins 2
scalar PeekingUnderTheHoodShowcase.filter outgoingPacketLengths:histogram:rangemin 7999
scalar PeekingUnderTheHoodShowcase.filter outgoingPacketLengths:histogram:rangemax 8001
scalar PeekingUnderTheHoodShowcase.filter outgoingPacketLengths:histogram:underflows 0
scalar PeekingUnderTheHoodShowcase.filter outgoingPacketLengths:histogram:overflows 0
scalar PeekingUnderTheHoodShowcase.filter flowOutgoingPacketLengths:histogram:count 0
scalar PeekingUnderTheHoodShowcase.filter flowOutgoingPacketLengths:histogram:sumweights 0
scalar PeekingUnderTheHoodShowcase.filter flowOutgoingPacketLengths:histogram:mean -nan
scalar PeekingUnderTheHoodShowcase.filter flowOutgoingPacketLengths:histogram:stddev nan
scalar PeekingUnderTheHoodShowcase.filter flowOutgoingPacketLengths:histogram:min nan
scalar PeekingUnderTheHoodShowcase.filter flowOutgoingPacketLengths:histogram:max nan
scalar PeekingUnderTheHoodShowcase.filter flowOutgoingPacketLengths:histogram:numbins 1
scalar PeekingUnderTheHoodShowcase.filter flowOutgoingPacketLengths:histogram:rangemin 0
scalar PeekingUnderTheHoodShowcase.filter flowOutgoingPacketLengths:histogram:rangemax 1
scalar PeekingUnderTheHoodShowcase.filter flowOutgoingPacketLengths:histogram:underflows 0
scalar PeekingUnderTheHoodShowcase.filter flowOutgoingPacketLengths:histogram:overflows 0
scalar PeekingUnderTheHoodShowcase.filter incomingPacketLengths:histogram:count 60578
scalar PeekingUnderTheHoodShowcase.filter incomingPacketLengths:histogram:sumweights 60578
scalar PeekingUnderTheHoodShowcase.filter incomingPacketLengths:histogram:mean 8000
scalar PeekingUnderTheHoodShowcase.filter incomingPacketLengths:histogram:stddev 0
scalar PeekingUnderTheHoodShowcase.filter incomingPacketLengths:histogram:min 8000
scalar PeekingUnderTheHoodShowcase.filter incomingPacketLengths:histogram:max 8000
scalar PeekingUnderTheHoodShowcase.filter incomingPacketLengths:histogram:numbins 2
scalar PeekingUnderTheHoodShowcase.filter incomingPacketLengths:histogram:rangemin 7999
scalar PeekingUnderTheHoodShowcase.filter incomingPacketLengths:histogram:rangemax 8001
scalar PeekingUnderTheHoodShowcase.filter incomingPacketLengths:histogram:underflows 0
scalar PeekingUnderTheHoodShowcase.filter incomingPacketLengths:histogram:overflows 0
scalar PeekingUnderTheHoodShowcase.filter flowIncomingPacketLengths:histogram:count 0
scalar PeekingUnderTheHoodShowcase.filter flowIncomingPacketLengths:histogram:sumweights 0
scalar PeekingUnderTheHoodShowcase.filter flowIncomingPacketLengths:histogram:mean -nan
scalar PeekingUnderTheHoodShowcase.filter flowIncomingPacketLengths:histogram:stddev nan
scalar PeekingUnderTheHoodShowcase.filter flowIncomingPacketLengths:histogram:min nan
scalar PeekingUnderTheHoodShowcase.filter flowIncomingPacketLengths:histogram:max nan
scalar PeekingUnderTheHoodShowcase.filter flowIncomingPacketLengths:histogram:numbins 1
scalar PeekingUnderTheHoodShowcase.filter flowIncomingPacketLengths:histogram:rangemin 0
scalar PeekingUnderTheHoodShowcase.filter flowIncomingPacketLengths:histogram:rangemax 1
scalar PeekingUnderTheHoodShowcase.filter flowIncomingPacketLengths:histogram:underflows 0
scalar PeekingUnderTheHoodShowcase.filter flowIncomingPacketLengths:histogram:overflows 0
scalar PeekingUnderTheHoodShowcase.filter droppedPacketLengths:histogram:count 4038
scalar PeekingUnderTheHoodShowcase.filter droppedPacketLengths:histogram:sumweights 4038
scalar PeekingUnderTheHoodShowcase.filter droppedPacketLengths:histogram:mean 8000
scalar PeekingUnderTheHoodShowcase.filter droppedPacketLengths:histogram:stddev 0
scalar PeekingUnderTheHoodShowcase.filter droppedPacketLengths:histogram:min 8000
scalar PeekingUnderTheHoodShowcase.filter droppedPacketLengths:histogram:max 8000
scalar PeekingUnderTheHoodShowcase.filter droppedPacketLengths:histogram:numbins 2
scalar PeekingUnderTheHoodShowcase.filter droppedPacketLengths:histogram:rangemin 7999
scalar PeekingUnderTheHoodShowcase.filter droppedPacketLengths:histogram:rangemax 8001
scalar PeekingUnderTheHoodShowcase.filter droppedPacketLengths:histogram:underflows 0
scalar PeekingUnderTheHoodShowcase.filter droppedPacketLengths:histogram:overflows 0
scalar PeekingUnderTheHoodShowcase.filter flowDroppedPacketLengths:histogram:count 0
scalar PeekingUnderTheHoodShowcase.filter flowDroppedPacketLengths:histogram:sumweights 0
scalar PeekingUnderTheHoodShowcase.filter flowDroppedPacketLengths:histogram:mean -nan
scalar PeekingUnderTheHoodShowcase.filter flowDroppedPacketLengths:histogram:stddev nan
scalar PeekingUnderTheHoodShowcase.filter flowDroppedPacketLengths:histogram:min nan
scalar PeekingUnderTheHoodShowcase.filter flowDroppedPacketLengths:histogram:max nan
scalar PeekingUnderTheHoodShowcase.filter flowDroppedPacketLengths:histogram:numbins 1
scalar PeekingUnderTheHoodShowcase.filter flowDroppedPacketLengths:histogram:rangemin 0
scalar PeekingUnderTheHoodShowcase.filter flowDroppedPacketLengths:histogram:rangemax 1
scalar PeekingUnderTheHoodShowcase.filter flowDroppedPacketLengths:histogram:underflows 0
scalar PeekingUnderTheHoodShowcase.filter flowDroppedPacketLengths:histogram:overflows 0
scalar PeekingUnderTheHoodShowcase.queue queueingTime:histogram:count 56501
scalar PeekingUnderTheHoodShowcase.queue queueingTime:histogram:sumweights 56501
scalar PeekingUnderTheHoodShowcase.queue queueingTime:histogram:mean 0.0043709567140910264
scalar PeekingUnderTheHoodShowcase.queue queueingTime:histogram:stddev 0.0046681792377968193
scalar PeekingUnderTheHoodShowcase.queue queueingTime:histogram:min 0
scalar PeekingUnderTheHoodShowcase.queue queueingTime:histogram:max 0.010172928443999999
scalar PeekingUnderTheHoodShowcase.queue queueingTime:histogram:numbins 64
scalar PeekingUnderTheHoodShowcase.queue queueingTime:histogram:rangemin 0
scalar PeekingUnderTheHoodShowcase.queue queueingTime:histogram:rangemax 0.010240000000000022
scalar PeekingUnderTheHoodShowcase.queue queueingTime:histogram:underflows 0
scalar PeekingUnderTheHoodShowcase.queue queueingTime:histogram:overflows 0
scalar PeekingUnderTheHoodShowcase.queue outgoingPacketLengths:histogram:count 56501
scalar PeekingUnderTheHoodShowcase.queue outgoingPacketLengths:histogram:sumweights 56501
scalar PeekingUnderTheHoodShowcase.queue outgoingPacketLengths:histogram:mean 8000
scalar PeekingUnderTheHoodShowcase.queue outgoingPacketLengths:histogram:stddev 0
scalar PeekingUnderTheHoodShowcase.queue outgoingPacketLengths:histogram:min 8000
scalar PeekingUnderTheHoodShowcase.queue outgoingPacketLengths:histogram:max 8000
scalar PeekingUnderTheHoodShowcase.queue outgoingPacketLengths:histogram:numbins 2
scalar PeekingUnderTheHoodShowcase.queue outgoingPacketLengths:histogram:rangemin 7999
scalar PeekingUnderTheHoodShowcase.queue outgoingPacketLengths:histogram:rangemax 8001
scalar PeekingUnderTheHoodShowcase.queue outgoingPacketLengths:histogram:underflows 0
scalar PeekingUnderTheHoodShowcase.queue outgoingPacketLengths:histogram:overflows 0
scalar PeekingUnderTheHoodShowcase.queue flowQueueingTime:histogram:count 0
scalar PeekingUnderTheHoodShowcase.queue flowQueueingTime:histogram:sumweights 0
scalar PeekingUnderTheHoodShowcase.queue flowQueueingTime:histogram:mean -nan
scalar PeekingUnderTheHoodShowcase.queue flowQueueingTime:histogram:stddev nan
scalar PeekingUnderTheHoodShowcase.queue flowQueueingTime:histogram:min nan
scalar PeekingUnderTheHoodShowcase.queue flowQueueingTime:histogram:max nan
scalar PeekingUnderTheHoodShowcase.queue flowQueueingTime:histogram:numbins 1
scalar PeekingUnderTheHoodShowcase.queue flowQueueingTime:histogram:rangemin 0
scalar PeekingUnderTheHoodShowcase.queue flowQueueingTime:histogram:rangemax 1
scalar PeekingUnderTheHoodShowcase.queue flowQueueingTime:histogram:underflows 0
scalar PeekingUnderTheHoodShowcase.queue flowQueueingTime:histogram:overflows 0
scalar PeekingUnderTheHoodShowcase.queue incomingPacketLengths:histogram:count 56540
scalar PeekingUnderTheHoodShowcase.queue incomingPacketLengths:histogram:sumweights 56540
scalar PeekingUnderTheHoodShowcase.queue incomingPacketLengths:histogram:mean 8000
scalar PeekingUnderTheHoodShowcase.queue incomingPacketLengths:histogram:stddev 0
scalar PeekingUnderTheHoodShowcase.queue incomingPacketLengths:histogram:min 8000
scalar PeekingUnderTheHoodShowcase.queue incomingPacketLengths:histogram:max 8000
scalar PeekingUnderTheHoodShowcase.queue incomingPacketLengths:histogram:numbins 2
scalar PeekingUnderTheHoodShowcase.queue incomingPacketLengths:histogram:rangemin 7999
scalar PeekingUnderTheHoodShowcase.queue incomingPacketLengths:histogram:rangemax 8001
scalar PeekingUnderTheHoodShowcase.queue incomingPacketLengths:histogram:underflows 0
scalar PeekingUnderTheHoodShowcase.queue incomingPacketLengths:histogram:overflows 0
scalar PeekingUnderTheHoodShowcase.gate outgoingPacketLengths:histogram:count 56501
scalar PeekingUnderTheHoodShowcase.gate outgoingPacketLengths:histogram:sumweights 56501
scalar PeekingUnderTheHoodShowcase.gate outgoingPacketLengths:histogram:mean 8000
scalar PeekingUnderTheHoodShowcase.gate outgoingPacketLengths:histogram:stddev 0
scalar PeekingUnderTheHoodShowcase.gate outgoingPacketLengths:histogram:min 8000
scalar PeekingUnderTheHoodShowcase.gate outgoingPacketLengths:histogram:max 8000
scalar PeekingUnderTheHoodShowcase.gate outgoingPacketLengths:histogram:numbins 2
scalar PeekingUnderTheHoodShowcase.gate outgoingPacketLengths:histogram:rangemin 7999
scalar PeekingUnderTheHoodShowcase.gate outgoingPacketLengths:histogram:rangemax 8001
scalar PeekingUnderTheHoodShowcase.gate outgoingPacketLengths:histogram:underflows 0
scalar PeekingUnderTheHoodShowcase.gate outgoingPacketLengths:histogram:overflows 0
scalar PeekingUnderTheHoodShowcase.gate flowOutgoingPacketLengths:histogram:count 0
scalar PeekingUnderTheHoodShowcase.gate flowOutgoingPacketLengths:histogram:sumweights 0
scalar PeekingUnderTheHoodShowcase.gate flowOutgoingPacketLengths:histogram:mean -nan
scalar PeekingUnderTheHoodShowcase.gate flowOutgoingPacketLengths:histogram:stddev nan
scalar PeekingUnderTheHoodShowcase.gate flowOutgoingPacketLengths:histogram:min nan
scalar PeekingUnderTheHoodShowcase.gate flowOutgoingPacketLengths:histogram:max nan
scalar PeekingUnderTheHoodShowcase.gate flowOutgoingPacketLengths:histogram:numbins 1
scalar PeekingUnderTheHoodShowcase.gate flowOutgoingPacketLengths:histogram:rangemin 0
scalar PeekingUnderTheHoodShowcase.gate flowOutgoingPacketLengths:histogram:rangemax 1
scalar PeekingUnderTheHoodShowcase.gate flowOutgoingPacketLengths:histogram:underflows 0
scalar PeekingUnderTheHoodShowcase.gate flowOutgoingPacketLengths:histogram:overflows 0
scalar PeekingUnderTheHoodShowcase.gate incomingPacketLengths:histogram:count 56501
scalar PeekingUnderTheHoodShowcase.gate incomingPacketLengths:histogram:sumweights 56501
scalar PeekingUnderTheHoodShowcase.gate incomingPacketLengths:histogram:mean 8000
scalar PeekingUnderTheHoodShowcase.gate incomingPacketLengths:histogram:stddev 0
scalar PeekingUnderTheHoodShowcase.gate incomingPacketLengths:histogram:min 8000
scalar PeekingUnderTheHoodShowcase.gate incomingPacketLengths:histogram:max 8000
scalar PeekingUnderTheHoodShowcase.gate incomingPacketLengths:histogram:numbins 2
scalar PeekingUnderTheHoodShowcase.gate incomingPacketLengths:histogram:rangemin 7999
scalar PeekingUnderTheHoodShowcase.gate incomingPacketLengths:histogram:rangemax 8001
scalar PeekingUnderTheHoodShowcase.gate incomingPacketLengths:histogram:underflows 0
scalar PeekingUnderTheHoodShowcase.gate incomingPacketLengths:histogram:overflows 0
scalar PeekingUnderTheHoodShowcase.gate flowIncomingPacketLengths:histogram:count 0
scalar PeekingUnderTheHoodShowcase.gate flowIncomingPacketLengths:histogram:sumweights 0
scalar PeekingUnderTheHoodShowcase.gate flowIncomingPacketLengths:histogram:mean -nan
scalar PeekingUnderTheHoodShowcase.gate flowIncomingPacketLengths:histogram:stddev nan
scalar PeekingUnderTheHoodShowcase.gate flowIncomingPacketLengths:histogram:min nan
scalar PeekingUnderTheHoodShowcase.gate flowIncomingPacketLengths:histogram:max nan
scalar PeekingUnderTheHoodShowcase.gate flowIncomingPacketLengths:histogram:numbins 1
scalar PeekingUnderTheHoodShowcase.gate flowIncomingPacketLengths:histogram:rangemin 0
scalar PeekingUnderTheHoodShowcase.gate flowIncomingPacketLengths:histogram:rangemax 1
scalar PeekingUnderTheHoodShowcase.gate flowIncomingPacketLengths:histogram:underflows 0
scalar PeekingUnderTheHoodShowcase.gate flowIncomingPacketLengths:histogram:overflows 0
scalar PeekingUnderTheHoodShowcase.server incomingPacketLengths:histogram:count 56501
scalar PeekingUnderTheHoodShowcase.server incomingPacketLengths:histogram:sumweights 56501
scalar PeekingUnderTheHoodShowcase.server incomingPacketLengths:histogram:mean 8000
scalar PeekingUnderTheHoodShowcase.server incomingPacketLengths:histogram:stddev 0
scalar PeekingUnderTheHoodShowcase.server incomingPacketLengths:histogram:min 8000
scalar PeekingUnderTheHoodShowcase.server incomingPacketLengths:histogram:max 8000
scalar PeekingUnderTheHoodShowcase.server incomingPacketLengths:histogram:numbins 2
scalar PeekingUnderTheHoodShowcase.server incomingPacketLengths:histogram:rangemin 7999
scalar PeekingUnderTheHoodShowcase.server incomingPacketLengths:histogram:rangemax 8001
scalar PeekingUnderTheHoodShowcase.server incomingPacketLengths:histogram:underflows 0
scalar PeekingUnderTheHoodShowcase.server incomingPacketLengths:histogram:overflows 0
scalar PeekingUnderTheHoodShowcase.server outgoingPacketLengths:histogram:count 56501
scalar PeekingUnderTheHoodShowcase.server outgoingPacketLengths:histogram:sumweights 56501
scalar PeekingUnderTheHoodShowcase.server outgoingPacketLengths:histogram:mean 8000
scalar PeekingUnderTheHoodShowcase.server outgoingPacketLengths:histogram:stddev 0
scalar PeekingUnderTheHoodShowcase.server outgoingPacketLengths:histogram:min 8000
scalar PeekingUnderTheHoodShowcase.server outgoingPacketLengths:histogram:max 8000
scalar PeekingUnderTheHoodShowcase.server outgoingPacketLengths:histogram:numbins 2
scalar PeekingUnderTheHoodShowcase.server outgoingPacketLengths:histogram:rangemin 7999
scalar PeekingUnderTheHoodShowcase.server outgoingPacketLengths:histogram:rangemax 8001
scalar PeekingUnderTheHoodShowcase.server outgoingPacketLengths:histogram:underflows 0
scalar PeekingUnderTheHoodShowcase.server outgoingPacketLengths:histogram:overflows 0
scalar PeekingUnderTheHoodShowcase.classifier packetLengths:histogram:count 56501
scalar PeekingUnderTheHoodShowcase.classifier packetLengths:histogram:sumweights 56501
scalar PeekingUnderTheHoodShowcase.classifier packetLengths:histogram:mean 8000
scalar PeekingUnderTheHoodShowcase.classifier packetLengths:histogram:stddev 0
scalar PeekingUnderTheHoodShowcase.classifier packetLengths:histogram:min 8000
scalar PeekingUnderTheHoodShowcase.classifier packetLengths:histogram:max 8000
scalar PeekingUnderTheHoodShowcase.classifier packetLengths:histogram:numbins 2
scalar PeekingUnderTheHoodShowcase.classifier packetLengths:histogram:rangemin 7999
scalar PeekingUnderTheHoodShowcase.classifier packetLengths:histogram:rangemax 8001
scalar PeekingUnderTheHoodShowcase.classifier packetLengths:histogram:underflows 0
scalar PeekingUnderTheHoodShowcase.classifier packetLengths:histogram:overflows 0
scalar PeekingUnderTheHoodShowcase.sink[0] packetLengths:histogram:count 18943
scalar PeekingUnderTheHoodShowcase.sink[0] packetLengths:histogram:sumweights 18943
scalar PeekingUnderTheHoodShowcase.sink[0] packetLengths:histogram:mean 8000
scalar PeekingUnderTheHoodShowcase.sink[0] packetLengths:histogram:stddev 0
scalar PeekingUnderTheHoodShowcase.sink[0] packetLengths:histogram:min 8000
scalar PeekingUnderTheHoodShowcase.sink[0] packetLengths:histogram:max 8000
scalar PeekingUnderTheHoodShowcase.sink[0] packetLengths:histogram:numbins 2
scalar PeekingUnderTheHoodShowcase.sink[0] packetLengths:histogram:rangemin 7999
scalar PeekingUnderTheHoodShowcase.sink[0] packetLengths:histogram:rangemax 8001
scalar PeekingUnderTheHoodShowcase.sink[0] packetLengths:histogram:underflows 0
scalar PeekingUnderTheHoodShowcase.sink[0] packetLengths:histogram:overflows 0
scalar PeekingUnderTheHoodShowcase.sink[0] meanBitLifeTimePerPacket:histogram:count 18943
scalar PeekingUnderTheHoodShowcase.sink[0] meanBitLifeTimePerPacket:histogram:sumweights 18943
scalar PeekingUnderTheHoodShowcase.sink[0] meanBitLifeTimePerPacket:histogram:mean 0.0048127501835466113
scalar PeekingUnderTheHoodShowcase.sink[0] meanBitLifeTimePerPacket:histogram:stddev 0.0047320476589663664
scalar PeekingUnderTheHoodShowcase.sink[0] meanBitLifeTimePerPacket:histogram:min 9.9999999999999991e-05
scalar PeekingUnderTheHoodShowcase.sink[0] meanBitLifeTimePerPacket:histogram:max 0.010226598254000002
scalar PeekingUnderTheHoodShowcase.sink[0] meanBitLifeTimePerPacket:histogram:numbins 64
scalar PeekingUnderTheHoodShowcase.sink[0] meanBitLifeTimePerPacket:histogram:rangemin 6.0000000000000015e-05
scalar PeekingUnderTheHoodShowcase.sink[0] meanBitLifeTimePerPacket:histogram:rangemax 0.010300000000000023
scalar PeekingUnderTheHoodShowcase.sink[0] meanBitLifeTimePerPacket:histogram:underflows 0
scalar PeekingUnderTheHoodShowcase.sink[0] meanBitLifeTimePerPacket:histogram:overflows 0
scalar PeekingUnderTheHoodShowcase.sink[0] packetLifeTime:histogram:count 18943
scalar PeekingUnderTheHoodShowcase.sink[0] packetLifeTime:histogram:sumweights 18943
scalar PeekingUnderTheHoodShowcase.sink[0] packetLifeTime:histogram:mean 0.0048127501835466113
scalar PeekingUnderTheHoodShowcase.sink[0] packetLifeTime:histogram:stddev 0.0047320476589663664
scalar PeekingUnderTheHoodShowcase.sink[0] packetLifeTime:histogram:min 9.9999999999999991e-05
scalar PeekingUnderTheHoodShowcase.sink[0] packetLifeTime:histogram:max 0.010226598254
scalar PeekingUnderTheHoodShowcase.sink[0] packetLifeTime:histogram:numbins 64
scalar PeekingUnderTheHoodShowcase.sink[0] packetLifeTime:histogram:rangemin 6.0000000000000015e-05
scalar PeekingUnderTheHoodShowcase.sink[0] packetLifeTime:histogram:rangemax 0.010300000000000023
scalar PeekingUnderTheHoodShowcase.sink[0] packetLifeTime:histogram:underflows 0
scalar PeekingUnderTheHoodShowcase.sink[0] packetLifeTime:histogram:overflows 0
scalar PeekingUnderTheHoodShowcase.sink[0] packetJitter:histogram:count 18943
scalar PeekingUnderTheHoodShowcase.sink[0] packetJitter:histogram:sumweights 18943
scalar PeekingUnderTheHoodShowcase.sink[0] packetJitter:histogram:mean 5.2789948793749666e-09
scalar PeekingUnderTheHoodShowcase.sink[0] packetJitter:histogram:stddev 0.000106626673877016
scalar PeekingUnderTheHoodShowcase.sink[0] packetJitter:histogram:min -0.00052794508399999981
scalar PeekingUnderTheHoodShowcase.sink[0] packetJitter:histogram:max 0.00025043675299999887
scalar PeekingUnderTheHoodShowcase.sink[0] packetJitter:histogram:numbins 49
scalar PeekingUnderTheHoodShowcase.sink[0] packetJitter:histogram:rangemin -0.00052800000000000004
scalar PeekingUnderTheHoodShowcase.sink[0] packetJitter:histogram:rangemax 0.00025600000000000004
scalar PeekingUnderTheHoodShowcase.sink[0] packetJitter:histogram:underflows 0
scalar PeekingUnderTheHoodShowcase.sink[0] packetJitter:histogram:overflows 0
scalar PeekingUnderTheHoodShowcase.sink[0] packetDelayDifferenceToMean:histogram:count 18943
scalar PeekingUnderTheHoodShowcase.sink[0] packetDelayDifferenceToMean:histogram:sumweights 18943
scalar PeekingUnderTheHoodShowcase.sink[0] packetDelayDifferenceToMean:histogram:mean -0.0014040689782522707
scalar PeekingUnderTheHoodShowcase.sink[0] packetDelayDifferenceToMean:histogram:stddev 0.0045185993267545339
scalar PeekingUnderTheHoodShowcase.sink[0] packetDelayDifferenceToMean:histogram:min -0.009608652964778577
scalar PeekingUnderTheHoodShowcase.sink[0] packetDelayDifferenceToMean:histogram:max 0.0048664570175496235
scalar PeekingUnderTheHoodShowcase.sink[0] packetDelayDifferenceToMean:histogram:numbins 46
scalar PeekingUnderTheHoodShowcase.sink[0] packetDelayDifferenceToMean:histogram:rangemin -0.0097400000000000212
scalar PeekingUnderTheHoodShowcase.sink[0] packetDelayDifferenceToMean:histogram:rangemax 0.0049800000000000027
scalar PeekingUnderTheHoodShowcase.sink[0] packetDelayDifferenceToMean:histogram:underflows 0
scalar PeekingUnderTheHoodShowcase.sink[0] packetDelayDifferenceToMean:histogram:overflows 0
scalar PeekingUnderTheHoodShowcase.sink[0] packetDelayVariation:histogram:count 18943
scalar PeekingUnderTheHoodShowcase.sink[0] packetDelayVariation:histogram:sumweights 18943
scalar PeekingUnderTheHoodShowcase.sink[0] packetDelayVariation:histogram:mean 0.0037892897387389415
scalar PeekingUnderTheHoodShowcase.sink[0] packetDelayVariation:histogram:stddev 0.0017634015163449056
scalar PeekingUnderTheHoodShowcase.sink[0] packetDelayVariation:histogram:min 0
scalar PeekingUnderTheHoodShowcase.sink[0] packetDelayVariation:histogram:max 0.0048132132023462502
scalar PeekingUnderTheHoodShowcase.sink[0] packetDelayVariation:histogram:numbins 76
scalar PeekingUnderTheHoodShowcase.sink[0] packetDelayVariation:histogram:rangemin 0
scalar PeekingUnderTheHoodShowcase.sink[0] packetDelayVariation:histogram:rangemax 0.0048639999999999873
scalar PeekingUnderTheHoodShowcase.sink[0] packetDelayVariation:histogram:underflows 0
scalar PeekingUnderTheHoodShowcase.sink[0] packetDelayVariation:histogram:overflows 0
scalar PeekingUnderTheHoodShowcase.sink[0] droppedPacketLengths:histogram:count 18943
scalar PeekingUnderTheHoodShowcase.sink[0] droppedPacketLengths:histogram:sumweights 18943
scalar PeekingUnderTheHoodShowcase.sink[0] droppedPacketLengths:histogram:mean 8000
scalar PeekingUnderTheHoodShowcase.sink[0] droppedPacketLengths:histogram:stddev 0
scalar PeekingUnderTheHoodShowcase.sink[0] droppedPacketLengths:histogram:min 8000
scalar PeekingUnderTheHoodShowcase.sink[0] droppedPacketLengths:histogram:max 8000
scalar PeekingUnderTheHoodShowcase.sink[0] droppedPacketLengths:histogram:numbins 2
scalar PeekingUnderTheHoodShowcase.sink[0] droppedPacketLengths:histogram:rangemin 7999
scalar PeekingUnderTheHoodShowcase.sink[0] droppedPacketLengths:histogram:rangemax 8001
scalar PeekingUnderTheHoodShowcase.sink[0] droppedPacketLengths:histogram:underflows 0
scalar PeekingUnderTheHoodShowcase.sink[0] droppedPacketLengths:histogram:overflows 0
scalar PeekingUnderTheHoodShowcase.sink[1] packetLengths:histogram:count 18968
scalar PeekingUnderTheHoodShowcase.sink[1] packetLengths:histogram:sumweights 18968
scalar PeekingUnderTheHoodShowcase.sink[1] packetLengths:histogram:mean 8000
scalar PeekingUnderTheHoodShowcase.sink[1] packetLengths:histogram:stddev 0
scalar PeekingUnderTheHoodShowcase.sink[1] packetLengths:histogram:min 8000
scalar PeekingUnderTheHoodShowcase.sink[1] packetLengths:histogram:max 8000
scalar PeekingUnderTheHoodShowcase.sink[1] packetLengths:histogram:numbins 2
scalar PeekingUnderTheHoodShowcase.sink[1] packetLengths:histogram:rangemin 7999
scalar PeekingUnderTheHoodShowcase.sink[1] packetLengths:histogram:rangemax 8001
scalar PeekingUnderTheHoodShowcase.sink[1] packetLengths:histogram:underflows 0
scalar PeekingUnderTheHoodShowcase.sink[1] packetLengths:histogram:overflows 0
scalar PeekingUnderTheHoodShowcase.sink[1] meanBitLifeTimePerPacket:histogram:count 18968
scalar PeekingUnderTheHoodShowcase.sink[1] meanBitLifeTimePerPacket:histogram:sumweights 18968
scalar PeekingUnderTheHoodShowcase.sink[1] meanBitLifeTimePerPacket:histogram:mean 0.0046474204199402945
scalar PeekingUnderTheHoodShowcase.sink[1] meanBitLifeTimePerPacket:histogram:stddev 0.0046793130490778451
scalar PeekingUnderTheHoodShowcase.sink[1] meanBitLifeTimePerPacket:histogram:min 9.9999999999999991e-05
scalar PeekingUnderTheHoodShowcase.sink[1] meanBitLifeTimePerPacket:histogram:max 0.010234338211
scalar PeekingUnderTheHoodShowcase.sink[1] meanBitLifeTimePerPacket:histogram:numbins 80
scalar PeekingUnderTheHoodShowcase.sink[1] meanBitLifeTimePerPacket:histogram:rangemin 6.8000000000000013e-05
scalar PeekingUnderTheHoodShowcase.sink[1] meanBitLifeTimePerPacket:histogram:rangemax 0.01030799999999998
scalar PeekingUnderTheHoodShowcase.sink[1] meanBitLifeTimePerPacket:histogram:underflows 0
scalar PeekingUnderTheHoodShowcase.sink[1] meanBitLifeTimePerPacket:histogram:overflows 0
scalar PeekingUnderTheHoodShowcase.sink[1] packetLifeTime:histogram:count 18968
scalar PeekingUnderTheHoodShowcase.sink[1] packetLifeTime:histogram:sumweights 18968
scalar PeekingUnderTheHoodShowcase.sink[1] packetLifeTime:histogram:mean 0.0046474204199402945
scalar PeekingUnderTheHoodShowcase.sink[1] packetLifeTime:histogram:stddev 0.0046793130490778451
scalar PeekingUnderTheHoodShowcase.sink[1] packetLifeTime:histogram:min 9.9999999999999991e-05
scalar PeekingUnderTheHoodShowcase.sink[1] packetLifeTime:histogram:max 0.010234338211
scalar PeekingUnderTheHoodShowcase.sink[1] packetLifeTime:histogram:numbins 80
scalar PeekingUnderTheHoodShowcase.sink[1] packetLifeTime:histogram:rangemin 6.8000000000000013e-05
scalar PeekingUnderTheHoodShowcase.sink[1] packetLifeTime:histogram:rangemax 0.01030799999999998
scalar PeekingUnderTheHoodShowcase.sink[1] packetLifeTime:histogram:underflows 0
scalar PeekingUnderTheHoodShowcase.sink[1] packetLifeTime:histogram:overflows 0
scalar PeekingUnderTheHoodShowcase.sink[1] packetJitter:histogram:count 18968
scalar PeekingUnderTheHoodShowcase.sink[1] packetJitter:histogram:sumweights 18968
scalar PeekingUnderTheHoodShowcase.sink[1] packetJitter:histogram:mean 5.1274893346689158e-07
scalar PeekingUnderTheHoodShowcase.sink[1] packetJitter:histogram:stddev 0.00010534114261115281
scalar PeekingUnderTheHoodShowcase.sink[1] packetJitter:histogram:min -0.00050853994999999937
scalar PeekingUnderTheHoodShowcase.sink[1] packetJitter:histogram:max 0.00028443962800000014
scalar PeekingUnderTheHoodShowcase.sink[1] packetJitter:histogram:numbins 80
scalar PeekingUnderTheHoodShowcase.sink[1] packetJitter:histogram:rangemin -0.00051000000000000015
scalar PeekingUnderTheHoodShowcase.sink[1] packetJitter:histogram:rangemax 0.00029
scalar PeekingUnderTheHoodShowcase.sink[1] packetJitter:histogram:underflows 0
scalar PeekingUnderTheHoodShowcase.sink[1] packetJitter:histogram:overflows 0
scalar PeekingUnderTheHoodShowcase.sink[1] packetDelayDifferenceToMean:histogram:count 18968
scalar PeekingUnderTheHoodShowcase.sink[1] packetDelayDifferenceToMean:histogram:sumweights 18968
scalar PeekingUnderTheHoodShowcase.sink[1] packetDelayDifferenceToMean:histogram:mean -0.00090504004898138088
scalar PeekingUnderTheHoodShowcase.sink[1] packetDelayDifferenceToMean:histogram:stddev 0.0045905818660309855
scalar PeekingUnderTheHoodShowcase.sink[1] packetDelayDifferenceToMean:histogram:min -0.0095575491375096636
scalar PeekingUnderTheHoodShowcase.sink[1] packetDelayDifferenceToMean:histogram:max 0.0048062618823711632
scalar PeekingUnderTheHoodShowcase.sink[1] packetDelayDifferenceToMean:histogram:numbins 57
scalar PeekingUnderTheHoodShowcase.sink[1] packetDelayDifferenceToMean:histogram:rangemin -0.0096799999999999838
scalar PeekingUnderTheHoodShowcase.sink[1] packetDelayDifferenceToMean:histogram:rangemax 0.0049120000000000023
scalar PeekingUnderTheHoodShowcase.sink[1] packetDelayDifferenceToMean:histogram:underflows 0
scalar PeekingUnderTheHoodShowcase.sink[1] packetDelayDifferenceToMean:histogram:overflows 0
scalar PeekingUnderTheHoodShowcase.sink[1] packetDelayVariation:histogram:count 18968
scalar PeekingUnderTheHoodShowcase.sink[1] packetDelayVariation:histogram:sumweights 18968
scalar PeekingUnderTheHoodShowcase.sink[1] packetDelayVariation:histogram:mean 0.0040403257336313007
scalar PeekingUnderTheHoodShowcase.sink[1] packetDelayVariation:histogram:stddev 0.0015068600366364817
scalar PeekingUnderTheHoodShowcase.sink[1] packetDelayVariation:histogram:min 0
scalar PeekingUnderTheHoodShowcase.sink[1] packetDelayVariation:histogram:max 0.0047786367853920372
scalar PeekingUnderTheHoodShowcase.sink[1] packetDelayVariation:histogram:numbins 75
scalar PeekingUnderTheHoodShowcase.sink[1] packetDelayVariation:histogram:rangemin 0
scalar PeekingUnderTheHoodShowcase.sink[1] packetDelayVariation:histogram:rangemax 0.0047999999999999874
scalar PeekingUnderTheHoodShowcase.sink[1] packetDelayVariation:histogram:underflows 0
scalar PeekingUnderTheHoodShowcase.sink[1] packetDelayVariation:histogram:overflows 0
scalar PeekingUnderTheHoodShowcase.sink[1] droppedPacketLengths:histogram:count 18968
scalar PeekingUnderTheHoodShowcase.sink[1] droppedPacketLengths:histogram:sumweights 18968
scalar PeekingUnderTheHoodShowcase.sink[1] droppedPacketLengths:histogram:mean 8000
scalar PeekingUnderTheHoodShowcase.sink[1] droppedPacketLengths:histogram:stddev 0
scalar PeekingUnderTheHoodShowcase.sink[1] droppedPacketLengths:histogram:min 8000
scalar PeekingUnderTheHoodShowcase.sink[1] droppedPacketLengths:histogram:max 8000
scalar PeekingUnderTheHoodShowcase.sink[1] droppedPacketLengths:histogram:numbins 2
scalar PeekingUnderTheHoodShowcase.sink[1] droppedPacketLengths:histogram:rangemin 7999
scalar PeekingUnderTheHoodShowcase.sink[1] droppedPacketLengths:histogram:rangemax 8001
scalar PeekingUnderTheHoodShowcase.sink[1] droppedPacketLengths:histogram:underflows 0
scalar PeekingUnderTheHoodShowcase.sink[1] droppedPacketLengths:histogram:overflows 0
scalar PeekingUnderTheHoodShowcase.sink[2] packetLengths:histogram:count 18590
scalar PeekingUnderTheHoodShowcase.sink[2] packetLengths:histogram:sumweights 18590
scalar PeekingUnderTheHoodShowcase.sink[2] packetLengths:histogram:mean 8000
scalar PeekingUnderTheHoodShowcase.sink[2] packetLengths:histogram:stddev 0
scalar PeekingUnderTheHoodShowcase.sink[2] packetLengths:histogram:min 8000
scalar PeekingUnderTheHoodShowcase.sink[2] packetLengths:histogram:max 8000
scalar PeekingUnderTheHoodShowcase.sink[2] packetLengths:histogram:numbins 2
scalar PeekingUnderTheHoodShowcase.sink[2] packetLengths:histogram:rangemin 7999
scalar PeekingUnderTheHoodShowcase.sink[2] packetLengths:histogram:rangemax 8001
scalar PeekingUnderTheHoodShowcase.sink[2] packetLengths:histogram:underflows 0
scalar PeekingUnderTheHoodShowcase.sink[2] packetLengths:histogram:overflows 0
scalar PeekingUnderTheHoodShowcase.sink[2] meanBitLifeTimePerPacket:histogram:count 18590
scalar PeekingUnderTheHoodShowcase.sink[2] meanBitLifeTimePerPacket:histogram:sumweights 18590
scalar PeekingUnderTheHoodShowcase.sink[2] meanBitLifeTimePerPacket:histogram:mean 0.0039426211969087969
scalar PeekingUnderTheHoodShowcase.sink[2] meanBitLifeTimePerPacket:histogram:stddev 0.0045438198233368867
scalar PeekingUnderTheHoodShowcase.sink[2] meanBitLifeTimePerPacket:histogram:min 9.9999999999999991e-05
scalar PeekingUnderTheHoodShowcase.sink[2] meanBitLifeTimePerPacket:histogram:max 0.010272928444000001
scalar PeekingUnderTheHoodShowcase.sink[2] meanBitLifeTimePerPacket:histogram:numbins 64
scalar PeekingUnderTheHoodShowcase.sink[2] meanBitLifeTimePerPacket:histogram:rangemin 4.500000000000001e-05
scalar PeekingUnderTheHoodShowcase.sink[2] meanBitLifeTimePerPacket:histogram:rangemax 0.010285000000000022
scalar PeekingUnderTheHoodShowcase.sink[2] meanBitLifeTimePerPacket:histogram:underflows 0
scalar PeekingUnderTheHoodShowcase.sink[2] meanBitLifeTimePerPacket:histogram:overflows 0
scalar PeekingUnderTheHoodShowcase.sink[2] packetLifeTime:histogram:count 18590
scalar PeekingUnderTheHoodShowcase.sink[2] packetLifeTime:histogram:sumweights 18590
scalar PeekingUnderTheHoodShowcase.sink[2] packetLifeTime:histogram:mean 0.0039426211969087969
scalar PeekingUnderTheHoodShowcase.sink[2] packetLifeTime:histogram:stddev 0.0045438198233368867
scalar PeekingUnderTheHoodShowcase.sink[2] packetLifeTime:histogram:min 9.9999999999999991e-05
scalar PeekingUnderTheHoodShowcase.sink[2] packetLifeTime:histogram:max 0.010272928444000001
scalar PeekingUnderTheHoodShowcase.sink[2] packetLifeTime:histogram:numbins 64
scalar PeekingUnderTheHoodShowcase.sink[2] packetLifeTime:histogram:rangemin 4.500000000000001e-05
scalar PeekingUnderTheHoodShowcase.sink[2] packetLifeTime:histogram:rangemax 0.010285000000000022
scalar PeekingUnderTheHoodShowcase.sink[2] packetLifeTime:histogram:underflows 0
scalar PeekingUnderTheHoodShowcase.sink[2] packetLifeTime:histogram:overflows 0
scalar PeekingUnderTheHoodShowcase.sink[2] packetJitter:histogram:count 18590
scalar PeekingUnderTheHoodShowcase.sink[2] packetJitter:histogram:sumweights 18590
scalar PeekingUnderTheHoodShowcase.sink[2] packetJitter:histogram:mean 5.3476593378160307e-07
scalar PeekingUnderTheHoodShowcase.sink[2] packetJitter:histogram:stddev 9.1626155806193624e-05
scalar PeekingUnderTheHoodShowcase.sink[2] packetJitter:histogram:min -0.00056937573699999966
scalar PeekingUnderTheHoodShowcase.sink[2] packetJitter:histogram:max 0.00029999999999999997
scalar PeekingUnderTheHoodShowcase.sink[2] packetJitter:histogram:numbins 49
scalar PeekingUnderTheHoodShowcase.sink[2] packetJitter:histogram:rangemin -0.00057000000000000009
scalar PeekingUnderTheHoodShowcase.sink[2] packetJitter:histogram:rangemax 0.00040999999999999999
scalar PeekingUnderTheHoodShowcase.sink[2] packetJitter:histogram:underflows 0
scalar PeekingUnderTheHoodShowcase.sink[2] packetJitter:histogram:overflows 0
scalar PeekingUnderTheHoodShowcase.sink[2] packetDelayDifferenceToMean:histogram:count 18590
scalar PeekingUnderTheHoodShowcase.sink[2] packetDelayDifferenceToMean:histogram:sumweights 18590
scalar PeekingUnderTheHoodShowcase.sink[2] packetDelayDifferenceToMean:histogram:mean -0.00087502504012607204
scalar PeekingUnderTheHoodShowcase.sink[2] packetDelayDifferenceToMean:histogram:stddev 0.0044584166185392205
scalar PeekingUnderTheHoodShowcase.sink[2] packetDelayDifferenceToMean:histogram:min -0.0091118679867997106
scalar PeekingUnderTheHoodShowcase.sink[2] packetDelayDifferenceToMean:histogram:max 0.0048631534127009761
scalar PeekingUnderTheHoodShowcase.sink[2] packetDelayDifferenceToMean:histogram:numbins 89
scalar PeekingUnderTheHoodShowcase.sink[2] packetDelayDifferenceToMean:histogram:rangemin -0.0092500000000000186
scalar PeekingUnderTheHoodShowcase.sink[2] packetDelayDifferenceToMean:histogram:rangemax 0.0049900000000000022
scalar PeekingUnderTheHoodShowcase.sink[2] packetDelayDifferenceToMean:histogram:underflows 0
scalar PeekingUnderTheHoodShowcase.sink[2] packetDelayDifferenceToMean:histogram:overflows 0
scalar PeekingUnderTheHoodShowcase.sink[2] packetDelayVariation:histogram:count 18590
scalar PeekingUnderTheHoodShowcase.sink[2] packetDelayVariation:histogram:sumweights 18590
scalar PeekingUnderTheHoodShowcase.sink[2] packetDelayVariation:histogram:mean 0.003787542061039957
scalar PeekingUnderTheHoodShowcase.sink[2] packetDelayVariation:histogram:stddev 0.0012112529535502109
scalar PeekingUnderTheHoodShowcase.sink[2] packetDelayVariation:histogram:min 0
scalar PeekingUnderTheHoodShowcase.sink[2] packetDelayVariation:histogram:max 0.0047062721016258389
scalar PeekingUnderTheHoodShowcase.sink[2] packetDelayVariation:histogram:numbins 74
scalar PeekingUnderTheHoodShowcase.sink[2] packetDelayVariation:histogram:rangemin 0
scalar PeekingUnderTheHoodShowcase.sink[2] packetDelayVariation:histogram:rangemax 0.0047359999999999876
scalar PeekingUnderTheHoodShowcase.sink[2] packetDelayVariation:histogram:underflows 0
scalar PeekingUnderTheHoodShowcase.sink[2] packetDelayVariation:histogram:overflows 0
scalar PeekingUnderTheHoodShowcase.sink[2] droppedPacketLengths:histogram:count 18590
scalar PeekingUnderTheHoodShowcase.sink[2] droppedPacketLengths:histogram:sumweights 18590
scalar PeekingUnderTheHoodShowcase.sink[2] droppedPacketLengths:histogram:mean 8000
scalar PeekingUnderTheHoodShowcase.sink[2] droppedPacketLengths:histogram:stddev 0
scalar PeekingUnderTheHoodShowcase.sink[2] droppedPacketLengths:histogram:min 8000
scalar PeekingUnderTheHoodShowcase.sink[2] droppedPacketLengths:histogram:max 8000
scalar PeekingUnderTheHoodShowcase.sink[2] droppedPacketLengths:histogram:numbins 2
scalar PeekingUnderTheHoodShowcase.sink[2] droppedPacketLengths:histogram:rangemin 7999
scalar PeekingUnderTheHoodShowcase.sink[2] droppedPacketLengths:histogram:rangemax 8001
scalar PeekingUnderTheHoodShowcase.sink[2] droppedPacketLengths:histogram:underflows 0
scalar PeekingUnderTheHoodShowcase.sink[2] droppedPacketLengths:histogram:overflows 0
statistic PeekingUnderTheHoodShowcase.source[0] packetLengths:histogram
field count 20284
field mean 8000
field stddev 0
field min 8000
field max 8000
field sum 162272000
field sqrsum 1298176000000
bin	-inf	0
bin	7999	0
bin	8000	20284
bin	8001	0
statistic PeekingUnderTheHoodShowcase.source[1] packetLengths:histogram
field count 20299
field mean 8000
field stddev 0
field min 8000
field max 8000
field sum 162392000
field sqrsum 1299136000000
bin	-inf	0
bin	7999	0
bin	8000	20299
bin	8001	0
statistic PeekingUnderTheHoodShowcase.source[2] packetLengths:histogram
field count 19995
field mean 8000
field stddev 0
field min 8000
field max 8000
field sum 159960000
field sqrsum 1279680000000
bin	-inf	0
bin	7999	0
bin	8000	19995
bin	8001	0
statistic PeekingUnderTheHoodShowcase.meter[0] outgoingPacketLengths:histogram
field count 20284
field mean 8000
field stddev 0
field min 8000
field max 8000
field sum 162272000
field sqrsum 1298176000000
bin	-inf	0
bin	7999	0
bin	8000	20284
bin	8001	0
statistic PeekingUnderTheHoodShowcase.meter[0] flowOutgoingPacketLengths:histogram
field count 0
field mean -nan
field stddev nan
field min nan
field max nan
field sum 0
field sqrsum 0
bin	-inf	0
bin	0	0
bin	1	0
statistic PeekingUnderTheHoodShowcase.meter[0] incomingPacketLengths:histogram
field count 20284
field mean 8000
field stddev 0
field min 8000
field max 8000
field sum 162272000
field sqrsum 1298176000000
bin	-inf	0
bin	7999	0
bin	8000	20284
bin	8001	0
statistic PeekingUnderTheHoodShowcase.meter[0] flowIncomingPacketLengths:histogram
field count 0
field mean -nan
field stddev nan
field min nan
field max nan
field sum 0
field sqrsum 0
bin	-inf	0
bin	0	0
bin	1	0
statistic PeekingUnderTheHoodShowcase.meter[1] outgoingPacketLengths:histogram
field count 20299
field mean 8000
field stddev 0
field min 8000
field max 8000
field sum 162392000
field sqrsum 1299136000000
bin	-inf	0
bin	7999	0
bin	8000	20299
bin	8001	0
statistic PeekingUnderTheHoodShowcase.meter[1] flowOutgoingPacketLengths:histogram
field count 0
field mean -nan
field stddev nan
field min nan
field max nan
field sum 0
field sqrsum 0
bin	-inf	0
bin	0	0
bin	1	0
statistic PeekingUnderTheHoodShowcase.meter[1] incomingPacketLengths:histogram
field count 20299
field mean 8000
field stddev 0
field min 8000
field max 8000
field sum 162392000
field sqrsum 1299136000000
bin	-inf	0
bin	7999	0
bin	8000	20299
bin	8001	0
statistic PeekingUnderTheHoodShowcase.meter[1] flowIncomingPacketLengths:histogram
field count 0
field mean -nan
field stddev nan
field min nan
field max nan
field sum 0
field sqrsum 0
bin	-inf	0
bin	0	0
bin	1	0
statistic PeekingUnderTheHoodShowcase.meter[2] outgoingPacketLengths:histogram
field count 19995
field mean 8000
field stddev 0
field min 8000
field max 8000
field sum 159960000
field sqrsum 1279680000000
bin	-inf	0
bin	7999	0
bin	8000	19995
bin	8001	0
statistic PeekingUnderTheHoodShowcase.meter[2] flowOutgoingPacketLengths:histogram
field count 0
field mean -nan
field stddev nan
field min nan
field max nan
field sum 0
field sqrsum 0
bin	-inf	0
bin	0	0
bin	1	0
statistic PeekingUnderTheHoodShowcase.meter[2] incomingPacketLengths:histogram
field count 19995
field mean 8000
field stddev 0
field min 8000
field max 8000
field sum 159960000
field sqrsum 1279680000000
bin	-inf	0
bin	7999	0
bin	8000	19995
bin	8001	0
statistic PeekingUnderTheHoodShowcase.meter[2] flowIncomingPacketLengths:histogram
field count 0
field mean -nan
field stddev nan
field min nan
field max nan
field sum 0
field sqrsum 0
bin	-inf	0
bin	0	0
bin	1	0
statistic PeekingUnderTheHoodShowcase.multiplexer packetLengths:histogram
field count 0
field mean -nan
field stddev nan
field min nan
field max nan
field sum 0
field sqrsum 0
bin	-inf	0
bin	0	0
bin	1	0
statistic PeekingUnderTheHoodShowcase.filter outgoingPacketLengths:histogram
field count 56540
field mean 8000
field stddev 0
field min 8000
field max 8000
field sum 452320000
field sqrsum 3618560000000
bin	-inf	0
bin	7999	0
bin	8000	56540
bin	8001	0
statistic PeekingUnderTheHoodShowcase.filter flowOutgoingPacketLengths:histogram
field count 0
field mean -nan
field stddev nan
field min nan
field max nan
field sum 0
field sqrsum 0
bin	-inf	0
bin	0	0
bin	1	0
statistic PeekingUnderTheHoodShowcase.filter incomingPacketLengths:histogram
field count 60578
field mean 8000
field stddev 0
field min 8000
field max 8000
field sum 484624000
field sqrsum 3876992000000
bin	-inf	0
bin	7999	0
bin	8000	60578
bin	8001	0
statistic PeekingUnderTheHoodShowcase.filter flowIncomingPacketLengths:histogram
field count 0
field mean -nan
field stddev nan
field min nan
field max nan
field sum 0
field sqrsum 0
bin	-inf	0
bin	0	0
bin	1	0
statistic PeekingUnderTheHoodShowcase.filter droppedPacketLengths:histogram
field count 4038
field mean 8000
field stddev 0
field min 8000
field max 8000
field sum 32304000
field sqrsum 258432000000
bin	-inf	0
bin	7999	0
bin	8000	4038
bin	8001	0
statistic PeekingUnderTheHoodShowcase.filter flowDroppedPacketLengths:histogram
field count 0
field mean -nan
field stddev nan
field min nan
field max nan
field sum 0
field sqrsum 0
bin	-inf	0
bin	0	0
bin	1	0
statistic PeekingUnderTheHoodShowcase.queue queueingTime:histogram
field count 56501
field mean 0.0043709567140910264
field stddev 0.0046681792377968193
field min 0
field max 0.010172928443999999
field sum 246.9634253028571
field sqrsum 2.3107086448475882
bin	-inf	0
bin	0	28230
bin	0.00016000000000000004	305
bin	0.00032000000000000003	93
bin	0.00048000000000000007	94
bin	0.00064000000000000005	93
bin	0.00080000000000000015	103
bin	0.00096000000000000024	92
bin	0.0011200000000000003	92
bin	0.0012800000000000005	85
bin	0.0014400000000000005	102
bin	0.0016000000000000007	94
bin	0.0017600000000000009	87
bin	0.0019200000000000009	92
bin	0.0020800000000000011	94
bin	0.0022400000000000015	89
bin	0.002400000000000002	90
bin	0.0025600000000000024	92
bin	0.0027200000000000024	90
bin	0.0028800000000000028	94
bin	0.0030400000000000032	89
bin	0.0032000000000000036	92
bin	0.003360000000000004	94
bin	0.0035200000000000045	94
bin	0.0036800000000000049	85
bin	0.0038400000000000049	95
bin	0.0040000000000000053	93
bin	0.0041600000000000057	90
bin	0.0043200000000000061	90
bin	0.0044800000000000065	94
bin	0.004640000000000007	99
bin	0.0048000000000000074	94
bin	0.0049600000000000078	93
bin	0.0051200000000000082	97
bin	0.0052800000000000086	94
bin	0.0054400000000000091	96
bin	0.0056000000000000095	97
bin	0.0057600000000000099	101
bin	0.0059200000000000103	96
bin	0.0060800000000000107	97
bin	0.0062400000000000112	105
bin	0.0064000000000000116	95
bin	0.006560000000000012	179
bin	0.0067200000000000124	140
bin	0.0068800000000000128	131
bin	0.0070400000000000133	128
bin	0.0072000000000000137	131
bin	0.0073600000000000141	130
bin	0.0075200000000000145	124
bin	0.0076800000000000149	139
bin	0.0078400000000000154	130
bin	0.0080000000000000158	150
bin	0.0081600000000000162	138
bin	0.0083200000000000166	149
bin	0.008480000000000017	146
bin	0.0086400000000000175	163
bin	0.0088000000000000179	174
bin	0.0089600000000000183	172
bin	0.0091200000000000187	204
bin	0.0092800000000000191	226
bin	0.0094400000000000196	1318
bin	0.00960000000000002	7068
bin	0.0097600000000000204	8226
bin	0.0099200000000000208	4864
bin	0.010080000000000021	80
bin	0.010240000000000022	0
statistic PeekingUnderTheHoodShowcase.queue outgoingPacketLengths:histogram
field count 56501
field mean 8000
field stddev 0
field min 8000
field max 8000
field sum 452008000
field sqrsum 3616064000000
bin	-inf	0
bin	7999	0
bin	8000	56501
bin	8001	0
statistic PeekingUnderTheHoodShowcase.queue flowQueueingTime:histogram
field count 0
field mean -nan
field stddev nan
field min nan
field max nan
field sum 0
field sqrsum 0
bin	-inf	0
bin	0	0
bin	1	0
statistic PeekingUnderTheHoodShowcase.queue incomingPacketLengths:histogram
field count 56540
field mean 8000
field stddev 0
field min 8000
field max 8000
field sum 452320000
field sqrsum 3618560000000
bin	-inf	0
bin	7999	0
bin	8000	56540
bin	8001	0
statistic PeekingUnderTheHoodShowcase.gate outgoingPacketLengths:histogram
field count 56501
field mean 8000
field stddev 0
field min 8000
field max 8000
field sum 452008000
field sqrsum 3616064000000
bin	-inf	0
bin	7999	0
bin	8000	56501
bin	8001	0
statistic PeekingUnderTheHoodShowcase.gate flowOutgoingPacketLengths:histogram
field count 0
field mean -nan
field stddev nan
field min nan
field max nan
field sum 0
field sqrsum 0
bin	-inf	0
bin	0	0
bin	1	0
statistic PeekingUnderTheHoodShowcase.gate incomingPacketLengths:histogram
field count 56501
field mean 8000
field stddev 0
field min 8000
field max 8000
field sum 452008000
field sqrsum 3616064000000
bin	-inf	0
bin	7999	0
bin	8000	56501
bin	8001	0
statistic PeekingUnderTheHoodShowcase.gate flowIncomingPacketLengths:histogram
field count 0
field mean -nan
field stddev nan
field min nan
field max nan
field sum 0
field sqrsum 0
bin	-inf	0
bin	0	0
bin	1	0
statistic PeekingUnderTheHoodShowcase.server incomingPacketLengths:histogram
field count 56501
field mean 8000
field stddev 0
field min 8000
field max 8000
field sum 452008000
field sqrsum 3616064000000
bin	-inf	0
bin	7999	0
bin	8000	56501
bin	8001	0
statistic PeekingUnderTheHoodShowcase.server outgoingPacketLengths:histogram
field count 56501
field mean 8000
field stddev 0
field min 8000
field max 8000
field sum 452008000
field sqrsum 3616064000000
bin	-inf	0
bin	7999	0
bin	8000	56501
bin	8001	0
statistic PeekingUnderTheHoodShowcase.classifier packetLengths:histogram
field count 56501
field mean 8000
field stddev 0
field min 8000
field max 8000
field sum 452008000
field sqrsum 3616064000000
bin	-inf	0
bin	7999	0
bin	8000	56501
bin	8001	0
statistic PeekingUnderTheHoodShowcase.sink[0] packetLengths:histogram
field count 18943
field mean 8000
field stddev 0
field min 8000
field max 8000
field sum 151544000
field sqrsum 1212352000000
bin	-inf	0
bin	7999	0
bin	8000	18943
bin	8001	0
statistic PeekingUnderTheHoodShowcase.sink[0] meanBitLifeTimePerPacket:histogram
field count 18943
field mean 0.0048127501835466113
field stddev 0.0047320476589663664
field min 9.9999999999999991e-05
field max 0.010226598254000002
field sum 91.167926726923454
field sqrsum 0.8629229300237069
bin	-inf	0
bin	6.0000000000000015e-05	8904
bin	0.00022000000000000006	157
bin	0.00038000000000000008	28
bin	0.00054000000000000012	27
bin	0.00069999999999999999	26
bin	0.00085999999999999987	27
bin	0.0010200000000000001	27
bin	0.0011800000000000003	24
bin	0.0013400000000000007	25
bin	0.0015000000000000009	29
bin	0.0016600000000000013	26
bin	0.0018200000000000015	24
bin	0.0019800000000000017	29
bin	0.0021400000000000021	24
bin	0.0023000000000000026	26
bin	0.002460000000000003	28
bin	0.0026200000000000034	23
bin	0.0027800000000000038	24
bin	0.0029400000000000042	30
bin	0.0031000000000000047	26
bin	0.0032600000000000051	24
bin	0.0034200000000000055	27
bin	0.0035800000000000059	27
bin	0.0037400000000000059	24
bin	0.0039000000000000063	28
bin	0.0040600000000000063	23
bin	0.0042200000000000067	27
bin	0.0043800000000000072	28
bin	0.0045400000000000076	25
bin	0.004700000000000008	28
bin	0.0048600000000000084	27
bin	0.0050200000000000088	26
bin	0.0051800000000000092	28
bin	0.0053400000000000097	24
bin	0.0055000000000000101	29
bin	0.0056600000000000105	26
bin	0.0058200000000000109	31
bin	0.0059800000000000113	26
bin	0.0061400000000000118	27
bin	0.0063000000000000122	31
bin	0.0064600000000000126	28
bin	0.006620000000000013	31
bin	0.0067800000000000134	27
bin	0.0069400000000000139	32
bin	0.0071000000000000143	31
bin	0.0072600000000000147	31
bin	0.0074200000000000151	31
bin	0.0075800000000000155	31
bin	0.007740000000000016	35
bin	0.0079000000000000164	32
bin	0.0080600000000000168	37
bin	0.0082200000000000172	33
bin	0.0083800000000000176	41
bin	0.0085400000000000181	36
bin	0.0087000000000000185	43
bin	0.0088600000000000189	42
bin	0.0090200000000000193	44
bin	0.0091800000000000197	52
bin	0.0093400000000000202	47
bin	0.0095000000000000206	157
bin	0.009660000000000021	2429
bin	0.0098200000000000214	3102
bin	0.0099800000000000218	2424
bin	0.010140000000000022	77
bin	0.010300000000000023	0
statistic PeekingUnderTheHoodShowcase.sink[0] packetLifeTime:histogram
field count 18943
field mean 0.0048127501835466113
field stddev 0.0047320476589663664
field min 9.9999999999999991e-05
field max 0.010226598254
field sum 91.167926726923454
field sqrsum 0.8629229300237069
bin	-inf	0
bin	6.0000000000000015e-05	8904
bin	0.00022000000000000006	157
bin	0.00038000000000000008	28
bin	0.00054000000000000012	27
bin	0.00069999999999999999	26
bin	0.00085999999999999987	27
bin	0.0010200000000000001	27
bin	0.0011800000000000003	24
bin	0.0013400000000000007	25
bin	0.0015000000000000009	29
bin	0.0016600000000000013	26
bin	0.0018200000000000015	24
bin	0.0019800000000000017	29
bin	0.0021400000000000021	24
bin	0.0023000000000000026	26
bin	0.002460000000000003	28
bin	0.0026200000000000034	23
bin	0.0027800000000000038	24
bin	0.0029400000000000042	30
bin	0.0031000000000000047	26
bin	0.0032600000000000051	24
bin	0.0034200000000000055	27
bin	0.0035800000000000059	27
bin	0.0037400000000000059	24
bin	0.0039000000000000063	28
bin	0.0040600000000000063	23
bin	0.0042200000000000067	27
bin	0.0043800000000000072	28
bin	0.0045400000000000076	25
bin	0.004700000000000008	28
bin	0.0048600000000000084	27
bin	0.0050200000000000088	26
bin	0.0051800000000000092	28
bin	0.0053400000000000097	24
bin	0.0055000000000000101	29
bin	0.0056600000000000105	26
bin	0.0058200000000000109	31
bin	0.0059800000000000113	26
bin	0.0061400000000000118	27
bin	0.0063000000000000122	31
bin	0.0064600000000000126	28
bin	0.006620000000000013	31
bin	0.0067800000000000134	27
bin	0.0069400000000000139	32
bin	0.0071000000000000143	31
bin	0.0072600000000000147	31
bin	0.0074200000000000151	31
bin	0.0075800000000000155	31
bin	0.007740000000000016	35
bin	0.0079000000000000164	32
bin	0.0080600000000000168	37
bin	0.0082200000000000172	33
bin	0.0083800000000000176	41
bin	0.0085400000000000181	36
bin	0.0087000000000000185	43
bin	0.0088600000000000189	42
bin	0.0090200000000000193	44
bin	0.0091800000000000197	52
bin	0.0093400000000000202	47
bin	0.0095000000000000206	157
bin	0.009660000000000021	2429
bin	0.0098200000000000214	3102
bin	0.0099800000000000218	2424
bin	0.010140000000000022	77
bin	0.010300000000000023	0
statistic PeekingUnderTheHoodShowcase.sink[0] packetJitter:histogram
field count 18943
field mean 5.2789948793749666e-09
field stddev 0.000106626673877016
field min -0.00052794508399999981
field max 0.00025043675299999887
field sum 9.9999999999999991e-05
field sqrsum 0.00021535628822757412
bin	-inf	0
bin	-0.00052800000000000004	2
bin	-0.00051199999999999998	0
bin	-0.00049600000000000002	5
bin	-0.00048000000000000007	14
bin	-0.00046400000000000006	17
bin	-0.0004480000000000001	24
bin	-0.00043200000000000009	31
bin	-0.00041600000000000008	42
bin	-0.00040000000000000007	76
bin	-0.00038400000000000006	91
bin	-0.00036800000000000005	106
bin	-0.00035200000000000005	120
bin	-0.00033600000000000004	201
bin	-0.00032000000000000008	285
bin	-0.00030400000000000002	216
bin	-0.00028800000000000006	22
bin	-0.00027200000000000005	24
bin	-0.00025600000000000004	23
bin	-0.00024000000000000003	23
bin	-0.00022400000000000002	12
bin	-0.00020800000000000004	5
bin	-0.00019200000000000003	5
bin	-0.00017600000000000002	9
bin	-0.00016000000000000004	8
bin	-0.00014400000000000003	17
bin	-0.00012800000000000002	28
bin	-0.00011200000000000003	87
bin	-9.6000000000000016e-05	358
bin	-8.000000000000002e-05	356
bin	-6.4000000000000011e-05	397
bin	-4.8000000000000008e-05	766
bin	-3.2000000000000005e-05	899
bin	-1.6000000000000003e-05	983
bin	0	5287
bin	1.6000000000000003e-05	1100
bin	3.2000000000000005e-05	1360
bin	4.8000000000000008e-05	1185
bin	6.4000000000000011e-05	1268
bin	8.000000000000002e-05	1714
bin	9.6000000000000016e-05	1184
bin	0.00011200000000000001	175
bin	0.00012800000000000002	112
bin	0.00014400000000000003	114
bin	0.00016000000000000004	90
bin	0.00017600000000000002	74
bin	0.000192	17
bin	0.00020800000000000001	3
bin	0.00022400000000000002	6
bin	0.00024000000000000003	2
bin	0.00025600000000000004	0
statistic PeekingUnderTheHoodShowcase.sink[0] packetDelayDifferenceToMean:histogram
field count 18943
field mean -0.0014040689782522707
field stddev 0.0045185993267545339
field min -0.009608652964778577
field max 0.0048664570175496235
field sum -26.597278655032763
field sqrsum 0.4240972425918535
bin	-inf	0
bin	-0.0097400000000000212	26
bin	-0.0094200000000000204	98
bin	-0.0091000000000000195	145
bin	-0.0087800000000000187	143
bin	-0.0084600000000000179	164
bin	-0.008140000000000017	168
bin	-0.0078200000000000162	180
bin	-0.0075000000000000153	191
bin	-0.0071800000000000145	215
bin	-0.0068600000000000137	272
bin	-0.0065400000000000128	605
bin	-0.006220000000000012	856
bin	-0.0059000000000000111	1561
bin	-0.0055800000000000103	1976
bin	-0.0052600000000000095	1409
bin	-0.0049400000000000086	335
bin	-0.0046200000000000078	104
bin	-0.0043000000000000069	89
bin	-0.0039800000000000061	78
bin	-0.0036600000000000061	75
bin	-0.0033400000000000057	71
bin	-0.0030200000000000049	67
bin	-0.002700000000000004	64
bin	-0.0023800000000000032	64
bin	-0.0020600000000000024	60
bin	-0.0017400000000000017	63
bin	-0.0014200000000000011	59
bin	-0.0011000000000000005	60
bin	-0.0007800000000000002	56
bin	-0.00046000000000000023	79
bin	-0.00014000000000000004	3133
bin	0.00018000000000000004	46
bin	0.00050000000000000012	45
bin	0.0008200000000000002	45
bin	0.0011400000000000002	44
bin	0.0014600000000000001	47
bin	0.0017800000000000001	42
bin	0.0021000000000000003	45
bin	0.0024200000000000003	46
bin	0.0027400000000000002	44
bin	0.0030600000000000002	322
bin	0.0033800000000000002	807
bin	0.0037000000000000002	972
bin	0.0040200000000000001	1641
bin	0.004340000000000001	1401
bin	0.0046600000000000018	930
bin	0.0049800000000000027	0
statistic PeekingUnderTheHoodShowcase.sink[0] packetDelayVariation:histogram
field count 18943
field mean 0.0037892897387389415
field stddev 0.0017634015163449056
field min 0
field max 0.0048132132023462502
field sum 71.780515520931772
field sqrsum 0.33089892822930567
bin	-inf	0
bin	0	3131
bin	6.3999999999999984e-05	23
bin	0.00012799999999999997	17
bin	0.00019199999999999979	14
bin	0.00025599999999999966	14
bin	0.00031999999999999948	12
bin	0.0003839999999999993	11
bin	0.00044799999999999913	11
bin	0.000511999999999999	10
bin	0.00057599999999999882	10
bin	0.00063999999999999864	9
bin	0.00070399999999999846	9
bin	0.00076799999999999828	9
bin	0.00083199999999999811	8
bin	0.00089599999999999793	8
bin	0.00095999999999999775	8
bin	0.0010239999999999976	8
bin	0.0010879999999999974	7
bin	0.0011519999999999972	8
bin	0.001215999999999997	7
bin	0.0012799999999999969	7
bin	0.0013439999999999967	7
bin	0.0014079999999999965	7
bin	0.0014719999999999963	7
bin	0.0015359999999999961	8
bin	0.001599999999999996	9
bin	0.0016639999999999958	8
bin	0.0017279999999999956	10
bin	0.0017919999999999954	9
bin	0.0018559999999999952	10
bin	0.0019199999999999951	11
bin	0.0019839999999999949	11
bin	0.0020479999999999947	11
bin	0.0021119999999999945	12
bin	0.0021759999999999943	13
bin	0.0022399999999999942	13
bin	0.002303999999999994	14
bin	0.0023679999999999938	14
bin	0.0024319999999999936	15
bin	0.0024959999999999934	16
bin	0.0025599999999999933	16
bin	0.0026239999999999931	17
bin	0.0026879999999999929	18
bin	0.0027519999999999927	18
bin	0.0028159999999999926	20
bin	0.0028799999999999924	20
bin	0.0029439999999999922	21
bin	0.003007999999999992	23
bin	0.0030719999999999918	23
bin	0.0031359999999999917	24
bin	0.0031999999999999915	26
bin	0.0032639999999999913	27
bin	0.0033279999999999911	29
bin	0.0033919999999999909	29
bin	0.0034559999999999908	32
bin	0.0035199999999999906	34
bin	0.0035839999999999904	35
bin	0.0036479999999999902	38
bin	0.00371199999999999	40
bin	0.0037759999999999899	42
bin	0.0038399999999999897	46
bin	0.0039039999999999895	48
bin	0.0039679999999999898	53
bin	0.0040319999999999896	56
bin	0.0040959999999999894	62
bin	0.0041599999999999892	69
bin	0.004223999999999989	73
bin	0.0042879999999999889	82
bin	0.0043519999999999887	93
bin	0.0044159999999999885	287
bin	0.0044799999999999883	869
bin	0.0045439999999999882	1062
bin	0.004607999999999988	2098
bin	0.0046719999999999878	6480
bin	0.0047359999999999876	3211
bin	0.0047999999999999874	276
bin	0.0048639999999999873	0
statistic PeekingUnderTheHoodShowcase.sink[0] droppedPacketLengths:histogram
field count 18943
field mean 8000
field stddev 0
field min 8000
field max 8000
field sum 151544000
field sqrsum 1212352000000
bin	-inf	0
bin	7999	0
bin	8000	18943
bin	8001	0
statistic PeekingUnderTheHoodShowcase.sink[1] packetLengths:histogram
field count 18968
field mean 8000
field stddev 0
field min 8000
field max 8000
field sum 151744000
field sqrsum 1213952000000
bin	-inf	0
bin	7999	0
bin	8000	18968
bin	8001	0
statistic PeekingUnderTheHoodShowcase.sink[1] meanBitLifeTimePerPacket:histogram
field count 18968
field mean 0.0046474204199402945
field stddev 0.0046793130490778451
field min 9.9999999999999991e-05
field max 0.010234338211
field sum 88.152270525427511
field sqrsum 0.82498153668793461
bin	-inf	0
bin	6.8000000000000013e-05	8444
bin	0.00019600000000000005	740
[...]
scalar PeekingUnderTheHoodShowcase.sink[0] packetLengths:vector:sumweights 18943
scalar PeekingUnderTheHoodShowcase.sink[0] packetLengths:vector:mean 8000
scalar PeekingUnderTheHoodShowcase.sink[0] packetLengths:vector:stddev 0
scalar PeekingUnderTheHoodShowcase.sink[0] packetLengths:vector:min 8000
scalar PeekingUnderTheHoodShowcase.sink[0] packetLengths:vector:max 8000
scalar PeekingUnderTheHoodShowcase.sink[0] packetLengths:vector:starttime 0.0001
scalar PeekingUnderTheHoodShowcase.sink[0] packetLengths:vector:endtime 9.9995112729540025
scalar PeekingUnderTheHoodShowcase.sink[0] dataRate:vector:count 190
scalar PeekingUnderTheHoodShowcase.sink[0] dataRate:vector:sum 2892922897.6251478
scalar PeekingUnderTheHoodShowcase.sink[0] dataRate:vector:sumweights 190
scalar PeekingUnderTheHoodShowcase.sink[0] dataRate:vector:mean 15225909.987500777
scalar PeekingUnderTheHoodShowcase.sink[0] dataRate:vector:stddev 1064178.1596440549
scalar PeekingUnderTheHoodShowcase.sink[0] dataRate:vector:min 13299889.902896652
scalar PeekingUnderTheHoodShowcase.sink[0] dataRate:vector:max 16821679.377485663
scalar PeekingUnderTheHoodShowcase.sink[0] dataRate:vector:starttime 0.050087849214000009
scalar PeekingUnderTheHoodShowcase.sink[0] dataRate:vector:endtime 10
scalar PeekingUnderTheHoodShowcase.sink[0] meanBitLifeTimePerPacket:vector:count 18943
scalar PeekingUnderTheHoodShowcase.sink[0] meanBitLifeTimePerPacket:vector:sum 91.167926726916548
scalar PeekingUnderTheHoodShowcase.sink[0] meanBitLifeTimePerPacket:vector:sumweights 18943
scalar PeekingUnderTheHoodShowcase.sink[0] meanBitLifeTimePerPacket:vector:mean 0.0048127501835462461
scalar PeekingUnderTheHoodShowcase.sink[0] meanBitLifeTimePerPacket:vector:stddev 0.0047320476589662007
scalar PeekingUnderTheHoodShowcase.sink[0] meanBitLifeTimePerPacket:vector:min 9.9999999999999991e-05
scalar PeekingUnderTheHoodShowcase.sink[0] meanBitLifeTimePerPacket:vector:max 0.010226598254000002
scalar PeekingUnderTheHoodShowcase.sink[0] meanBitLifeTimePerPacket:vector:starttime 0.0001
scalar PeekingUnderTheHoodShowcase.sink[0] meanBitLifeTimePerPacket:vector:endtime 9.9995112729540025
scalar PeekingUnderTheHoodShowcase.sink[0] packetLifeTime:vector:count 18943
scalar PeekingUnderTheHoodShowcase.sink[0] packetLifeTime:vector:sum 91.167926726916562
scalar PeekingUnderTheHoodShowcase.sink[0] packetLifeTime:vector:sumweights 18943
scalar PeekingUnderTheHoodShowcase.sink[0] packetLifeTime:vector:mean 0.004812750183546247
scalar PeekingUnderTheHoodShowcase.sink[0] packetLifeTime:vector:stddev 0.0047320476589662016
scalar PeekingUnderTheHoodShowcase.sink[0] packetLifeTime:vector:min 9.9999999999999991e-05
scalar PeekingUnderTheHoodShowcase.sink[0] packetLifeTime:vector:max 0.010226598254
scalar PeekingUnderTheHoodShowcase.sink[0] packetLifeTime:vector:starttime 0.0001
scalar PeekingUnderTheHoodShowcase.sink[0] packetLifeTime:vector:endtime 9.9995112729540025
scalar PeekingUnderTheHoodShowcase.sink[0] packetJitter:vector:count 18943
scalar PeekingUnderTheHoodShowcase.sink[0] packetJitter:vector:sum 0.0001000000000000098
scalar PeekingUnderTheHoodShowcase.sink[0] packetJitter:vector:sumweights 18943
scalar PeekingUnderTheHoodShowcase.sink[0] packetJitter:vector:mean 5.2789948793754844e-09
scalar PeekingUnderTheHoodShowcase.sink[0] packetJitter:vector:stddev 0.00010662667387701604
scalar PeekingUnderTheHoodShowcase.sink[0] packetJitter:vector:min -0.00052794508399999981
scalar PeekingUnderTheHoodShowcase.sink[0] packetJitter:vector:max 0.00025043675299999887
scalar PeekingUnderTheHoodShowcase.sink[0] packetJitter:vector:starttime 0.0001
scalar PeekingUnderTheHoodShowcase.sink[0] packetJitter:vector:endtime 9.9995112729540025
scalar PeekingUnderTheHoodShowcase.sink[0] packetDelayDifferenceToMean:vector:count 18943
scalar PeekingUnderTheHoodShowcase.sink[0] packetDelayDifferenceToMean:vector:sum -26.597278655032724
scalar PeekingUnderTheHoodShowcase.sink[0] packetDelayDifferenceToMean:vector:sumweights 18943
scalar PeekingUnderTheHoodShowcase.sink[0] packetDelayDifferenceToMean:vector:mean -0.0014040689782522685
scalar PeekingUnderTheHoodShowcase.sink[0] packetDelayDifferenceToMean:vector:stddev 0.0045185993267545278
scalar PeekingUnderTheHoodShowcase.sink[0] packetDelayDifferenceToMean:vector:min -0.009608652964778577
scalar PeekingUnderTheHoodShowcase.sink[0] packetDelayDifferenceToMean:vector:max 0.0048664570175496235
scalar PeekingUnderTheHoodShowcase.sink[0] packetDelayDifferenceToMean:vector:starttime 0.0001
scalar PeekingUnderTheHoodShowcase.sink[0] packetDelayDifferenceToMean:vector:endtime 9.9995112729540025
scalar PeekingUnderTheHoodShowcase.sink[0] packetDelayVariation:vector:count 18943
scalar PeekingUnderTheHoodShowcase.sink[0] packetDelayVariation:vector:sum 71.780515520931644
scalar PeekingUnderTheHoodShowcase.sink[0] packetDelayVariation:vector:sumweights 18943
scalar PeekingUnderTheHoodShowcase.sink[0] packetDelayVariation:vector:mean 0.003789289738738935
scalar PeekingUnderTheHoodShowcase.sink[0] packetDelayVariation:vector:stddev 0.0017634015163448932
scalar PeekingUnderTheHoodShowcase.sink[0] packetDelayVariation:vector:min 0
scalar PeekingUnderTheHoodShowcase.sink[0] packetDelayVariation:vector:max 0.0048132132023462502
scalar PeekingUnderTheHoodShowcase.sink[0] packetDelayVariation:vector:starttime 0.0001
scalar PeekingUnderTheHoodShowcase.sink[0] packetDelayVariation:vector:endtime 9.9995112729540025
scalar PeekingUnderTheHoodShowcase.sink[1] droppedPacketLengths:vector:count 18968
scalar PeekingUnderTheHoodShowcase.sink[1] droppedPacketLengths:vector:sum 151744000
scalar PeekingUnderTheHoodShowcase.sink[1] droppedPacketLengths:vector:sumweights 18968
scalar PeekingUnderTheHoodShowcase.sink[1] droppedPacketLengths:vector:mean 8000
scalar PeekingUnderTheHoodShowcase.sink[1] droppedPacketLengths:vector:stddev 0
scalar PeekingUnderTheHoodShowcase.sink[1] droppedPacketLengths:vector:min 8000
scalar PeekingUnderTheHoodShowcase.sink[1] droppedPacketLengths:vector:max 8000
scalar PeekingUnderTheHoodShowcase.sink[1] droppedPacketLengths:vector:starttime 0.00020000000000000001
scalar PeekingUnderTheHoodShowcase.sink[1] droppedPacketLengths:vector:endtime 9.9997609699480012
scalar PeekingUnderTheHoodShowcase.sink[1] droppedDataRate:vector:count 190
scalar PeekingUnderTheHoodShowcase.sink[1] droppedDataRate:vector:sum 2898747598.7752471
scalar PeekingUnderTheHoodShowcase.sink[1] droppedDataRate:vector:sumweights 190
scalar PeekingUnderTheHoodShowcase.sink[1] droppedDataRate:vector:mean 15256566.309343405
scalar PeekingUnderTheHoodShowcase.sink[1] droppedDataRate:vector:stddev 1086258.9618544078
scalar PeekingUnderTheHoodShowcase.sink[1] droppedDataRate:vector:min 13323056.480027383
scalar PeekingUnderTheHoodShowcase.sink[1] droppedDataRate:vector:max 16967503.589146003
scalar PeekingUnderTheHoodShowcase.sink[1] droppedDataRate:vector:starttime 0.050333381546000013
scalar PeekingUnderTheHoodShowcase.sink[1] droppedDataRate:vector:endtime 10
scalar PeekingUnderTheHoodShowcase.sink[1] packetLengths:vector:count 18968
scalar PeekingUnderTheHoodShowcase.sink[1] packetLengths:vector:sum 151744000
scalar PeekingUnderTheHoodShowcase.sink[1] packetLengths:vector:sumweights 18968
scalar PeekingUnderTheHoodShowcase.sink[1] packetLengths:vector:mean 8000
scalar PeekingUnderTheHoodShowcase.sink[1] packetLengths:vector:stddev 0
scalar PeekingUnderTheHoodShowcase.sink[1] packetLengths:vector:min 8000
scalar PeekingUnderTheHoodShowcase.sink[1] packetLengths:vector:max 8000
scalar PeekingUnderTheHoodShowcase.sink[1] packetLengths:vector:starttime 0.00020000000000000001
scalar PeekingUnderTheHoodShowcase.sink[1] packetLengths:vector:endtime 9.9997609699480012
scalar PeekingUnderTheHoodShowcase.sink[1] dataRate:vector:count 190
scalar PeekingUnderTheHoodShowcase.sink[1] dataRate:vector:sum 2898747598.7752471
scalar PeekingUnderTheHoodShowcase.sink[1] dataRate:vector:sumweights 190
scalar PeekingUnderTheHoodShowcase.sink[1] dataRate:vector:mean 15256566.309343405
scalar PeekingUnderTheHoodShowcase.sink[1] dataRate:vector:stddev 1086258.9618544078
scalar PeekingUnderTheHoodShowcase.sink[1] dataRate:vector:min 13323056.480027383
scalar PeekingUnderTheHoodShowcase.sink[1] dataRate:vector:max 16967503.589146003
scalar PeekingUnderTheHoodShowcase.sink[1] dataRate:vector:starttime 0.050333381546000013
scalar PeekingUnderTheHoodShowcase.sink[1] dataRate:vector:endtime 10
scalar PeekingUnderTheHoodShowcase.sink[1] meanBitLifeTimePerPacket:vector:count 18968
scalar PeekingUnderTheHoodShowcase.sink[1] meanBitLifeTimePerPacket:vector:sum 88.152270525416029
scalar PeekingUnderTheHoodShowcase.sink[1] meanBitLifeTimePerPacket:vector:sumweights 18968
scalar PeekingUnderTheHoodShowcase.sink[1] meanBitLifeTimePerPacket:vector:mean 0.0046474204199396891
scalar PeekingUnderTheHoodShowcase.sink[1] meanBitLifeTimePerPacket:vector:stddev 0.0046793130490778425
scalar PeekingUnderTheHoodShowcase.sink[1] meanBitLifeTimePerPacket:vector:min 9.9999999999999991e-05
scalar PeekingUnderTheHoodShowcase.sink[1] meanBitLifeTimePerPacket:vector:max 0.010234338211
scalar PeekingUnderTheHoodShowcase.sink[1] meanBitLifeTimePerPacket:vector:starttime 0.00020000000000000001
scalar PeekingUnderTheHoodShowcase.sink[1] meanBitLifeTimePerPacket:vector:endtime 9.9997609699480012
scalar PeekingUnderTheHoodShowcase.sink[1] packetLifeTime:vector:count 18968
scalar PeekingUnderTheHoodShowcase.sink[1] packetLifeTime:vector:sum 88.152270525416029
scalar PeekingUnderTheHoodShowcase.sink[1] packetLifeTime:vector:sumweights 18968
scalar PeekingUnderTheHoodShowcase.sink[1] packetLifeTime:vector:mean 0.0046474204199396891
scalar PeekingUnderTheHoodShowcase.sink[1] packetLifeTime:vector:stddev 0.0046793130490778425
scalar PeekingUnderTheHoodShowcase.sink[1] packetLifeTime:vector:min 9.9999999999999991e-05
scalar PeekingUnderTheHoodShowcase.sink[1] packetLifeTime:vector:max 0.010234338211
scalar PeekingUnderTheHoodShowcase.sink[1] packetLifeTime:vector:starttime 0.00020000000000000001
scalar PeekingUnderTheHoodShowcase.sink[1] packetLifeTime:vector:endtime 9.9997609699480012
scalar PeekingUnderTheHoodShowcase.sink[1] packetJitter:vector:count 18968
scalar PeekingUnderTheHoodShowcase.sink[1] packetJitter:vector:sum 0.0097258217700000212
scalar PeekingUnderTheHoodShowcase.sink[1] packetJitter:vector:sumweights 18968
scalar PeekingUnderTheHoodShowcase.sink[1] packetJitter:vector:mean 5.1274893346689274e-07
scalar PeekingUnderTheHoodShowcase.sink[1] packetJitter:vector:stddev 0.00010534114261115268
scalar PeekingUnderTheHoodShowcase.sink[1] packetJitter:vector:min -0.00050853994999999937
scalar PeekingUnderTheHoodShowcase.sink[1] packetJitter:vector:max 0.00028443962800000014
scalar PeekingUnderTheHoodShowcase.sink[1] packetJitter:vector:starttime 0.00020000000000000001
scalar PeekingUnderTheHoodShowcase.sink[1] packetJitter:vector:endtime 9.9997609699480012
scalar PeekingUnderTheHoodShowcase.sink[1] packetDelayDifferenceToMean:vector:count 18968
scalar PeekingUnderTheHoodShowcase.sink[1] packetDelayDifferenceToMean:vector:sum -17.166799649078801
scalar PeekingUnderTheHoodShowcase.sink[1] packetDelayDifferenceToMean:vector:sumweights 18968
scalar PeekingUnderTheHoodShowcase.sink[1] packetDelayDifferenceToMean:vector:mean -0.00090504004898137925
scalar PeekingUnderTheHoodShowcase.sink[1] packetDelayDifferenceToMean:vector:stddev 0.0045905818660309907
scalar PeekingUnderTheHoodShowcase.sink[1] packetDelayDifferenceToMean:vector:min -0.0095575491375096636
scalar PeekingUnderTheHoodShowcase.sink[1] packetDelayDifferenceToMean:vector:max 0.0048062618823711632
scalar PeekingUnderTheHoodShowcase.sink[1] packetDelayDifferenceToMean:vector:starttime 0.00020000000000000001
scalar PeekingUnderTheHoodShowcase.sink[1] packetDelayDifferenceToMean:vector:endtime 9.9997609699480012
scalar PeekingUnderTheHoodShowcase.sink[1] packetDelayVariation:vector:count 18968
scalar PeekingUnderTheHoodShowcase.sink[1] packetDelayVariation:vector:sum 76.636898515518496
scalar PeekingUnderTheHoodShowcase.sink[1] packetDelayVariation:vector:sumweights 18968
scalar PeekingUnderTheHoodShowcase.sink[1] packetDelayVariation:vector:mean 0.0040403257336312998
scalar PeekingUnderTheHoodShowcase.sink[1] packetDelayVariation:vector:stddev 0.0015068600366364953
scalar PeekingUnderTheHoodShowcase.sink[1] packetDelayVariation:vector:min 0
scalar PeekingUnderTheHoodShowcase.sink[1] packetDelayVariation:vector:max 0.0047786367853920372
scalar PeekingUnderTheHoodShowcase.sink[1] packetDelayVariation:vector:starttime 0.00020000000000000001
scalar PeekingUnderTheHoodShowcase.sink[1] packetDelayVariation:vector:endtime 9.9997609699480012
scalar PeekingUnderTheHoodShowcase.sink[2] droppedPacketLengths:vector:count 18590
scalar PeekingUnderTheHoodShowcase.sink[2] droppedPacketLengths:vector:sum 148720000
scalar PeekingUnderTheHoodShowcase.sink[2] droppedPacketLengths:vector:sumweights 18590
scalar PeekingUnderTheHoodShowcase.sink[2] droppedPacketLengths:vector:mean 8000
scalar PeekingUnderTheHoodShowcase.sink[2] droppedPacketLengths:vector:stddev 0
scalar PeekingUnderTheHoodShowcase.sink[2] droppedPacketLengths:vector:min 8000
scalar PeekingUnderTheHoodShowcase.sink[2] droppedPacketLengths:vector:max 8000
scalar PeekingUnderTheHoodShowcase.sink[2] droppedPacketLengths:vector:starttime 0.00030000000000000003
scalar PeekingUnderTheHoodShowcase.sink[2] droppedPacketLengths:vector:endtime 9.9996483673680014
scalar PeekingUnderTheHoodShowcase.sink[2] droppedDataRate:vector:count 186
scalar PeekingUnderTheHoodShowcase.sink[2] droppedDataRate:vector:sum 2797239271.6166568
scalar PeekingUnderTheHoodShowcase.sink[2] droppedDataRate:vector:sumweights 186
scalar PeekingUnderTheHoodShowcase.sink[2] droppedDataRate:vector:mean 15038920.815143315
scalar PeekingUnderTheHoodShowcase.sink[2] droppedDataRate:vector:stddev 1503020.4008918013
scalar PeekingUnderTheHoodShowcase.sink[2] droppedDataRate:vector:min 11505130.439305834
scalar PeekingUnderTheHoodShowcase.sink[2] droppedDataRate:vector:max 17323224.143598497
scalar PeekingUnderTheHoodShowcase.sink[2] droppedDataRate:vector:starttime 0.05181961383800001
scalar PeekingUnderTheHoodShowcase.sink[2] droppedDataRate:vector:endtime 10
scalar PeekingUnderTheHoodShowcase.sink[2] packetLengths:vector:count 18590
scalar PeekingUnderTheHoodShowcase.sink[2] packetLengths:vector:sum 148720000
scalar PeekingUnderTheHoodShowcase.sink[2] packetLengths:vector:sumweights 18590
scalar PeekingUnderTheHoodShowcase.sink[2] packetLengths:vector:mean 8000
scalar PeekingUnderTheHoodShowcase.sink[2] packetLengths:vector:stddev 0
scalar PeekingUnderTheHoodShowcase.sink[2] packetLengths:vector:min 8000
scalar PeekingUnderTheHoodShowcase.sink[2] packetLengths:vector:max 8000
scalar PeekingUnderTheHoodShowcase.sink[2] packetLengths:vector:starttime 0.00030000000000000003
scalar PeekingUnderTheHoodShowcase.sink[2] packetLengths:vector:endtime 9.9996483673680014
scalar PeekingUnderTheHoodShowcase.sink[2] dataRate:vector:count 186
scalar PeekingUnderTheHoodShowcase.sink[2] dataRate:vector:sum 2797239271.6166568
scalar PeekingUnderTheHoodShowcase.sink[2] dataRate:vector:sumweights 186
scalar PeekingUnderTheHoodShowcase.sink[2] dataRate:vector:mean 15038920.815143315
scalar PeekingUnderTheHoodShowcase.sink[2] dataRate:vector:stddev 1503020.4008918013
scalar PeekingUnderTheHoodShowcase.sink[2] dataRate:vector:min 11505130.439305834
scalar PeekingUnderTheHoodShowcase.sink[2] dataRate:vector:max 17323224.143598497
scalar PeekingUnderTheHoodShowcase.sink[2] dataRate:vector:starttime 0.05181961383800001
scalar PeekingUnderTheHoodShowcase.sink[2] dataRate:vector:endtime 10
scalar PeekingUnderTheHoodShowcase.sink[2] meanBitLifeTimePerPacket:vector:count 18590
scalar PeekingUnderTheHoodShowcase.sink[2] meanBitLifeTimePerPacket:vector:sum 73.293328050523996
scalar PeekingUnderTheHoodShowcase.sink[2] meanBitLifeTimePerPacket:vector:sumweights 18590
scalar PeekingUnderTheHoodShowcase.sink[2] meanBitLifeTimePerPacket:vector:mean 0.0039426211969082296
scalar PeekingUnderTheHoodShowcase.sink[2] meanBitLifeTimePerPacket:vector:stddev 0.0045438198233364443
scalar PeekingUnderTheHoodShowcase.sink[2] meanBitLifeTimePerPacket:vector:min 9.9999999999999991e-05
scalar PeekingUnderTheHoodShowcase.sink[2] meanBitLifeTimePerPacket:vector:max 0.010272928444000001
scalar PeekingUnderTheHoodShowcase.sink[2] meanBitLifeTimePerPacket:vector:starttime 0.00030000000000000003
scalar PeekingUnderTheHoodShowcase.sink[2] meanBitLifeTimePerPacket:vector:endtime 9.9996483673680014
scalar PeekingUnderTheHoodShowcase.sink[2] packetLifeTime:vector:count 18590
scalar PeekingUnderTheHoodShowcase.sink[2] packetLifeTime:vector:sum 73.293328050523996
scalar PeekingUnderTheHoodShowcase.sink[2] packetLifeTime:vector:sumweights 18590
scalar PeekingUnderTheHoodShowcase.sink[2] packetLifeTime:vector:mean 0.0039426211969082296
scalar PeekingUnderTheHoodShowcase.sink[2] packetLifeTime:vector:stddev 0.0045438198233364452
scalar PeekingUnderTheHoodShowcase.sink[2] packetLifeTime:vector:min 9.9999999999999991e-05
scalar PeekingUnderTheHoodShowcase.sink[2] packetLifeTime:vector:max 0.010272928444000001
scalar PeekingUnderTheHoodShowcase.sink[2] packetLifeTime:vector:starttime 0.00030000000000000003
scalar PeekingUnderTheHoodShowcase.sink[2] packetLifeTime:vector:endtime 9.9996483673680014
scalar PeekingUnderTheHoodShowcase.sink[2] packetJitter:vector:count 18590
scalar PeekingUnderTheHoodShowcase.sink[2] packetJitter:vector:sum 0.0099412987089999537
scalar PeekingUnderTheHoodShowcase.sink[2] packetJitter:vector:sumweights 18590
scalar PeekingUnderTheHoodShowcase.sink[2] packetJitter:vector:mean 5.3476593378160053e-07
scalar PeekingUnderTheHoodShowcase.sink[2] packetJitter:vector:stddev 9.1626155806193271e-05
scalar PeekingUnderTheHoodShowcase.sink[2] packetJitter:vector:min -0.00056937573699999966
scalar PeekingUnderTheHoodShowcase.sink[2] packetJitter:vector:max 0.00029999999999999997
scalar PeekingUnderTheHoodShowcase.sink[2] packetJitter:vector:starttime 0.00030000000000000003
scalar PeekingUnderTheHoodShowcase.sink[2] packetJitter:vector:endtime 9.9996483673680014
scalar PeekingUnderTheHoodShowcase.sink[2] packetDelayDifferenceToMean:vector:count 18590
scalar PeekingUnderTheHoodShowcase.sink[2] packetDelayDifferenceToMean:vector:sum -16.266715495943519
scalar PeekingUnderTheHoodShowcase.sink[2] packetDelayDifferenceToMean:vector:sumweights 18590
scalar PeekingUnderTheHoodShowcase.sink[2] packetDelayDifferenceToMean:vector:mean -0.00087502504012606337
scalar PeekingUnderTheHoodShowcase.sink[2] packetDelayDifferenceToMean:vector:stddev 0.0044584166185392153
scalar PeekingUnderTheHoodShowcase.sink[2] packetDelayDifferenceToMean:vector:min -0.0091118679867997106
scalar PeekingUnderTheHoodShowcase.sink[2] packetDelayDifferenceToMean:vector:max 0.0048631534127009761
scalar PeekingUnderTheHoodShowcase.sink[2] packetDelayDifferenceToMean:vector:starttime 0.00030000000000000003
scalar PeekingUnderTheHoodShowcase.sink[2] packetDelayDifferenceToMean:vector:endtime 9.9996483673680014
scalar PeekingUnderTheHoodShowcase.sink[2] packetDelayVariation:vector:count 18590
scalar PeekingUnderTheHoodShowcase.sink[2] packetDelayVariation:vector:sum 70.41040691473313
scalar PeekingUnderTheHoodShowcase.sink[2] packetDelayVariation:vector:sumweights 18590
scalar PeekingUnderTheHoodShowcase.sink[2] packetDelayVariation:vector:mean 0.0037875420610399748
scalar PeekingUnderTheHoodShowcase.sink[2] packetDelayVariation:vector:stddev 0.0012112529535501359
scalar PeekingUnderTheHoodShowcase.sink[2] packetDelayVariation:vector:min 0
scalar PeekingUnderTheHoodShowcase.sink[2] packetDelayVariation:vector:max 0.0047062721016258389
scalar PeekingUnderTheHoodShowcase.sink[2] packetDelayVariation:vector:starttime 0.00030000000000000003
scalar PeekingUnderTheHoodShowcase.sink[2] packetDelayVariation:vector:endtime 9.9996483673680014

