version 3
run WifiShortPacket-0-20251118-12:01:44-115088
attr configname WifiShortPacket
attr datetime 20251118-12:01:44
attr datetimef 20251118-120144
attr experiment WifiShortPacket
attr inifile omnetpp.ini
attr iterationvars ""
attr iterationvarsd ""
attr iterationvarsf ""
attr measurement ""
attr network RegressionTestingTutorialWireless
attr processid 115088
attr repetition 0
attr replication #0
attr resultdir results
attr runnumber 0
attr seedset 0
config **.param-recording false
config image-path /home/zoli/Projects/OMNET/inet/images
config output-scalar-file results/omnetpp.ini-WifiShortPacket-#0.sca
config output-scalar-precision 17
config output-vector-file results/omnetpp.ini-WifiShortPacket-#0.vec
config output-vector-precision 17
config record-eventlog false
config sim-time-limit 5s
config sim-time-limit 5s
config extends Wifi
config **.messageLength 10B
config sim-time-limit 5s
config network RegressionTestingTutorialWireless
config *.host1.numApps 1
config *.host1.app[0].typename UdpBasicApp
config *.host1.app[0].destAddresses "\"host2\""
config *.host1.app[0].destPort 1000
config *.host1.app[0].messageLength 1200B
config *.host1.app[0].sendInterval 0.12ms
config *.host1.app[0].startTime exponential(0.1ms)
config *.host1.app[0].packetName "\"Udp\""
config *.host2.numApps 1
config *.host2.app[0].typename UdpSink
config *.host2.app[0].localPort 1000
config **.infoVisualizer.displayInfos true
config **.infoVisualizer.format "\"%t\""
config **.dataLinkVisualizer.displayLinks true
config **.physicalLinkVisualizer.displayLinks true
config **.wlan[*].opMode "\"n(mixed-2.4Ghz)\""
config **.arp.typename GlobalArp
config fingerprintcalculator-class inet::FingerprintCalculator
config description (abstract)
config **.fcsMode "\"computed\""
config **.checksumMode "\"computed\""

scalar RegressionTestingTutorialWireless.radioMedium.propagation "Arrival computation count" 33500
scalar RegressionTestingTutorialWireless.radioMedium "transmission count" 33500
scalar RegressionTestingTutorialWireless.radioMedium "signal send count" 33500
scalar RegressionTestingTutorialWireless.radioMedium "reception computation count" 33500
scalar RegressionTestingTutorialWireless.radioMedium "interference computation count" 134004
scalar RegressionTestingTutorialWireless.radioMedium "reception decision computation count" 33500
scalar RegressionTestingTutorialWireless.radioMedium "listening decision computation count" 67004
scalar RegressionTestingTutorialWireless.radioMedium "reception cache hit" 85.714285714285708
scalar RegressionTestingTutorialWireless.radioMedium "interference cache hit" 66.666666666666671
scalar RegressionTestingTutorialWireless.radioMedium "noise cache hit" 0
scalar RegressionTestingTutorialWireless.radioMedium "snir cache hit" 50
scalar RegressionTestingTutorialWireless.radioMedium "reception decision cache hit" 50
scalar RegressionTestingTutorialWireless.radioMedium "reception result cache hit" 0
scalar RegressionTestingTutorialWireless.host1.lo[0].lo rcvdPkFromHl:count 0
scalar RegressionTestingTutorialWireless.host1.lo[0].lo rcvdPkFromHl:sum(packetBytes) 0
scalar RegressionTestingTutorialWireless.host1.lo[0].lo passedUpPk:count 0
scalar RegressionTestingTutorialWireless.host1.lo[0].lo passedUpPk:sum(packetBytes) 0
scalar RegressionTestingTutorialWireless.host1.lo[0] packetDropInterfaceDown:count 0
scalar RegressionTestingTutorialWireless.host1.lo[0] packetDropInterfaceDown:sum(packetBytes) 0
scalar RegressionTestingTutorialWireless.host1.lo[0] packetDropNoCarrier:count 0
scalar RegressionTestingTutorialWireless.host1.lo[0] packetDropNoCarrier:sum(packetBytes) 0
scalar RegressionTestingTutorialWireless.host1.wlan[0].mac.dcf.channelAccess.pendingQueue queueLength:last 100
scalar RegressionTestingTutorialWireless.host1.wlan[0].mac.dcf.channelAccess.pendingQueue queueLength:max 100
scalar RegressionTestingTutorialWireless.host1.wlan[0].mac.dcf.channelAccess.pendingQueue queueLength:timeavg 99.594038017943006
scalar RegressionTestingTutorialWireless.host1.wlan[0].mac.dcf.channelAccess.pendingQueue queueBitLength:last 59200
scalar RegressionTestingTutorialWireless.host1.wlan[0].mac.dcf.channelAccess.pendingQueue queueBitLength:max 59200
scalar RegressionTestingTutorialWireless.host1.wlan[0].mac.dcf.channelAccess.pendingQueue queueBitLength:timeavg 58959.670506605973
scalar RegressionTestingTutorialWireless.host1.wlan[0].mac.dcf.channelAccess.pendingQueue outgoingPackets:count 16751
scalar RegressionTestingTutorialWireless.host1.wlan[0].mac.dcf.channelAccess.pendingQueue outgoingPacketLengths:sum 9916592
scalar RegressionTestingTutorialWireless.host1.wlan[0].mac.dcf.channelAccess.pendingQueue incomingPackets:count 41666
scalar RegressionTestingTutorialWireless.host1.wlan[0].mac.dcf.channelAccess.pendingQueue incomingPacketLengths:sum 24666272
scalar RegressionTestingTutorialWireless.host1.wlan[0].mac.dcf.channelAccess.pendingQueue droppedPacketsQueueOverflow:count 24815
scalar RegressionTestingTutorialWireless.host1.wlan[0].mac.dcf.channelAccess.pendingQueue droppedPacketLengthsQueueOverflow:sum 14690480
scalar RegressionTestingTutorialWireless.host1.wlan[0].mac.dcf.channelAccess.inProgressFrames queueLength:max 2
scalar RegressionTestingTutorialWireless.host1.wlan[0].mac.dcf.channelAccess.inProgressFrames queueLength:timeavg 1.328746149755176
scalar RegressionTestingTutorialWireless.host1.wlan[0].mac.dcf.channelAccess.contention channelAccessGranted:count 16750
scalar RegressionTestingTutorialWireless.host1.wlan[0].mac.dcf.channelAccess.contention stateChanged:count 134004
scalar RegressionTestingTutorialWireless.host1.wlan[0].mac.dcf.channelAccess channelOwnershipChanged:count 33500
scalar RegressionTestingTutorialWireless.host1.wlan[0].mac.dcf.originatorMacDataService packetAggregated:count 0
scalar RegressionTestingTutorialWireless.host1.wlan[0].mac.dcf.originatorMacDataService packetFragmented:count 0
scalar RegressionTestingTutorialWireless.host1.wlan[0].mac.dcf.recipientMacDataService packetDeaggregated:count 0
scalar RegressionTestingTutorialWireless.host1.wlan[0].mac.dcf.recipientMacDataService packetDefragmented:count 0
scalar RegressionTestingTutorialWireless.host1.wlan[0].mac.dcf.recipientMacDataService packetDropDuplicateDetected:count 0
scalar RegressionTestingTutorialWireless.host1.wlan[0].mac.dcf.recipientMacDataService packetDropDuplicateDetected:sum(packetBytes) 0
scalar RegressionTestingTutorialWireless.host1.wlan[0].mac.dcf.recoveryProcedure retryLimitReached:count 0
scalar RegressionTestingTutorialWireless.host1.wlan[0].mac.dcf frameSequenceFinished:count 16750
scalar RegressionTestingTutorialWireless.host1.wlan[0].mac.dcf packetReceivedFromPeer:count 16750
scalar RegressionTestingTutorialWireless.host1.wlan[0].mac.dcf packetReceivedFromPeer:sum(packetBytes) 234500
scalar RegressionTestingTutorialWireless.host1.wlan[0].mac.dcf packetReceivedFromPeerUnicast:count 16750
scalar RegressionTestingTutorialWireless.host1.wlan[0].mac.dcf packetReceivedFromPeerUnicast:sum(packetBytes) 234500
scalar RegressionTestingTutorialWireless.host1.wlan[0].mac.dcf packetReceivedFromPeerMulticast:count 0
scalar RegressionTestingTutorialWireless.host1.wlan[0].mac.dcf packetReceivedFromPeerMulticast:sum(packetBytes) 0
scalar RegressionTestingTutorialWireless.host1.wlan[0].mac.dcf packetReceivedFromPeerBroadcast:count 0
scalar RegressionTestingTutorialWireless.host1.wlan[0].mac.dcf packetReceivedFromPeerBroadcast:sum(packetBytes) 0
scalar RegressionTestingTutorialWireless.host1.wlan[0].mac.dcf packetReceivedFromPeerWithRetry:count 0
scalar RegressionTestingTutorialWireless.host1.wlan[0].mac.dcf packetReceivedFromPeerWithRetry:sum(packetBytes) 0
scalar RegressionTestingTutorialWireless.host1.wlan[0].mac.dcf packetReceivedFromPeerWithoutRetry:count 16750
scalar RegressionTestingTutorialWireless.host1.wlan[0].mac.dcf packetReceivedFromPeerWithoutRetry:sum(packetBytes) 234500
scalar RegressionTestingTutorialWireless.host1.wlan[0].mac.dcf packetSentToPeer:count 16750
scalar RegressionTestingTutorialWireless.host1.wlan[0].mac.dcf packetSentToPeer:sum(packetBytes) 1239500
scalar RegressionTestingTutorialWireless.host1.wlan[0].mac.dcf packetSentToPeerUnicast:count 16750
scalar RegressionTestingTutorialWireless.host1.wlan[0].mac.dcf packetSentToPeerUnicast:sum(packetBytes) 1239500
scalar RegressionTestingTutorialWireless.host1.wlan[0].mac.dcf packetSentToPeerMulticast:count 0
scalar RegressionTestingTutorialWireless.host1.wlan[0].mac.dcf packetSentToPeerMulticast:sum(packetBytes) 0
scalar RegressionTestingTutorialWireless.host1.wlan[0].mac.dcf packetSentToPeerBroadcast:count 0
scalar RegressionTestingTutorialWireless.host1.wlan[0].mac.dcf packetSentToPeerBroadcast:sum(packetBytes) 0
scalar RegressionTestingTutorialWireless.host1.wlan[0].mac.dcf packetSentToPeerWithRetry:count 0
scalar RegressionTestingTutorialWireless.host1.wlan[0].mac.dcf packetSentToPeerWithRetry:sum(packetBytes) 0
scalar RegressionTestingTutorialWireless.host1.wlan[0].mac.dcf packetSentToPeerWithoutRetry:count 16750
scalar RegressionTestingTutorialWireless.host1.wlan[0].mac.dcf packetSentToPeerWithoutRetry:sum(packetBytes) 1239500
scalar RegressionTestingTutorialWireless.host1.wlan[0].mac.dcf packetDrop:count 24815
scalar RegressionTestingTutorialWireless.host1.wlan[0].mac.dcf packetDrop:sum(packetBytes) 1836310
scalar RegressionTestingTutorialWireless.host1.wlan[0].mac.dcf packetDropNotAddressedToUs:count 0
scalar RegressionTestingTutorialWireless.host1.wlan[0].mac.dcf packetDropNotAddressedToUs:sum(packetBytes) 0
scalar RegressionTestingTutorialWireless.host1.wlan[0].mac.dcf packetDropQueueOverflow:count 24815
scalar RegressionTestingTutorialWireless.host1.wlan[0].mac.dcf packetDropQueueOverflow:sum(packetBytes) 1836310
scalar RegressionTestingTutorialWireless.host1.wlan[0].mac.dcf packetDropRetryLimitReached:count 0
scalar RegressionTestingTutorialWireless.host1.wlan[0].mac.dcf packetDropRetryLimitReached:sum(packetBytes) 0
scalar RegressionTestingTutorialWireless.host1.wlan[0].mac.dcf linkBroken:count 0
scalar RegressionTestingTutorialWireless.host1.wlan[0].mac packetReceivedFromLower:count 16750
scalar RegressionTestingTutorialWireless.host1.wlan[0].mac packetReceivedFromLower:sum(packetBytes) 234500
scalar RegressionTestingTutorialWireless.host1.wlan[0].mac packetSentToLower:count 16750
scalar RegressionTestingTutorialWireless.host1.wlan[0].mac packetSentToLower:sum(packetBytes) 1239500
scalar RegressionTestingTutorialWireless.host1.wlan[0].mac packetReceivedFromUpper:count 41666
scalar RegressionTestingTutorialWireless.host1.wlan[0].mac packetReceivedFromUpper:sum(packetBytes) 1916636
scalar RegressionTestingTutorialWireless.host1.wlan[0].mac packetSentToUpper:count 0
scalar RegressionTestingTutorialWireless.host1.wlan[0].mac packetSentToUpper:sum(packetBytes) 0
scalar RegressionTestingTutorialWireless.host1.wlan[0].mac packetDrop:count 24815
scalar RegressionTestingTutorialWireless.host1.wlan[0].mac packetDrop:sum(packetBytes) 1836310
scalar RegressionTestingTutorialWireless.host1.wlan[0].mac packetDropIncorrectlyReceived:count 0
scalar RegressionTestingTutorialWireless.host1.wlan[0].mac packetDropIncorrectlyReceived:sum(packetBytes) 0
scalar RegressionTestingTutorialWireless.host1.wlan[0].mac packetDropNotAddressedToUs:count 0
scalar RegressionTestingTutorialWireless.host1.wlan[0].mac packetDropNotAddressedToUs:sum(packetBytes) 0
scalar RegressionTestingTutorialWireless.host1.wlan[0].mac packetDropQueueOverflow:count 24815
scalar RegressionTestingTutorialWireless.host1.wlan[0].mac packetDropQueueOverflow:sum(packetBytes) 1836310
scalar RegressionTestingTutorialWireless.host1.wlan[0].mac packetDropRetryLimitReached:count 0
scalar RegressionTestingTutorialWireless.host1.wlan[0].mac packetDropRetryLimitReached:sum(packetBytes) 0
scalar RegressionTestingTutorialWireless.host1.wlan[0].mac packetDropDuplicateDetected:count 0
scalar RegressionTestingTutorialWireless.host1.wlan[0].mac packetDropDuplicateDetected:sum(packetBytes) 0
scalar RegressionTestingTutorialWireless.host1.wlan[0].mac packetDropOther:count 0
scalar RegressionTestingTutorialWireless.host1.wlan[0].mac packetDropOther:sum(packetBytes) 0
scalar RegressionTestingTutorialWireless.host1.wlan[0].mac linkBroken:count 0
scalar RegressionTestingTutorialWireless.host1.wlan[0].radio radioMode:count 33503
scalar RegressionTestingTutorialWireless.host1.wlan[0].radio receptionState:count 67001
scalar RegressionTestingTutorialWireless.host1.wlan[0].radio transmissionState:count 67000
scalar RegressionTestingTutorialWireless.host1.wlan[0] packetDropInterfaceDown:count 0
scalar RegressionTestingTutorialWireless.host1.wlan[0] packetDropInterfaceDown:sum(packetBytes) 0
scalar RegressionTestingTutorialWireless.host1.wlan[0] packetDropNoCarrier:count 0
scalar RegressionTestingTutorialWireless.host1.wlan[0] packetDropNoCarrier:sum(packetBytes) 0
scalar RegressionTestingTutorialWireless.host1.ipv4.ip packetDropAddressResolutionFailed:count 0
scalar RegressionTestingTutorialWireless.host1.ipv4.ip packetDropAddressResolutionFailed:sum(packetBytes) 0
scalar RegressionTestingTutorialWireless.host1.ipv4.ip packetDropHopLimitReached:count 0
scalar RegressionTestingTutorialWireless.host1.ipv4.ip packetDropHopLimitReached:sum(packetBytes) 0
scalar RegressionTestingTutorialWireless.host1.ipv4.ip packetDropForwardingDisabled:count 0
scalar RegressionTestingTutorialWireless.host1.ipv4.ip packetDropForwardingDisabled:sum(packetBytes) 0
scalar RegressionTestingTutorialWireless.host1.ipv4.ip packetDropLifetimeExpired:count 0
scalar RegressionTestingTutorialWireless.host1.ipv4.ip packetDropLifetimeExpired:sum(packetBytes) 0
scalar RegressionTestingTutorialWireless.host1.ipv4.ip packetDropNoInterfaceFound:count 0
scalar RegressionTestingTutorialWireless.host1.ipv4.ip packetDropNoInterfaceFound:sum(packetBytes) 0
scalar RegressionTestingTutorialWireless.host1.ipv4.ip packetDropNoRouteFound:count 0
scalar RegressionTestingTutorialWireless.host1.ipv4.ip packetDropNoRouteFound:sum(packetBytes) 0
scalar RegressionTestingTutorialWireless.host1.ipv4.ip packetDropUndefined:count 0
scalar RegressionTestingTutorialWireless.host1.ipv4.ip packetDropUndefined:sum(packetBytes) 0
scalar RegressionTestingTutorialWireless.host1.udp packetReceived:count 0
scalar RegressionTestingTutorialWireless.host1.udp packetReceived:sum(packetBytes) 0
scalar RegressionTestingTutorialWireless.host1.udp packetSent:count 41666
scalar RegressionTestingTutorialWireless.host1.udp packetSent:sum(packetBytes) 749988
scalar RegressionTestingTutorialWireless.host1.udp passedUpPk:count 0
scalar RegressionTestingTutorialWireless.host1.udp droppedPkWrongPort:count 0
scalar RegressionTestingTutorialWireless.host1.udp droppedPkBadChecksum:count 0
scalar RegressionTestingTutorialWireless.host1.app[0] "packets sent" 41666
scalar RegressionTestingTutorialWireless.host1.app[0] "packets received" 0
scalar RegressionTestingTutorialWireless.host1.app[0] packetReceived:count 0
scalar RegressionTestingTutorialWireless.host1.app[0] packetReceived:sum(packetBytes) 0
scalar RegressionTestingTutorialWireless.host1.app[0] packetSent:count 41666
scalar RegressionTestingTutorialWireless.host1.app[0] packetSent:sum(packetBytes) 416660
scalar RegressionTestingTutorialWireless.host2.lo[0].lo rcvdPkFromHl:count 0
scalar RegressionTestingTutorialWireless.host2.lo[0].lo rcvdPkFromHl:sum(packetBytes) 0
scalar RegressionTestingTutorialWireless.host2.lo[0].lo passedUpPk:count 0
scalar RegressionTestingTutorialWireless.host2.lo[0].lo passedUpPk:sum(packetBytes) 0
scalar RegressionTestingTutorialWireless.host2.lo[0] packetDropInterfaceDown:count 0
scalar RegressionTestingTutorialWireless.host2.lo[0] packetDropInterfaceDown:sum(packetBytes) 0
scalar RegressionTestingTutorialWireless.host2.lo[0] packetDropNoCarrier:count 0
scalar RegressionTestingTutorialWireless.host2.lo[0] packetDropNoCarrier:sum(packetBytes) 0
scalar RegressionTestingTutorialWireless.host2.wlan[0].mac.dcf.channelAccess.pendingQueue queueLength:last 0
scalar RegressionTestingTutorialWireless.host2.wlan[0].mac.dcf.channelAccess.pendingQueue queueLength:max 0
scalar RegressionTestingTutorialWireless.host2.wlan[0].mac.dcf.channelAccess.pendingQueue queueLength:timeavg 0
scalar RegressionTestingTutorialWireless.host2.wlan[0].mac.dcf.channelAccess.pendingQueue queueBitLength:last 0
scalar RegressionTestingTutorialWireless.host2.wlan[0].mac.dcf.channelAccess.pendingQueue queueBitLength:max 0
scalar RegressionTestingTutorialWireless.host2.wlan[0].mac.dcf.channelAccess.pendingQueue queueBitLength:timeavg 0
scalar RegressionTestingTutorialWireless.host2.wlan[0].mac.dcf.channelAccess.pendingQueue outgoingPackets:count 0
scalar RegressionTestingTutorialWireless.host2.wlan[0].mac.dcf.channelAccess.pendingQueue outgoingPacketLengths:sum 0
scalar RegressionTestingTutorialWireless.host2.wlan[0].mac.dcf.channelAccess.pendingQueue incomingPackets:count 0
scalar RegressionTestingTutorialWireless.host2.wlan[0].mac.dcf.channelAccess.pendingQueue incomingPacketLengths:sum 0
scalar RegressionTestingTutorialWireless.host2.wlan[0].mac.dcf.channelAccess.pendingQueue droppedPacketsQueueOverflow:count 0
scalar RegressionTestingTutorialWireless.host2.wlan[0].mac.dcf.channelAccess.pendingQueue droppedPacketLengthsQueueOverflow:sum 0
scalar RegressionTestingTutorialWireless.host2.wlan[0].mac.dcf.channelAccess.inProgressFrames queueLength:max 0
scalar RegressionTestingTutorialWireless.host2.wlan[0].mac.dcf.channelAccess.inProgressFrames queueLength:timeavg 0
scalar RegressionTestingTutorialWireless.host2.wlan[0].mac.dcf.channelAccess.contention channelAccessGranted:count 0
scalar RegressionTestingTutorialWireless.host2.wlan[0].mac.dcf.channelAccess.contention stateChanged:count 134002
scalar RegressionTestingTutorialWireless.host2.wlan[0].mac.dcf.channelAccess channelOwnershipChanged:count 0
scalar RegressionTestingTutorialWireless.host2.wlan[0].mac.dcf.originatorMacDataService packetAggregated:count 0
scalar RegressionTestingTutorialWireless.host2.wlan[0].mac.dcf.originatorMacDataService packetFragmented:count 0
scalar RegressionTestingTutorialWireless.host2.wlan[0].mac.dcf.recipientMacDataService packetDeaggregated:count 0
scalar RegressionTestingTutorialWireless.host2.wlan[0].mac.dcf.recipientMacDataService packetDefragmented:count 16750
scalar RegressionTestingTutorialWireless.host2.wlan[0].mac.dcf.recipientMacDataService packetDropDuplicateDetected:count 0
scalar RegressionTestingTutorialWireless.host2.wlan[0].mac.dcf.recipientMacDataService packetDropDuplicateDetected:sum(packetBytes) 0
scalar RegressionTestingTutorialWireless.host2.wlan[0].mac.dcf.recoveryProcedure retryLimitReached:count 0
scalar RegressionTestingTutorialWireless.host2.wlan[0].mac.dcf frameSequenceFinished:count 0
scalar RegressionTestingTutorialWireless.host2.wlan[0].mac.dcf packetReceivedFromPeer:count 16750
scalar RegressionTestingTutorialWireless.host2.wlan[0].mac.dcf packetReceivedFromPeer:sum(packetBytes) 1239500
scalar RegressionTestingTutorialWireless.host2.wlan[0].mac.dcf packetReceivedFromPeerUnicast:count 16750
scalar RegressionTestingTutorialWireless.host2.wlan[0].mac.dcf packetReceivedFromPeerUnicast:sum(packetBytes) 1239500
scalar RegressionTestingTutorialWireless.host2.wlan[0].mac.dcf packetReceivedFromPeerMulticast:count 0
scalar RegressionTestingTutorialWireless.host2.wlan[0].mac.dcf packetReceivedFromPeerMulticast:sum(packetBytes) 0
scalar RegressionTestingTutorialWireless.host2.wlan[0].mac.dcf packetReceivedFromPeerBroadcast:count 0
scalar RegressionTestingTutorialWireless.host2.wlan[0].mac.dcf packetReceivedFromPeerBroadcast:sum(packetBytes) 0
scalar RegressionTestingTutorialWireless.host2.wlan[0].mac.dcf packetReceivedFromPeerWithRetry:count 0
scalar RegressionTestingTutorialWireless.host2.wlan[0].mac.dcf packetReceivedFromPeerWithRetry:sum(packetBytes) 0
scalar RegressionTestingTutorialWireless.host2.wlan[0].mac.dcf packetReceivedFromPeerWithoutRetry:count 16750
scalar RegressionTestingTutorialWireless.host2.wlan[0].mac.dcf packetReceivedFromPeerWithoutRetry:sum(packetBytes) 1239500
scalar RegressionTestingTutorialWireless.host2.wlan[0].mac.dcf packetSentToPeer:count 16750
scalar RegressionTestingTutorialWireless.host2.wlan[0].mac.dcf packetSentToPeer:sum(packetBytes) 234500
scalar RegressionTestingTutorialWireless.host2.wlan[0].mac.dcf packetSentToPeerUnicast:count 16750
scalar RegressionTestingTutorialWireless.host2.wlan[0].mac.dcf packetSentToPeerUnicast:sum(packetBytes) 234500
scalar RegressionTestingTutorialWireless.host2.wlan[0].mac.dcf packetSentToPeerMulticast:count 0
scalar RegressionTestingTutorialWireless.host2.wlan[0].mac.dcf packetSentToPeerMulticast:sum(packetBytes) 0
scalar RegressionTestingTutorialWireless.host2.wlan[0].mac.dcf packetSentToPeerBroadcast:count 0
scalar RegressionTestingTutorialWireless.host2.wlan[0].mac.dcf packetSentToPeerBroadcast:sum(packetBytes) 0
scalar RegressionTestingTutorialWireless.host2.wlan[0].mac.dcf packetSentToPeerWithRetry:count 0
scalar RegressionTestingTutorialWireless.host2.wlan[0].mac.dcf packetSentToPeerWithRetry:sum(packetBytes) 0
scalar RegressionTestingTutorialWireless.host2.wlan[0].mac.dcf packetSentToPeerWithoutRetry:count 16750
scalar RegressionTestingTutorialWireless.host2.wlan[0].mac.dcf packetSentToPeerWithoutRetry:sum(packetBytes) 234500
scalar RegressionTestingTutorialWireless.host2.wlan[0].mac.dcf packetDrop:count 0
scalar RegressionTestingTutorialWireless.host2.wlan[0].mac.dcf packetDrop:sum(packetBytes) 0
scalar RegressionTestingTutorialWireless.host2.wlan[0].mac.dcf packetDropNotAddressedToUs:count 0
scalar RegressionTestingTutorialWireless.host2.wlan[0].mac.dcf packetDropNotAddressedToUs:sum(packetBytes) 0
scalar RegressionTestingTutorialWireless.host2.wlan[0].mac.dcf packetDropQueueOverflow:count 0
scalar RegressionTestingTutorialWireless.host2.wlan[0].mac.dcf packetDropQueueOverflow:sum(packetBytes) 0
scalar RegressionTestingTutorialWireless.host2.wlan[0].mac.dcf packetDropRetryLimitReached:count 0
scalar RegressionTestingTutorialWireless.host2.wlan[0].mac.dcf packetDropRetryLimitReached:sum(packetBytes) 0
scalar RegressionTestingTutorialWireless.host2.wlan[0].mac.dcf linkBroken:count 0
scalar RegressionTestingTutorialWireless.host2.wlan[0].mac packetReceivedFromLower:count 16750
scalar RegressionTestingTutorialWireless.host2.wlan[0].mac packetReceivedFromLower:sum(packetBytes) 1239500
scalar RegressionTestingTutorialWireless.host2.wlan[0].mac packetSentToLower:count 16750
scalar RegressionTestingTutorialWireless.host2.wlan[0].mac packetSentToLower:sum(packetBytes) 234500
scalar RegressionTestingTutorialWireless.host2.wlan[0].mac packetReceivedFromUpper:count 0
scalar RegressionTestingTutorialWireless.host2.wlan[0].mac packetReceivedFromUpper:sum(packetBytes) 0
scalar RegressionTestingTutorialWireless.host2.wlan[0].mac packetSentToUpper:count 16750
scalar RegressionTestingTutorialWireless.host2.wlan[0].mac packetSentToUpper:sum(packetBytes) 770500
scalar RegressionTestingTutorialWireless.host2.wlan[0].mac packetDrop:count 0
scalar RegressionTestingTutorialWireless.host2.wlan[0].mac packetDrop:sum(packetBytes) 0
scalar RegressionTestingTutorialWireless.host2.wlan[0].mac packetDropIncorrectlyReceived:count 0
scalar RegressionTestingTutorialWireless.host2.wlan[0].mac packetDropIncorrectlyReceived:sum(packetBytes) 0
scalar RegressionTestingTutorialWireless.host2.wlan[0].mac packetDropNotAddressedToUs:count 0
scalar RegressionTestingTutorialWireless.host2.wlan[0].mac packetDropNotAddressedToUs:sum(packetBytes) 0
scalar RegressionTestingTutorialWireless.host2.wlan[0].mac packetDropQueueOverflow:count 0
scalar RegressionTestingTutorialWireless.host2.wlan[0].mac packetDropQueueOverflow:sum(packetBytes) 0
scalar RegressionTestingTutorialWireless.host2.wlan[0].mac packetDropRetryLimitReached:count 0
scalar RegressionTestingTutorialWireless.host2.wlan[0].mac packetDropRetryLimitReached:sum(packetBytes) 0
scalar RegressionTestingTutorialWireless.host2.wlan[0].mac packetDropDuplicateDetected:count 0
scalar RegressionTestingTutorialWireless.host2.wlan[0].mac packetDropDuplicateDetected:sum(packetBytes) 0
scalar RegressionTestingTutorialWireless.host2.wlan[0].mac packetDropOther:count 0
scalar RegressionTestingTutorialWireless.host2.wlan[0].mac packetDropOther:sum(packetBytes) 0
scalar RegressionTestingTutorialWireless.host2.wlan[0].mac linkBroken:count 0
scalar RegressionTestingTutorialWireless.host2.wlan[0].radio radioMode:count 33503
scalar RegressionTestingTutorialWireless.host2.wlan[0].radio receptionState:count 67001
scalar RegressionTestingTutorialWireless.host2.wlan[0].radio transmissionState:count 67000
scalar RegressionTestingTutorialWireless.host2.wlan[0] packetDropInterfaceDown:count 0
scalar RegressionTestingTutorialWireless.host2.wlan[0] packetDropInterfaceDown:sum(packetBytes) 0
scalar RegressionTestingTutorialWireless.host2.wlan[0] packetDropNoCarrier:count 0
scalar RegressionTestingTutorialWireless.host2.wlan[0] packetDropNoCarrier:sum(packetBytes) 0
scalar RegressionTestingTutorialWireless.host2.ipv4.ip packetDropAddressResolutionFailed:count 0
scalar RegressionTestingTutorialWireless.host2.ipv4.ip packetDropAddressResolutionFailed:sum(packetBytes) 0
scalar RegressionTestingTutorialWireless.host2.ipv4.ip packetDropHopLimitReached:count 0
scalar RegressionTestingTutorialWireless.host2.ipv4.ip packetDropHopLimitReached:sum(packetBytes) 0
scalar RegressionTestingTutorialWireless.host2.ipv4.ip packetDropForwardingDisabled:count 0
scalar RegressionTestingTutorialWireless.host2.ipv4.ip packetDropForwardingDisabled:sum(packetBytes) 0
scalar RegressionTestingTutorialWireless.host2.ipv4.ip packetDropLifetimeExpired:count 0
scalar RegressionTestingTutorialWireless.host2.ipv4.ip packetDropLifetimeExpired:sum(packetBytes) 0
scalar RegressionTestingTutorialWireless.host2.ipv4.ip packetDropNoInterfaceFound:count 0
scalar RegressionTestingTutorialWireless.host2.ipv4.ip packetDropNoInterfaceFound:sum(packetBytes) 0
scalar RegressionTestingTutorialWireless.host2.ipv4.ip packetDropNoRouteFound:count 0
scalar RegressionTestingTutorialWireless.host2.ipv4.ip packetDropNoRouteFound:sum(packetBytes) 0
scalar RegressionTestingTutorialWireless.host2.ipv4.ip packetDropUndefined:count 0
scalar RegressionTestingTutorialWireless.host2.ipv4.ip packetDropUndefined:sum(packetBytes) 0
scalar RegressionTestingTutorialWireless.host2.udp packetReceived:count 16750
scalar RegressionTestingTutorialWireless.host2.udp packetReceived:sum(packetBytes) 301500
scalar RegressionTestingTutorialWireless.host2.udp packetSent:count 0
scalar RegressionTestingTutorialWireless.host2.udp packetSent:sum(packetBytes) 0
scalar RegressionTestingTutorialWireless.host2.udp passedUpPk:count 16750
scalar RegressionTestingTutorialWireless.host2.udp droppedPkWrongPort:count 0
scalar RegressionTestingTutorialWireless.host2.udp droppedPkBadChecksum:count 0
scalar RegressionTestingTutorialWireless.host2.app[0] packetReceived:count 16750
scalar RegressionTestingTutorialWireless.host2.app[0] packetReceived:sum(packetBytes) 167500
scalar RegressionTestingTutorialWireless.host1.app[0] rcvdPkLifetime:stats:count 0
scalar RegressionTestingTutorialWireless.host1.app[0] rcvdPkLifetime:stats:sumweights 0
scalar RegressionTestingTutorialWireless.host1.app[0] rcvdPkLifetime:stats:mean -nan
scalar RegressionTestingTutorialWireless.host1.app[0] rcvdPkLifetime:stats:stddev nan
scalar RegressionTestingTutorialWireless.host1.app[0] rcvdPkLifetime:stats:min nan
scalar RegressionTestingTutorialWireless.host1.app[0] rcvdPkLifetime:stats:max nan
scalar RegressionTestingTutorialWireless.host1.app[0] rcvdPkLifetime:stats:numbins 0
scalar RegressionTestingTutorialWireless.host1.wlan[0].mac.dcf.channelAccess.pendingQueue queueingTime:histogram:count 16751
scalar RegressionTestingTutorialWireless.host1.wlan[0].mac.dcf.channelAccess.pendingQueue queueingTime:histogram:sumweights 16751
scalar RegressionTestingTutorialWireless.host1.wlan[0].mac.dcf.channelAccess.pendingQueue queueingTime:histogram:mean 0.029636202383846042
scalar RegressionTestingTutorialWireless.host1.wlan[0].mac.dcf.channelAccess.pendingQueue queueingTime:histogram:stddev 0.0019706496839996409
scalar RegressionTestingTutorialWireless.host1.wlan[0].mac.dcf.channelAccess.pendingQueue queueingTime:histogram:min 4.4039579e-05
scalar RegressionTestingTutorialWireless.host1.wlan[0].mac.dcf.channelAccess.pendingQueue queueingTime:histogram:max 0.032653555364999996
scalar RegressionTestingTutorialWireless.host1.wlan[0].mac.dcf.channelAccess.pendingQueue queueingTime:histogram:numbins 72
scalar RegressionTestingTutorialWireless.host1.wlan[0].mac.dcf.channelAccess.pendingQueue queueingTime:histogram:rangemin 0
scalar RegressionTestingTutorialWireless.host1.wlan[0].mac.dcf.channelAccess.pendingQueue queueingTime:histogram:rangemax 0.036000000000000004
scalar RegressionTestingTutorialWireless.host1.wlan[0].mac.dcf.channelAccess.pendingQueue queueingTime:histogram:underflows 0
scalar RegressionTestingTutorialWireless.host1.wlan[0].mac.dcf.channelAccess.pendingQueue queueingTime:histogram:overflows 0
scalar RegressionTestingTutorialWireless.host1.wlan[0].mac.dcf.channelAccess.pendingQueue outgoingPacketLengths:histogram:count 16751
scalar RegressionTestingTutorialWireless.host1.wlan[0].mac.dcf.channelAccess.pendingQueue outgoingPacketLengths:histogram:sumweights 16751
scalar RegressionTestingTutorialWireless.host1.wlan[0].mac.dcf.channelAccess.pendingQueue outgoingPacketLengths:histogram:mean 592
scalar RegressionTestingTutorialWireless.host1.wlan[0].mac.dcf.channelAccess.pendingQueue outgoingPacketLengths:histogram:stddev 0
scalar RegressionTestingTutorialWireless.host1.wlan[0].mac.dcf.channelAccess.pendingQueue outgoingPacketLengths:histogram:min 592
scalar RegressionTestingTutorialWireless.host1.wlan[0].mac.dcf.channelAccess.pendingQueue outgoingPacketLengths:histogram:max 592
scalar RegressionTestingTutorialWireless.host1.wlan[0].mac.dcf.channelAccess.pendingQueue outgoingPacketLengths:histogram:numbins 2
scalar RegressionTestingTutorialWireless.host1.wlan[0].mac.dcf.channelAccess.pendingQueue outgoingPacketLengths:histogram:rangemin 591
scalar RegressionTestingTutorialWireless.host1.wlan[0].mac.dcf.channelAccess.pendingQueue outgoingPacketLengths:histogram:rangemax 593
scalar RegressionTestingTutorialWireless.host1.wlan[0].mac.dcf.channelAccess.pendingQueue outgoingPacketLengths:histogram:underflows 0
scalar RegressionTestingTutorialWireless.host1.wlan[0].mac.dcf.channelAccess.pendingQueue outgoingPacketLengths:histogram:overflows 0
scalar RegressionTestingTutorialWireless.host1.wlan[0].mac.dcf.channelAccess.pendingQueue flowQueueingTime:histogram:count 0
scalar RegressionTestingTutorialWireless.host1.wlan[0].mac.dcf.channelAccess.pendingQueue flowQueueingTime:histogram:sumweights 0
scalar RegressionTestingTutorialWireless.host1.wlan[0].mac.dcf.channelAccess.pendingQueue flowQueueingTime:histogram:mean -nan
scalar RegressionTestingTutorialWireless.host1.wlan[0].mac.dcf.channelAccess.pendingQueue flowQueueingTime:histogram:stddev nan
scalar RegressionTestingTutorialWireless.host1.wlan[0].mac.dcf.channelAccess.pendingQueue flowQueueingTime:histogram:min nan
scalar RegressionTestingTutorialWireless.host1.wlan[0].mac.dcf.channelAccess.pendingQueue flowQueueingTime:histogram:max nan
scalar RegressionTestingTutorialWireless.host1.wlan[0].mac.dcf.channelAccess.pendingQueue flowQueueingTime:histogram:numbins 1
scalar RegressionTestingTutorialWireless.host1.wlan[0].mac.dcf.channelAccess.pendingQueue flowQueueingTime:histogram:rangemin 0
scalar RegressionTestingTutorialWireless.host1.wlan[0].mac.dcf.channelAccess.pendingQueue flowQueueingTime:histogram:rangemax 1
scalar RegressionTestingTutorialWireless.host1.wlan[0].mac.dcf.channelAccess.pendingQueue flowQueueingTime:histogram:underflows 0
scalar RegressionTestingTutorialWireless.host1.wlan[0].mac.dcf.channelAccess.pendingQueue flowQueueingTime:histogram:overflows 0
scalar RegressionTestingTutorialWireless.host1.wlan[0].mac.dcf.channelAccess.pendingQueue incomingPacketLengths:histogram:count 41666
scalar RegressionTestingTutorialWireless.host1.wlan[0].mac.dcf.channelAccess.pendingQueue incomingPacketLengths:histogram:sumweights 41666
scalar RegressionTestingTutorialWireless.host1.wlan[0].mac.dcf.channelAccess.pendingQueue incomingPacketLengths:histogram:mean 592
scalar RegressionTestingTutorialWireless.host1.wlan[0].mac.dcf.channelAccess.pendingQueue incomingPacketLengths:histogram:stddev 0
scalar RegressionTestingTutorialWireless.host1.wlan[0].mac.dcf.channelAccess.pendingQueue incomingPacketLengths:histogram:min 592
scalar RegressionTestingTutorialWireless.host1.wlan[0].mac.dcf.channelAccess.pendingQueue incomingPacketLengths:histogram:max 592
scalar RegressionTestingTutorialWireless.host1.wlan[0].mac.dcf.channelAccess.pendingQueue incomingPacketLengths:histogram:numbins 2
scalar RegressionTestingTutorialWireless.host1.wlan[0].mac.dcf.channelAccess.pendingQueue incomingPacketLengths:histogram:rangemin 591
scalar RegressionTestingTutorialWireless.host1.wlan[0].mac.dcf.channelAccess.pendingQueue incomingPacketLengths:histogram:rangemax 593
scalar RegressionTestingTutorialWireless.host1.wlan[0].mac.dcf.channelAccess.pendingQueue incomingPacketLengths:histogram:underflows 0
scalar RegressionTestingTutorialWireless.host1.wlan[0].mac.dcf.channelAccess.pendingQueue incomingPacketLengths:histogram:overflows 0
scalar RegressionTestingTutorialWireless.host1.wlan[0].mac.dcf.channelAccess.inProgressFrames queueingTime:histogram:count 16750
scalar RegressionTestingTutorialWireless.host1.wlan[0].mac.dcf.channelAccess.inProgressFrames queueingTime:histogram:sumweights 16750
scalar RegressionTestingTutorialWireless.host1.wlan[0].mac.dcf.channelAccess.inProgressFrames queueingTime:histogram:mean 0.00039661859686854743
scalar RegressionTestingTutorialWireless.host1.wlan[0].mac.dcf.channelAccess.inProgressFrames queueingTime:histogram:stddev 9.191702633069497e-05
scalar RegressionTestingTutorialWireless.host1.wlan[0].mac.dcf.channelAccess.inProgressFrames queueingTime:histogram:min 9.8161725999999997e-05
scalar RegressionTestingTutorialWireless.host1.wlan[0].mac.dcf.channelAccess.inProgressFrames queueingTime:histogram:max 0.00054632345199999996
scalar RegressionTestingTutorialWireless.host1.wlan[0].mac.dcf.channelAccess.inProgressFrames queueingTime:histogram:numbins 66
scalar RegressionTestingTutorialWireless.host1.wlan[0].mac.dcf.channelAccess.inProgressFrames queueingTime:histogram:rangemin 0
scalar RegressionTestingTutorialWireless.host1.wlan[0].mac.dcf.channelAccess.inProgressFrames queueingTime:histogram:rangemax 0.0006600000000000001
scalar RegressionTestingTutorialWireless.host1.wlan[0].mac.dcf.channelAccess.inProgressFrames queueingTime:histogram:underflows 0
scalar RegressionTestingTutorialWireless.host1.wlan[0].mac.dcf.channelAccess.inProgressFrames queueingTime:histogram:overflows 0
scalar RegressionTestingTutorialWireless.host1.wlan[0].mac.dcf frameSequenceDuration:histogram:count 16750
scalar RegressionTestingTutorialWireless.host1.wlan[0].mac.dcf frameSequenceDuration:histogram:sumweights 16750
scalar RegressionTestingTutorialWireless.host1.wlan[0].mac.dcf frameSequenceDuration:histogram:mean 9.8161726000024229e-05
scalar RegressionTestingTutorialWireless.host1.wlan[0].mac.dcf frameSequenceDuration:histogram:stddev 0
scalar RegressionTestingTutorialWireless.host1.wlan[0].mac.dcf frameSequenceDuration:histogram:min 9.8161725999999997e-05
scalar RegressionTestingTutorialWireless.host1.wlan[0].mac.dcf frameSequenceDuration:histogram:max 9.8161725999999997e-05
scalar RegressionTestingTutorialWireless.host1.wlan[0].mac.dcf frameSequenceDuration:histogram:numbins 51
scalar RegressionTestingTutorialWireless.host1.wlan[0].mac.dcf frameSequenceDuration:histogram:rangemin 0
scalar RegressionTestingTutorialWireless.host1.wlan[0].mac.dcf frameSequenceDuration:histogram:rangemax 0.51000000000000001
scalar RegressionTestingTutorialWireless.host1.wlan[0].mac.dcf frameSequenceDuration:histogram:underflows 0
scalar RegressionTestingTutorialWireless.host1.wlan[0].mac.dcf frameSequenceDuration:histogram:overflows 0
scalar RegressionTestingTutorialWireless.host1.wlan[0].mac.dcf frameSequenceNumPackets:histogram:count 16750
scalar RegressionTestingTutorialWireless.host1.wlan[0].mac.dcf frameSequenceNumPackets:histogram:sumweights 16750
scalar RegressionTestingTutorialWireless.host1.wlan[0].mac.dcf frameSequenceNumPackets:histogram:mean 2
scalar RegressionTestingTutorialWireless.host1.wlan[0].mac.dcf frameSequenceNumPackets:histogram:stddev 0
scalar RegressionTestingTutorialWireless.host1.wlan[0].mac.dcf frameSequenceNumPackets:histogram:min 2
scalar RegressionTestingTutorialWireless.host1.wlan[0].mac.dcf frameSequenceNumPackets:histogram:max 2
scalar RegressionTestingTutorialWireless.host1.wlan[0].mac.dcf frameSequenceNumPackets:histogram:numbins 2
scalar RegressionTestingTutorialWireless.host1.wlan[0].mac.dcf frameSequenceNumPackets:histogram:rangemin 1
scalar RegressionTestingTutorialWireless.host1.wlan[0].mac.dcf frameSequenceNumPackets:histogram:rangemax 3
scalar RegressionTestingTutorialWireless.host1.wlan[0].mac.dcf frameSequenceNumPackets:histogram:underflows 0
scalar RegressionTestingTutorialWireless.host1.wlan[0].mac.dcf frameSequenceNumPackets:histogram:overflows 0
scalar RegressionTestingTutorialWireless.host1.wlan[0].radio radioChannel:histogram:count 1
scalar RegressionTestingTutorialWireless.host1.wlan[0].radio radioChannel:histogram:sumweights 1
scalar RegressionTestingTutorialWireless.host1.wlan[0].radio radioChannel:histogram:mean 0
scalar RegressionTestingTutorialWireless.host1.wlan[0].radio radioChannel:histogram:stddev nan
scalar RegressionTestingTutorialWireless.host1.wlan[0].radio radioChannel:histogram:min 0
scalar RegressionTestingTutorialWireless.host1.wlan[0].radio radioChannel:histogram:max 0
scalar RegressionTestingTutorialWireless.host1.wlan[0].radio radioChannel:histogram:numbins 50
scalar RegressionTestingTutorialWireless.host1.wlan[0].radio radioChannel:histogram:rangemin -0.5
scalar RegressionTestingTutorialWireless.host1.wlan[0].radio radioChannel:histogram:rangemax 0.5
scalar RegressionTestingTutorialWireless.host1.wlan[0].radio radioChannel:histogram:underflows 0
scalar RegressionTestingTutorialWireless.host1.wlan[0].radio radioChannel:histogram:overflows 0
scalar RegressionTestingTutorialWireless.host1.wlan[0].radio minSnir:histogram:count 16750
scalar RegressionTestingTutorialWireless.host1.wlan[0].radio minSnir:histogram:sumweights 16750
scalar RegressionTestingTutorialWireless.host1.wlan[0].radio minSnir:histogram:mean 332932.47211135662
scalar RegressionTestingTutorialWireless.host1.wlan[0].radio minSnir:histogram:stddev 0
scalar RegressionTestingTutorialWireless.host1.wlan[0].radio minSnir:histogram:min 332932.4721113288
scalar RegressionTestingTutorialWireless.host1.wlan[0].radio minSnir:histogram:max 332932.4721113288
scalar RegressionTestingTutorialWireless.host1.wlan[0].radio minSnir:histogram:numbins 51
scalar RegressionTestingTutorialWireless.host1.wlan[0].radio minSnir:histogram:rangemin 332931.96000000002
scalar RegressionTestingTutorialWireless.host1.wlan[0].radio minSnir:histogram:rangemax 332932.98000000004
scalar RegressionTestingTutorialWireless.host1.wlan[0].radio minSnir:histogram:underflows 0
scalar RegressionTestingTutorialWireless.host1.wlan[0].radio minSnir:histogram:overflows 0
scalar RegressionTestingTutorialWireless.host1.wlan[0].radio packetErrorRate:histogram:count 16750
scalar RegressionTestingTutorialWireless.host1.wlan[0].radio packetErrorRate:histogram:sumweights 16750
scalar RegressionTestingTutorialWireless.host1.wlan[0].radio packetErrorRate:histogram:mean 0
scalar RegressionTestingTutorialWireless.host1.wlan[0].radio packetErrorRate:histogram:stddev 0
scalar RegressionTestingTutorialWireless.host1.wlan[0].radio packetErrorRate:histogram:min 0
scalar RegressionTestingTutorialWireless.host1.wlan[0].radio packetErrorRate:histogram:max 0
scalar RegressionTestingTutorialWireless.host1.wlan[0].radio packetErrorRate:histogram:numbins 50
scalar RegressionTestingTutorialWireless.host1.wlan[0].radio packetErrorRate:histogram:rangemin -0.5
scalar RegressionTestingTutorialWireless.host1.wlan[0].radio packetErrorRate:histogram:rangemax 0.5
scalar RegressionTestingTutorialWireless.host1.wlan[0].radio packetErrorRate:histogram:underflows 0
scalar RegressionTestingTutorialWireless.host1.wlan[0].radio packetErrorRate:histogram:overflows 0
scalar RegressionTestingTutorialWireless.host1.wlan[0].radio bitErrorRate:histogram:count 0
scalar RegressionTestingTutorialWireless.host1.wlan[0].radio bitErrorRate:histogram:sumweights 0
scalar RegressionTestingTutorialWireless.host1.wlan[0].radio bitErrorRate:histogram:mean -nan
scalar RegressionTestingTutorialWireless.host1.wlan[0].radio bitErrorRate:histogram:stddev nan
scalar RegressionTestingTutorialWireless.host1.wlan[0].radio bitErrorRate:histogram:min nan
scalar RegressionTestingTutorialWireless.host1.wlan[0].radio bitErrorRate:histogram:max nan
scalar RegressionTestingTutorialWireless.host1.wlan[0].radio bitErrorRate:histogram:numbins 1
scalar RegressionTestingTutorialWireless.host1.wlan[0].radio bitErrorRate:histogram:rangemin 0
scalar RegressionTestingTutorialWireless.host1.wlan[0].radio bitErrorRate:histogram:rangemax 1
scalar RegressionTestingTutorialWireless.host1.wlan[0].radio bitErrorRate:histogram:underflows 0
scalar RegressionTestingTutorialWireless.host1.wlan[0].radio bitErrorRate:histogram:overflows 0
scalar RegressionTestingTutorialWireless.host1.wlan[0].radio symbolErrorRate:histogram:count 0
scalar RegressionTestingTutorialWireless.host1.wlan[0].radio symbolErrorRate:histogram:sumweights 0
scalar RegressionTestingTutorialWireless.host1.wlan[0].radio symbolErrorRate:histogram:mean -nan
scalar RegressionTestingTutorialWireless.host1.wlan[0].radio symbolErrorRate:histogram:stddev nan
scalar RegressionTestingTutorialWireless.host1.wlan[0].radio symbolErrorRate:histogram:min nan
scalar RegressionTestingTutorialWireless.host1.wlan[0].radio symbolErrorRate:histogram:max nan
scalar RegressionTestingTutorialWireless.host1.wlan[0].radio symbolErrorRate:histogram:numbins 1
scalar RegressionTestingTutorialWireless.host1.wlan[0].radio symbolErrorRate:histogram:rangemin 0
scalar RegressionTestingTutorialWireless.host1.wlan[0].radio symbolErrorRate:histogram:rangemax 1
scalar RegressionTestingTutorialWireless.host1.wlan[0].radio symbolErrorRate:histogram:underflows 0
scalar RegressionTestingTutorialWireless.host1.wlan[0].radio symbolErrorRate:histogram:overflows 0
scalar RegressionTestingTutorialWireless.host2.wlan[0].mac.dcf.channelAccess.pendingQueue queueingTime:histogram:count 0
scalar RegressionTestingTutorialWireless.host2.wlan[0].mac.dcf.channelAccess.pendingQueue queueingTime:histogram:sumweights 0
scalar RegressionTestingTutorialWireless.host2.wlan[0].mac.dcf.channelAccess.pendingQueue queueingTime:histogram:mean -nan
scalar RegressionTestingTutorialWireless.host2.wlan[0].mac.dcf.channelAccess.pendingQueue queueingTime:histogram:stddev nan
scalar RegressionTestingTutorialWireless.host2.wlan[0].mac.dcf.channelAccess.pendingQueue queueingTime:histogram:min nan
scalar RegressionTestingTutorialWireless.host2.wlan[0].mac.dcf.channelAccess.pendingQueue queueingTime:histogram:max nan
scalar RegressionTestingTutorialWireless.host2.wlan[0].mac.dcf.channelAccess.pendingQueue queueingTime:histogram:numbins 1
scalar RegressionTestingTutorialWireless.host2.wlan[0].mac.dcf.channelAccess.pendingQueue queueingTime:histogram:rangemin 0
scalar RegressionTestingTutorialWireless.host2.wlan[0].mac.dcf.channelAccess.pendingQueue queueingTime:histogram:rangemax 1
scalar RegressionTestingTutorialWireless.host2.wlan[0].mac.dcf.channelAccess.pendingQueue queueingTime:histogram:underflows 0
scalar RegressionTestingTutorialWireless.host2.wlan[0].mac.dcf.channelAccess.pendingQueue queueingTime:histogram:overflows 0
scalar RegressionTestingTutorialWireless.host2.wlan[0].mac.dcf.channelAccess.pendingQueue outgoingPacketLengths:histogram:count 0
scalar RegressionTestingTutorialWireless.host2.wlan[0].mac.dcf.channelAccess.pendingQueue outgoingPacketLengths:histogram:sumweights 0
scalar RegressionTestingTutorialWireless.host2.wlan[0].mac.dcf.channelAccess.pendingQueue outgoingPacketLengths:histogram:mean -nan
scalar RegressionTestingTutorialWireless.host2.wlan[0].mac.dcf.channelAccess.pendingQueue outgoingPacketLengths:histogram:stddev nan
scalar RegressionTestingTutorialWireless.host2.wlan[0].mac.dcf.channelAccess.pendingQueue outgoingPacketLengths:histogram:min nan
scalar RegressionTestingTutorialWireless.host2.wlan[0].mac.dcf.channelAccess.pendingQueue outgoingPacketLengths:histogram:max nan
scalar RegressionTestingTutorialWireless.host2.wlan[0].mac.dcf.channelAccess.pendingQueue outgoingPacketLengths:histogram:numbins 1
scalar RegressionTestingTutorialWireless.host2.wlan[0].mac.dcf.channelAccess.pendingQueue outgoingPacketLengths:histogram:rangemin 0
scalar RegressionTestingTutorialWireless.host2.wlan[0].mac.dcf.channelAccess.pendingQueue outgoingPacketLengths:histogram:rangemax 1
scalar RegressionTestingTutorialWireless.host2.wlan[0].mac.dcf.channelAccess.pendingQueue outgoingPacketLengths:histogram:underflows 0
scalar RegressionTestingTutorialWireless.host2.wlan[0].mac.dcf.channelAccess.pendingQueue outgoingPacketLengths:histogram:overflows 0
scalar RegressionTestingTutorialWireless.host2.wlan[0].mac.dcf.channelAccess.pendingQueue flowQueueingTime:histogram:count 0
scalar RegressionTestingTutorialWireless.host2.wlan[0].mac.dcf.channelAccess.pendingQueue flowQueueingTime:histogram:sumweights 0
scalar RegressionTestingTutorialWireless.host2.wlan[0].mac.dcf.channelAccess.pendingQueue flowQueueingTime:histogram:mean -nan
scalar RegressionTestingTutorialWireless.host2.wlan[0].mac.dcf.channelAccess.pendingQueue flowQueueingTime:histogram:stddev nan
scalar RegressionTestingTutorialWireless.host2.wlan[0].mac.dcf.channelAccess.pendingQueue flowQueueingTime:histogram:min nan
scalar RegressionTestingTutorialWireless.host2.wlan[0].mac.dcf.channelAccess.pendingQueue flowQueueingTime:histogram:max nan
scalar RegressionTestingTutorialWireless.host2.wlan[0].mac.dcf.channelAccess.pendingQueue flowQueueingTime:histogram:numbins 1
scalar RegressionTestingTutorialWireless.host2.wlan[0].mac.dcf.channelAccess.pendingQueue flowQueueingTime:histogram:rangemin 0
scalar RegressionTestingTutorialWireless.host2.wlan[0].mac.dcf.channelAccess.pendingQueue flowQueueingTime:histogram:rangemax 1
scalar RegressionTestingTutorialWireless.host2.wlan[0].mac.dcf.channelAccess.pendingQueue flowQueueingTime:histogram:underflows 0
scalar RegressionTestingTutorialWireless.host2.wlan[0].mac.dcf.channelAccess.pendingQueue flowQueueingTime:histogram:overflows 0
scalar RegressionTestingTutorialWireless.host2.wlan[0].mac.dcf.channelAccess.pendingQueue incomingPacketLengths:histogram:count 0
scalar RegressionTestingTutorialWireless.host2.wlan[0].mac.dcf.channelAccess.pendingQueue incomingPacketLengths:histogram:sumweights 0
scalar RegressionTestingTutorialWireless.host2.wlan[0].mac.dcf.channelAccess.pendingQueue incomingPacketLengths:histogram:mean -nan
scalar RegressionTestingTutorialWireless.host2.wlan[0].mac.dcf.channelAccess.pendingQueue incomingPacketLengths:histogram:stddev nan
scalar RegressionTestingTutorialWireless.host2.wlan[0].mac.dcf.channelAccess.pendingQueue incomingPacketLengths:histogram:min nan
scalar RegressionTestingTutorialWireless.host2.wlan[0].mac.dcf.channelAccess.pendingQueue incomingPacketLengths:histogram:max nan
scalar RegressionTestingTutorialWireless.host2.wlan[0].mac.dcf.channelAccess.pendingQueue incomingPacketLengths:histogram:numbins 1
scalar RegressionTestingTutorialWireless.host2.wlan[0].mac.dcf.channelAccess.pendingQueue incomingPacketLengths:histogram:rangemin 0
scalar RegressionTestingTutorialWireless.host2.wlan[0].mac.dcf.channelAccess.pendingQueue incomingPacketLengths:histogram:rangemax 1
scalar RegressionTestingTutorialWireless.host2.wlan[0].mac.dcf.channelAccess.pendingQueue incomingPacketLengths:histogram:underflows 0
scalar RegressionTestingTutorialWireless.host2.wlan[0].mac.dcf.channelAccess.pendingQueue incomingPacketLengths:histogram:overflows 0
scalar RegressionTestingTutorialWireless.host2.wlan[0].mac.dcf.channelAccess.inProgressFrames queueingTime:histogram:count 0
scalar RegressionTestingTutorialWireless.host2.wlan[0].mac.dcf.channelAccess.inProgressFrames queueingTime:histogram:sumweights 0
scalar RegressionTestingTutorialWireless.host2.wlan[0].mac.dcf.channelAccess.inProgressFrames queueingTime:histogram:mean -nan
scalar RegressionTestingTutorialWireless.host2.wlan[0].mac.dcf.channelAccess.inProgressFrames queueingTime:histogram:stddev nan
scalar RegressionTestingTutorialWireless.host2.wlan[0].mac.dcf.channelAccess.inProgressFrames queueingTime:histogram:min nan
scalar RegressionTestingTutorialWireless.host2.wlan[0].mac.dcf.channelAccess.inProgressFrames queueingTime:histogram:max nan
scalar RegressionTestingTutorialWireless.host2.wlan[0].mac.dcf.channelAccess.inProgressFrames queueingTime:histogram:numbins 1
scalar RegressionTestingTutorialWireless.host2.wlan[0].mac.dcf.channelAccess.inProgressFrames queueingTime:histogram:rangemin 0
scalar RegressionTestingTutorialWireless.host2.wlan[0].mac.dcf.channelAccess.inProgressFrames queueingTime:histogram:rangemax 1
scalar RegressionTestingTutorialWireless.host2.wlan[0].mac.dcf.channelAccess.inProgressFrames queueingTime:histogram:underflows 0
scalar RegressionTestingTutorialWireless.host2.wlan[0].mac.dcf.channelAccess.inProgressFrames queueingTime:histogram:overflows 0
scalar RegressionTestingTutorialWireless.host2.wlan[0].mac.dcf frameSequenceDuration:histogram:count 0
scalar RegressionTestingTutorialWireless.host2.wlan[0].mac.dcf frameSequenceDuration:histogram:sumweights 0
scalar RegressionTestingTutorialWireless.host2.wlan[0].mac.dcf frameSequenceDuration:histogram:mean -nan
scalar RegressionTestingTutorialWireless.host2.wlan[0].mac.dcf frameSequenceDuration:histogram:stddev nan
scalar RegressionTestingTutorialWireless.host2.wlan[0].mac.dcf frameSequenceDuration:histogram:min nan
scalar RegressionTestingTutorialWireless.host2.wlan[0].mac.dcf frameSequenceDuration:histogram:max nan
scalar RegressionTestingTutorialWireless.host2.wlan[0].mac.dcf frameSequenceDuration:histogram:numbins 1
scalar RegressionTestingTutorialWireless.host2.wlan[0].mac.dcf frameSequenceDuration:histogram:rangemin 0
scalar RegressionTestingTutorialWireless.host2.wlan[0].mac.dcf frameSequenceDuration:histogram:rangemax 1
scalar RegressionTestingTutorialWireless.host2.wlan[0].mac.dcf frameSequenceDuration:histogram:underflows 0
scalar RegressionTestingTutorialWireless.host2.wlan[0].mac.dcf frameSequenceDuration:histogram:overflows 0
scalar RegressionTestingTutorialWireless.host2.wlan[0].mac.dcf frameSequenceNumPackets:histogram:count 0
scalar RegressionTestingTutorialWireless.host2.wlan[0].mac.dcf frameSequenceNumPackets:histogram:sumweights 0
scalar RegressionTestingTutorialWireless.host2.wlan[0].mac.dcf frameSequenceNumPackets:histogram:mean -nan
scalar RegressionTestingTutorialWireless.host2.wlan[0].mac.dcf frameSequenceNumPackets:histogram:stddev nan
scalar RegressionTestingTutorialWireless.host2.wlan[0].mac.dcf frameSequenceNumPackets:histogram:min nan
scalar RegressionTestingTutorialWireless.host2.wlan[0].mac.dcf frameSequenceNumPackets:histogram:max nan
scalar RegressionTestingTutorialWireless.host2.wlan[0].mac.dcf frameSequenceNumPackets:histogram:numbins 1
scalar RegressionTestingTutorialWireless.host2.wlan[0].mac.dcf frameSequenceNumPackets:histogram:rangemin 0
scalar RegressionTestingTutorialWireless.host2.wlan[0].mac.dcf frameSequenceNumPackets:histogram:rangemax 1
scalar RegressionTestingTutorialWireless.host2.wlan[0].mac.dcf frameSequenceNumPackets:histogram:underflows 0
scalar RegressionTestingTutorialWireless.host2.wlan[0].mac.dcf frameSequenceNumPackets:histogram:overflows 0
scalar RegressionTestingTutorialWireless.host2.wlan[0].radio radioChannel:histogram:count 1
scalar RegressionTestingTutorialWireless.host2.wlan[0].radio radioChannel:histogram:sumweights 1
scalar RegressionTestingTutorialWireless.host2.wlan[0].radio radioChannel:histogram:mean 0
scalar RegressionTestingTutorialWireless.host2.wlan[0].radio radioChannel:histogram:stddev nan
scalar RegressionTestingTutorialWireless.host2.wlan[0].radio radioChannel:histogram:min 0
scalar RegressionTestingTutorialWireless.host2.wlan[0].radio radioChannel:histogram:max 0
scalar RegressionTestingTutorialWireless.host2.wlan[0].radio radioChannel:histogram:numbins 50
scalar RegressionTestingTutorialWireless.host2.wlan[0].radio radioChannel:histogram:rangemin -0.5
scalar RegressionTestingTutorialWireless.host2.wlan[0].radio radioChannel:histogram:rangemax 0.5
scalar RegressionTestingTutorialWireless.host2.wlan[0].radio radioChannel:histogram:underflows 0
scalar RegressionTestingTutorialWireless.host2.wlan[0].radio radioChannel:histogram:overflows 0
scalar RegressionTestingTutorialWireless.host2.wlan[0].radio minSnir:histogram:count 16750
scalar RegressionTestingTutorialWireless.host2.wlan[0].radio minSnir:histogram:sumweights 16750
scalar RegressionTestingTutorialWireless.host2.wlan[0].radio minSnir:histogram:mean 332932.47211135662
scalar RegressionTestingTutorialWireless.host2.wlan[0].radio minSnir:histogram:stddev 0
scalar RegressionTestingTutorialWireless.host2.wlan[0].radio minSnir:histogram:min 332932.4721113288
scalar RegressionTestingTutorialWireless.host2.wlan[0].radio minSnir:histogram:max 332932.4721113288
scalar RegressionTestingTutorialWireless.host2.wlan[0].radio minSnir:histogram:numbins 51
scalar RegressionTestingTutorialWireless.host2.wlan[0].radio minSnir:histogram:rangemin 332931.96000000002
scalar RegressionTestingTutorialWireless.host2.wlan[0].radio minSnir:histogram:rangemax 332932.98000000004
scalar RegressionTestingTutorialWireless.host2.wlan[0].radio minSnir:histogram:underflows 0
scalar RegressionTestingTutorialWireless.host2.wlan[0].radio minSnir:histogram:overflows 0
scalar RegressionTestingTutorialWireless.host2.wlan[0].radio packetErrorRate:histogram:count 16750
scalar RegressionTestingTutorialWireless.host2.wlan[0].radio packetErrorRate:histogram:sumweights 16750
scalar RegressionTestingTutorialWireless.host2.wlan[0].radio packetErrorRate:histogram:mean 0
scalar RegressionTestingTutorialWireless.host2.wlan[0].radio packetErrorRate:histogram:stddev 0
scalar RegressionTestingTutorialWireless.host2.wlan[0].radio packetErrorRate:histogram:min 0
scalar RegressionTestingTutorialWireless.host2.wlan[0].radio packetErrorRate:histogram:max 0
scalar RegressionTestingTutorialWireless.host2.wlan[0].radio packetErrorRate:histogram:numbins 50
scalar RegressionTestingTutorialWireless.host2.wlan[0].radio packetErrorRate:histogram:rangemin -0.5
scalar RegressionTestingTutorialWireless.host2.wlan[0].radio packetErrorRate:histogram:rangemax 0.5
scalar RegressionTestingTutorialWireless.host2.wlan[0].radio packetErrorRate:histogram:underflows 0
scalar RegressionTestingTutorialWireless.host2.wlan[0].radio packetErrorRate:histogram:overflows 0
scalar RegressionTestingTutorialWireless.host2.wlan[0].radio bitErrorRate:histogram:count 0
scalar RegressionTestingTutorialWireless.host2.wlan[0].radio bitErrorRate:histogram:sumweights 0
scalar RegressionTestingTutorialWireless.host2.wlan[0].radio bitErrorRate:histogram:mean -nan
scalar RegressionTestingTutorialWireless.host2.wlan[0].radio bitErrorRate:histogram:stddev nan
scalar RegressionTestingTutorialWireless.host2.wlan[0].radio bitErrorRate:histogram:min nan
scalar RegressionTestingTutorialWireless.host2.wlan[0].radio bitErrorRate:histogram:max nan
scalar RegressionTestingTutorialWireless.host2.wlan[0].radio bitErrorRate:histogram:numbins 1
scalar RegressionTestingTutorialWireless.host2.wlan[0].radio bitErrorRate:histogram:rangemin 0
scalar RegressionTestingTutorialWireless.host2.wlan[0].radio bitErrorRate:histogram:rangemax 1
scalar RegressionTestingTutorialWireless.host2.wlan[0].radio bitErrorRate:histogram:underflows 0
scalar RegressionTestingTutorialWireless.host2.wlan[0].radio bitErrorRate:histogram:overflows 0
scalar RegressionTestingTutorialWireless.host2.wlan[0].radio symbolErrorRate:histogram:count 0
scalar RegressionTestingTutorialWireless.host2.wlan[0].radio symbolErrorRate:histogram:sumweights 0
scalar RegressionTestingTutorialWireless.host2.wlan[0].radio symbolErrorRate:histogram:mean -nan
scalar RegressionTestingTutorialWireless.host2.wlan[0].radio symbolErrorRate:histogram:stddev nan
scalar RegressionTestingTutorialWireless.host2.wlan[0].radio symbolErrorRate:histogram:min nan
scalar RegressionTestingTutorialWireless.host2.wlan[0].radio symbolErrorRate:histogram:max nan
scalar RegressionTestingTutorialWireless.host2.wlan[0].radio symbolErrorRate:histogram:numbins 1
scalar RegressionTestingTutorialWireless.host2.wlan[0].radio symbolErrorRate:histogram:rangemin 0
scalar RegressionTestingTutorialWireless.host2.wlan[0].radio symbolErrorRate:histogram:rangemax 1
scalar RegressionTestingTutorialWireless.host2.wlan[0].radio symbolErrorRate:histogram:underflows 0
scalar RegressionTestingTutorialWireless.host2.wlan[0].radio symbolErrorRate:histogram:overflows 0
scalar RegressionTestingTutorialWireless.host2.app[0] endToEndDelay:histogram:count 16750
scalar RegressionTestingTutorialWireless.host2.app[0] endToEndDelay:histogram:sumweights 16750
scalar RegressionTestingTutorialWireless.host2.app[0] endToEndDelay:histogram:mean 0.02998271094840298
scalar RegressionTestingTutorialWireless.host2.app[0] endToEndDelay:histogram:stddev 0.0019734264493749326
scalar RegressionTestingTutorialWireless.host2.app[0] endToEndDelay:histogram:min 9.2120442000000001e-05
scalar RegressionTestingTutorialWireless.host2.app[0] endToEndDelay:histogram:max 0.033102136085999996
scalar RegressionTestingTutorialWireless.host2.app[0] endToEndDelay:histogram:numbins 73
scalar RegressionTestingTutorialWireless.host2.app[0] endToEndDelay:histogram:rangemin 0
scalar RegressionTestingTutorialWireless.host2.app[0] endToEndDelay:histogram:rangemax 0.036499999999999998
scalar RegressionTestingTutorialWireless.host2.app[0] endToEndDelay:histogram:underflows 0
scalar RegressionTestingTutorialWireless.host2.app[0] endToEndDelay:histogram:overflows 0
statistic RegressionTestingTutorialWireless.host1.app[0] rcvdPkLifetime:stats
field count 0
field mean -nan
field stddev nan
field min nan
field max nan
field sum 0
field sqrsum 0
statistic RegressionTestingTutorialWireless.host1.wlan[0].mac.dcf.channelAccess.pendingQueue queueingTime:histogram
field count 16751
field mean 0.029636202383846042
field stddev 0.0019706496839996409
field min 4.4039579e-05
field max 0.032653555364999996
field sum 496.43602613180508
field sqrsum 14.777526499040009
bin	-inf	0
bin	0	5
bin	0.00050000000000000001	2
bin	0.001	3
bin	0.0015	3
bin	0.002	2
bin	0.0025000000000000001	2
bin	0.0030000000000000001	2
bin	0.0035000000000000001	2
bin	0.0040000000000000001	4
bin	0.0045000000000000005	2
bin	0.0050000000000000001	2
bin	0.0054999999999999997	2
bin	0.0060000000000000001	5
bin	0.0065000000000000006	4
bin	0.0070000000000000001	4
bin	0.0074999999999999997	2
bin	0.0080000000000000002	3
bin	0.0085000000000000006	4
bin	0.0090000000000000011	4
bin	0.0094999999999999998	2
bin	0.01	1
bin	0.010500000000000001	4
bin	0.010999999999999999	1
bin	0.0115	3
bin	0.012	4
bin	0.012500000000000001	2
bin	0.013000000000000001	2
bin	0.0135	3
bin	0.014	2
bin	0.014500000000000001	3
bin	0.014999999999999999	2
bin	0.0155	4
bin	0.016	2
bin	0.016500000000000001	4
bin	0.017000000000000001	4
bin	0.017500000000000002	3
bin	0.018000000000000002	3
bin	0.018499999999999999	3
bin	0.019	2
bin	0.0195	3
bin	0.02	2
bin	0.020500000000000001	3
bin	0.021000000000000001	3
bin	0.021500000000000002	3
bin	0.021999999999999999	3
bin	0.022499999999999999	3
bin	0.023	4
bin	0.0235	1
bin	0.024	4
bin	0.024500000000000001	5
bin	0.025000000000000001	3
bin	0.025500000000000002	3
bin	0.026000000000000002	3
bin	0.026499999999999999	8
bin	0.027	148
bin	0.0275	408
bin	0.028000000000000001	1023
bin	0.028500000000000001	1631
bin	0.029000000000000001	3060
bin	0.029500000000000002	3665
bin	0.029999999999999999	2917
bin	0.030499999999999999	1882
bin	0.031	1243
bin	0.0315	496
bin	0.032000000000000001	99
bin	0.032500000000000001	17
bin	0.033000000000000002	0
bin	0.033500000000000002	0
bin	0.034000000000000002	0
bin	0.034500000000000003	0
bin	0.035000000000000003	0
bin	0.035500000000000004	0
bin	0.036000000000000004	0
statistic RegressionTestingTutorialWireless.host1.wlan[0].mac.dcf.channelAccess.pendingQueue outgoingPacketLengths:histogram
field count 16751
field mean 592
field stddev 0
field min 592
field max 592
field sum 9916592
field sqrsum 5870622464
bin	-inf	0
bin	591	0
bin	592	16751
bin	593	0
statistic RegressionTestingTutorialWireless.host1.wlan[0].mac.dcf.channelAccess.pendingQueue flowQueueingTime:histogram
field count 0
field mean -nan
field stddev nan
field min nan
field max nan
field sum 0
field sqrsum 0
bin	-inf	0
bin	0	0
bin	1	0
statistic RegressionTestingTutorialWireless.host1.wlan[0].mac.dcf.channelAccess.pendingQueue incomingPacketLengths:histogram
field count 41666
field mean 592
field stddev 0
field min 592
field max 592
field sum 24666272
field sqrsum 14602433024
bin	-inf	0
bin	591	0
bin	592	41666
bin	593	0
statistic RegressionTestingTutorialWireless.host1.wlan[0].mac.dcf.channelAccess.inProgressFrames queueingTime:histogram
field count 16750
field mean 0.00039661859686854743
field stddev 9.191702633069497e-05
field min 9.8161725999999997e-05
field max 0.00054632345199999996
field sum 6.6433614975481694
field sqrsum 0.0027763886573771083
bin	-inf	0
bin	0	0
bin	1.0000000000000001e-05	0
bin	2.0000000000000002e-05	0
bin	3.0000000000000004e-05	0
bin	4.0000000000000003e-05	0
bin	5.0000000000000002e-05	0
bin	6.0000000000000008e-05	0
bin	7.0000000000000007e-05	0
bin	8.0000000000000007e-05	0
bin	9.0000000000000006e-05	2
bin	0.0001	0
bin	0.00011	0
bin	0.00012000000000000002	0
bin	0.00013000000000000002	0
bin	0.00014000000000000001	0
bin	0.00015000000000000001	0
bin	0.00016000000000000001	0
bin	0.00017000000000000001	0
bin	0.00018000000000000001	0
bin	0.00019000000000000001	0
bin	0.00020000000000000001	0
bin	0.00021000000000000001	0
bin	0.00022000000000000001	0
bin	0.00023000000000000001	0
bin	0.00024000000000000003	1026
bin	0.00025000000000000001	0
bin	0.00026000000000000003	1009
bin	0.00027	0
bin	0.00028000000000000003	1053
bin	0.00029	0
bin	0.00030000000000000003	1063
bin	0.00031	0
bin	0.00032000000000000003	1042
bin	0.00033000000000000005	0
bin	0.00034000000000000002	1076
bin	0.00035000000000000005	0
bin	0.00036000000000000002	1079
bin	0.00037000000000000005	0
bin	0.00038000000000000002	988
bin	0.00039000000000000005	0
bin	0.00040000000000000002	1027
bin	0.00041000000000000005	0
bin	0.00042000000000000002	1076
bin	0.00043000000000000004	0
bin	0.00044000000000000002	1050
bin	0.00045000000000000004	0
bin	0.00046000000000000001	1073
bin	0.00047000000000000004	0
bin	0.00048000000000000007	1061
bin	0.00049000000000000009	0
bin	0.00050000000000000001	1051
bin	0.00051000000000000004	0
bin	0.00052000000000000006	1063
bin	0.00053000000000000009	0
bin	0.00054000000000000001	1011
bin	0.00055000000000000003	0
bin	0.00056000000000000006	0
bin	0.00057000000000000009	0
bin	0.00058	0
bin	0.00059000000000000003	0
bin	0.00060000000000000006	0
bin	0.00061000000000000008	0
bin	0.00062	0
bin	0.00063000000000000003	0
bin	0.00064000000000000005	0
bin	0.00065000000000000008	0
bin	0.0006600000000000001	0
statistic RegressionTestingTutorialWireless.host1.wlan[0].mac.dcf frameSequenceDuration:histogram
field count 16750
field mean 9.8161726000024229e-05
field stddev 0
field min 9.8161725999999997e-05
field max 9.8161725999999997e-05
field sum 1.6442089105004059
field sqrsum 0.00016139838455931041
bin	-inf	0
bin	0	16750
bin	0.01	0
bin	0.02	0
bin	0.029999999999999999	0
bin	0.040000000000000001	0
bin	0.050000000000000003	0
bin	0.059999999999999998	0
bin	0.070000000000000007	0
bin	0.080000000000000002	0
bin	0.089999999999999997	0
bin	0.10000000000000001	0
bin	0.11	0
bin	0.12	0
bin	0.13	0
bin	0.14000000000000001	0
bin	0.14999999999999999	0
bin	0.16	0
bin	0.17000000000000001	0
bin	0.17999999999999999	0
bin	0.19	0
bin	0.20000000000000001	0
bin	0.20999999999999999	0
bin	0.22	0
bin	0.23000000000000001	0
bin	0.23999999999999999	0
bin	0.25	0
bin	0.26000000000000001	0
bin	0.27000000000000002	0
bin	0.28000000000000003	0
bin	0.28999999999999998	0
bin	0.29999999999999999	0
bin	0.31	0
bin	0.32000000000000001	0
bin	0.33000000000000002	0
bin	0.34000000000000002	0
bin	0.35000000000000003	0
bin	0.35999999999999999	0
bin	0.37	0
bin	0.38	0
bin	0.39000000000000001	0
bin	0.40000000000000002	0
bin	0.41000000000000003	0
bin	0.41999999999999998	0
bin	0.42999999999999999	0
bin	0.44	0
bin	0.45000000000000001	0
bin	0.46000000000000002	0
bin	0.47000000000000003	0
bin	0.47999999999999998	0
bin	0.48999999999999999	0
bin	0.5	0
bin	0.51000000000000001	0
statistic RegressionTestingTutorialWireless.host1.wlan[0].mac.dcf frameSequenceNumPackets:histogram
field count 16750
field mean 2
field stddev 0
field min 2
field max 2
field sum 33500
field sqrsum 67000
bin	-inf	0
bin	1	0
bin	2	16750
bin	3	0
statistic RegressionTestingTutorialWireless.host1.wlan[0].radio radioChannel:histogram
field count 1
field mean 0
field stddev nan
field min 0
field max 0
field sum 0
field sqrsum 0
bin	-inf	0
bin	-0.5	0
bin	-0.47999999999999998	0
bin	-0.46000000000000002	0
bin	-0.44	0
bin	-0.41999999999999998	0
bin	-0.40000000000000002	0
bin	-0.38	0
bin	-0.35999999999999999	0
bin	-0.33999999999999997	0
bin	-0.32000000000000001	0
bin	-0.29999999999999999	0
bin	-0.28000000000000003	0
bin	-0.26000000000000001	0
bin	-0.23999999999999999	0
bin	-0.21999999999999997	0
bin	-0.20000000000000001	0
bin	-0.17999999999999999	0
bin	-0.15999999999999998	0
bin	-0.14000000000000001	0
bin	-0.12	0
bin	-0.099999999999999978	0
bin	-0.080000000000000016	0
bin	-0.059999999999999998	0
bin	-0.03999999999999998	0
bin	-0.020000000000000018	0
bin	0	1
bin	0.020000000000000018	0
bin	0.040000000000000036	0
bin	0.060000000000000053	0
bin	0.07999999999999996	0
bin	0.099999999999999978	0
bin	0.12	0
bin	0.14000000000000001	0
bin	0.16000000000000003	0
bin	0.18000000000000005	0
bin	0.20000000000000007	0
bin	0.21999999999999997	0
bin	0.23999999999999999	0
bin	0.26000000000000001	0
bin	0.28000000000000003	0
bin	0.30000000000000004	0
bin	0.32000000000000006	0
bin	0.33999999999999997	0
bin	0.35999999999999999	0
bin	0.38	0
bin	0.40000000000000002	0
bin	0.42000000000000004	0
bin	0.44000000000000006	0
bin	0.45999999999999996	0
bin	0.47999999999999998	0
bin	0.5	0
statistic RegressionTestingTutorialWireless.host1.wlan[0].radio minSnir:histogram
field count 16750
field mean 332932.47211135662
field stddev 0
field min 332932.4721113288
field max 332932.4721113288
field sum 5576618907.8652229
field sqrsum 1856637519018659.8
bin	-inf	0
bin	332931.96000000002	0
bin	332931.98000000004	0
bin	332932	0
bin	332932.02000000002	0
bin	332932.04000000004	0
bin	332932.06	0
bin	332932.08000000002	0
bin	332932.10000000003	0
bin	332932.12	0
bin	332932.14000000001	0
bin	332932.16000000003	0
bin	332932.17999999999	0
bin	332932.20000000001	0
bin	332932.22000000003	0
bin	332932.24000000005	0
bin	332932.26000000001	0
bin	332932.28000000003	0
bin	332932.30000000005	0
bin	332932.32000000001	0
bin	332932.34000000003	0
bin	332932.36000000004	0
bin	332932.38	0
bin	332932.40000000002	0
bin	332932.42000000004	0
bin	332932.44	0
bin	332932.46000000002	16750
bin	332932.48000000004	0
bin	332932.5	0
bin	332932.52000000002	0
bin	332932.54000000004	0
bin	332932.56	0
bin	332932.58000000002	0
bin	332932.60000000003	0
bin	332932.62	0
bin	332932.64000000001	0
bin	332932.66000000003	0
bin	332932.67999999999	0
bin	332932.70000000001	0
bin	332932.72000000003	0
bin	332932.74000000005	0
bin	332932.76000000001	0
bin	332932.78000000003	0
bin	332932.80000000005	0
bin	332932.82000000001	0
bin	332932.84000000003	0
bin	332932.86000000004	0
bin	332932.88	0
bin	332932.90000000002	0
bin	332932.92000000004	0
bin	332932.94	0
bin	332932.96000000002	0
bin	332932.98000000004	0
statistic RegressionTestingTutorialWireless.host1.wlan[0].radio packetErrorRate:histogram
field count 16750
field mean 0
field stddev 0
field min 0
field max 0
field sum 0
field sqrsum 0
bin	-inf	0
bin	-0.5	0
bin	-0.47999999999999998	0
bin	-0.46000000000000002	0
bin	-0.44	0
bin	-0.41999999999999998	0
bin	-0.40000000000000002	0
bin	-0.38	0
bin	-0.35999999999999999	0
bin	-0.33999999999999997	0
bin	-0.32000000000000001	0
bin	-0.29999999999999999	0
bin	-0.28000000000000003	0
bin	-0.26000000000000001	0
bin	-0.23999999999999999	0
bin	-0.21999999999999997	0
bin	-0.20000000000000001	0
bin	-0.17999999999999999	0
bin	-0.15999999999999998	0
bin	-0.14000000000000001	0
bin	-0.12	0
bin	-0.099999999999999978	0
bin	-0.080000000000000016	0
bin	-0.059999999999999998	0
bin	-0.03999999999999998	0
bin	-0.020000000000000018	0
bin	0	16750
bin	0.020000000000000018	0
bin	0.040000000000000036	0
bin	0.060000000000000053	0
bin	0.07999999999999996	0
bin	0.099999999999999978	0
bin	0.12	0
bin	0.14000000000000001	0
bin	0.16000000000000003	0
bin	0.18000000000000005	0
bin	0.20000000000000007	0
bin	0.21999999999999997	0
bin	0.23999999999999999	0
bin	0.26000000000000001	0
bin	0.28000000000000003	0
bin	0.30000000000000004	0
bin	0.32000000000000006	0
bin	0.33999999999999997	0
bin	0.35999999999999999	0
bin	0.38	0
bin	0.40000000000000002	0
bin	0.42000000000000004	0
bin	0.44000000000000006	0
bin	0.45999999999999996	0
bin	0.47999999999999998	0
bin	0.5	0
statistic RegressionTestingTutorialWireless.host1.wlan[0].radio bitErrorRate:histogram
field count 0
field mean -nan
field stddev nan
field min nan
field max nan
field sum 0
field sqrsum 0
bin	-inf	0
bin	0	0
bin	1	0
statistic RegressionTestingTutorialWireless.host1.wlan[0].radio symbolErrorRate:histogram
field count 0
field mean -nan
field stddev nan
field min nan
field max nan
field sum 0
field sqrsum 0
bin	-inf	0
bin	0	0
bin	1	0
statistic RegressionTestingTutorialWireless.host2.wlan[0].mac.dcf.channelAccess.pendingQueue queueingTime:histogram
field count 0
field mean -nan
field stddev nan
field min nan
field max nan
field sum 0
field sqrsum 0
bin	-inf	0
bin	0	0
bin	1	0
statistic RegressionTestingTutorialWireless.host2.wlan[0].mac.dcf.channelAccess.pendingQueue outgoingPacketLengths:histogram
field count 0
field mean -nan
field stddev nan
field min nan
field max nan
field sum 0
field sqrsum 0
bin	-inf	0
bin	0	0
bin	1	0
statistic RegressionTestingTutorialWireless.host2.wlan[0].mac.dcf.channelAccess.pendingQueue flowQueueingTime:histogram
field count 0
field mean -nan
field stddev nan
field min nan
field max nan
field sum 0
field sqrsum 0
bin	-inf	0
bin	0	0
bin	1	0
statistic RegressionTestingTutorialWireless.host2.wlan[0].mac.dcf.channelAccess.pendingQueue incomingPacketLengths:histogram
field count 0
field mean -nan
field stddev nan
field min nan
field max nan
field sum 0
field sqrsum 0
bin	-inf	0
bin	0	0
bin	1	0
statistic RegressionTestingTutorialWireless.host2.wlan[0].mac.dcf.channelAccess.inProgressFrames queueingTime:histogram
field count 0
field mean -nan
field stddev nan
field min nan
field max nan
field sum 0
field sqrsum 0
bin	-inf	0
bin	0	0
bin	1	0
statistic RegressionTestingTutorialWireless.host2.wlan[0].mac.dcf frameSequenceDuration:histogram
field count 0
field mean -nan
field stddev nan
field min nan
field max nan
field sum 0
field sqrsum 0
bin	-inf	0
bin	0	0
bin	1	0
statistic RegressionTestingTutorialWireless.host2.wlan[0].mac.dcf frameSequenceNumPackets:histogram
field count 0
field mean -nan
field stddev nan
field min nan
field max nan
field sum 0
field sqrsum 0
bin	-inf	0
bin	0	0
bin	1	0
statistic RegressionTestingTutorialWireless.host2.wlan[0].radio radioChannel:histogram
field count 1
field mean 0
field stddev nan
field min 0
field max 0
field sum 0
field sqrsum 0
bin	-inf	0
bin	-0.5	0
bin	-0.47999999999999998	0
bin	-0.46000000000000002	0
bin	-0.44	0
bin	-0.41999999999999998	0
bin	-0.40000000000000002	0
bin	-0.38	0
bin	-0.35999999999999999	0
bin	-0.33999999999999997	0
bin	-0.32000000000000001	0
bin	-0.29999999999999999	0
bin	-0.28000000000000003	0
bin	-0.26000000000000001	0
bin	-0.23999999999999999	0
bin	-0.21999999999999997	0
bin	-0.20000000000000001	0
bin	-0.17999999999999999	0
bin	-0.15999999999999998	0
bin	-0.14000000000000001	0
bin	-0.12	0
bin	-0.099999999999999978	0
bin	-0.080000000000000016	0
bin	-0.059999999999999998	0
bin	-0.03999999999999998	0
bin	-0.020000000000000018	0
bin	0	1
bin	0.020000000000000018	0
bin	0.040000000000000036	0
bin	0.060000000000000053	0
bin	0.07999999999999996	0
bin	0.099999999999999978	0
bin	0.12	0
bin	0.14000000000000001	0
bin	0.16000000000000003	0
bin	0.18000000000000005	0
bin	0.20000000000000007	0
bin	0.21999999999999997	0
bin	0.23999999999999999	0
bin	0.26000000000000001	0
bin	0.28000000000000003	0
bin	0.30000000000000004	0
bin	0.32000000000000006	0
bin	0.33999999999999997	0
bin	0.35999999999999999	0
bin	0.38	0
bin	0.40000000000000002	0
bin	0.42000000000000004	0
bin	0.44000000000000006	0
bin	0.45999999999999996	0
bin	0.47999999999999998	0
bin	0.5	0
statistic RegressionTestingTutorialWireless.host2.wlan[0].radio minSnir:histogram
field count 16750
field mean 332932.47211135662
field stddev 0
field min 332932.4721113288
field max 332932.4721113288
field sum 5576618907.8652229
field sqrsum 1856637519018659.8
bin	-inf	0
bin	332931.96000000002	0
bin	332931.98000000004	0
bin	332932	0
bin	332932.02000000002	0
bin	332932.04000000004	0
bin	332932.06	0
bin	332932.08000000002	0
bin	332932.10000000003	0
bin	332932.12	0
bin	332932.14000000001	0
bin	332932.16000000003	0
bin	332932.17999999999	0
bin	332932.20000000001	0
bin	332932.22000000003	0
bin	332932.24000000005	0
bin	332932.26000000001	0
bin	332932.28000000003	0
bin	332932.30000000005	0
bin	332932.32000000001	0
bin	332932.34000000003	0
bin	332932.36000000004	0
bin	332932.38	0
bin	332932.40000000002	0
bin	332932.42000000004	0
bin	332932.44	0
bin	332932.46000000002	16750
bin	332932.48000000004	0
bin	332932.5	0
bin	332932.52000000002	0
bin	332932.54000000004	0
bin	332932.56	0
bin	332932.58000000002	0
bin	332932.60000000003	0
bin	332932.62	0
bin	332932.64000000001	0
bin	332932.66000000003	0
bin	332932.67999999999	0
bin	332932.70000000001	0
bin	332932.72000000003	0
bin	332932.74000000005	0
bin	332932.76000000001	0
bin	332932.78000000003	0
bin	332932.80000000005	0
bin	332932.82000000001	0
bin	332932.84000000003	0
bin	332932.86000000004	0
bin	332932.88	0
bin	332932.90000000002	0
bin	332932.92000000004	0
bin	332932.94	0
bin	332932.96000000002	0
bin	332932.98000000004	0
statistic RegressionTestingTutorialWireless.host2.wlan[0].radio packetErrorRate:histogram
field count 16750
field mean 0
field stddev 0
field min 0
field max 0
field sum 0
field sqrsum 0
bin	-inf	0
bin	-0.5	0
bin	-0.47999999999999998	0
bin	-0.46000000000000002	0
bin	-0.44	0
bin	-0.41999999999999998	0
bin	-0.40000000000000002	0
bin	-0.38	0
bin	-0.35999999999999999	0
bin	-0.33999999999999997	0
bin	-0.32000000000000001	0
bin	-0.29999999999999999	0
bin	-0.28000000000000003	0
bin	-0.26000000000000001	0
bin	-0.23999999999999999	0
bin	-0.21999999999999997	0
bin	-0.20000000000000001	0
bin	-0.17999999999999999	0
bin	-0.15999999999999998	0
bin	-0.14000000000000001	0
bin	-0.12	0
bin	-0.099999999999999978	0
bin	-0.080000000000000016	0
bin	-0.059999999999999998	0
bin	-0.03999999999999998	0
bin	-0.020000000000000018	0
bin	0	16750
bin	0.020000000000000018	0
bin	0.040000000000000036	0
bin	0.060000000000000053	0
bin	0.07999999999999996	0
bin	0.099999999999999978	0
bin	0.12	0
bin	0.14000000000000001	0
bin	0.16000000000000003	0
bin	0.18000000000000005	0
bin	0.20000000000000007	0
bin	0.21999999999999997	0
bin	0.23999999999999999	0
bin	0.26000000000000001	0
bin	0.28000000000000003	0
bin	0.30000000000000004	0
bin	0.32000000000000006	0
bin	0.33999999999999997	0
bin	0.35999999999999999	0
bin	0.38	0
bin	0.40000000000000002	0
bin	0.42000000000000004	0
bin	0.44000000000000006	0
bin	0.45999999999999996	0
bin	0.47999999999999998	0
bin	0.5	0
statistic RegressionTestingTutorialWireless.host2.wlan[0].radio bitErrorRate:histogram
field count 0
field mean -nan
field stddev nan
field min nan
field max nan
field sum 0
field sqrsum 0
bin	-inf	0
bin	0	0
bin	1	0
statistic RegressionTestingTutorialWireless.host2.wlan[0].radio symbolErrorRate:histogram
field count 0
field mean -nan
field stddev nan
field min nan
field max nan
field sum 0
field sqrsum 0
bin	-inf	0
bin	0	0
bin	1	0
statistic RegressionTestingTutorialWireless.host2.app[0] endToEndDelay:histogram
field count 16750
field mean 0.02998271094840298
field stddev 0.0019734264493749326
field min 9.2120442000000001e-05
field max 0.033102136085999996
field sum 502.21040838574993
field sqrsum 15.122857015678205
bin	-inf	0
bin	0	3
bin	0.00050000000000000001	2
bin	0.001	3
bin	0.0015	2
bin	0.002	3
bin	0.0025000000000000001	2
bin	0.0030000000000000001	2
bin	0.0035000000000000001	2
bin	0.0040000000000000001	4
bin	0.0045000000000000005	2
bin	0.0050000000000000001	3
bin	0.0054999999999999997	2
bin	0.0060000000000000001	3
bin	0.0065000000000000006	5
bin	0.0070000000000000001	5
bin	0.0074999999999999997	2
bin	0.0080000000000000002	3
bin	0.0085000000000000006	2
bin	0.0090000000000000011	5
bin	0.0094999999999999998	2
bin	0.01	2
bin	0.010500000000000001	2
bin	0.010999999999999999	3
bin	0.0115	1
bin	0.012	5
bin	0.012500000000000001	3
bin	0.013000000000000001	1
bin	0.0135	2
bin	0.014	4
bin	0.014500000000000001	3
bin	0.014999999999999999	1
bin	0.0155	4
bin	0.016	2
bin	0.016500000000000001	3
bin	0.017000000000000001	4
bin	0.017500000000000002	3
bin	0.018000000000000002	4
bin	0.018499999999999999	3
bin	0.019	2
bin	0.0195	3
bin	0.02	3
bin	0.020500000000000001	2
bin	0.021000000000000001	4
bin	0.021500000000000002	2
bin	0.021999999999999999	3
bin	0.022499999999999999	3
bin	0.023	4
bin	0.0235	2
bin	0.024	2
bin	0.024500000000000001	6
bin	0.025000000000000001	4
bin	0.025500000000000002	2
bin	0.026000000000000002	3
bin	0.026499999999999999	3
bin	0.027	29
bin	0.0275	223
bin	0.028000000000000001	562
bin	0.028500000000000001	1221
bin	0.029000000000000001	1948
bin	0.029500000000000002	3514
bin	0.029999999999999999	3456
bin	0.030499999999999999	2577
bin	0.031	1606
bin	0.0315	1077
bin	0.032000000000000001	298
bin	0.032500000000000001	81
bin	0.033000000000000002	3
bin	0.033500000000000002	0
bin	0.034000000000000002	0
bin	0.034500000000000003	0
bin	0.035000000000000003	0
bin	0.035500000000000004	0
bin	0.036000000000000004	0
bin	0.036499999999999998	0
scalar RegressionTestingTutorialWireless.host1.lo[0].lo rcvdPkFromHl:vector(packetBytes):count 0
scalar RegressionTestingTutorialWireless.host1.lo[0].lo rcvdPkFromHl:vector(packetBytes):sum 0
scalar RegressionTestingTutorialWireless.host1.lo[0].lo rcvdPkFromHl:vector(packetBytes):sumweights 0
scalar RegressionTestingTutorialWireless.host1.lo[0].lo rcvdPkFromHl:vector(packetBytes):mean -nan
scalar RegressionTestingTutorialWireless.host1.lo[0].lo rcvdPkFromHl:vector(packetBytes):stddev nan
scalar RegressionTestingTutorialWireless.host1.lo[0].lo rcvdPkFromHl:vector(packetBytes):min inf
scalar RegressionTestingTutorialWireless.host1.lo[0].lo rcvdPkFromHl:vector(packetBytes):max -inf
scalar RegressionTestingTutorialWireless.host1.lo[0].lo rcvdPkFromHl:vector(packetBytes):starttime nan
scalar RegressionTestingTutorialWireless.host1.lo[0].lo rcvdPkFromHl:vector(packetBytes):endtime nan
scalar RegressionTestingTutorialWireless.host1.lo[0].lo passedUpPk:vector(packetBytes):count 0
scalar RegressionTestingTutorialWireless.host1.lo[0].lo passedUpPk:vector(packetBytes):sum 0
scalar RegressionTestingTutorialWireless.host1.lo[0].lo passedUpPk:vector(packetBytes):sumweights 0
[...]
scalar RegressionTestingTutorialWireless.host2.wlan[0].radio radioMode:vector:sumweights 33503
scalar RegressionTestingTutorialWireless.host2.wlan[0].radio radioMode:vector:mean 2.4998358355968122
scalar RegressionTestingTutorialWireless.host2.wlan[0].radio radioMode:vector:stddev 0.50036548927878266
scalar RegressionTestingTutorialWireless.host2.wlan[0].radio radioMode:vector:min 0
scalar RegressionTestingTutorialWireless.host2.wlan[0].radio radioMode:vector:max 3
scalar RegressionTestingTutorialWireless.host2.wlan[0].radio radioMode:vector:starttime 0
scalar RegressionTestingTutorialWireless.host2.wlan[0].radio radioMode:vector:endtime 4.999728829637001
scalar RegressionTestingTutorialWireless.host2.wlan[0].radio receptionState:vector:count 67001
scalar RegressionTestingTutorialWireless.host2.wlan[0].radio receptionState:vector:sum 83751
scalar RegressionTestingTutorialWireless.host2.wlan[0].radio receptionState:vector:sumweights 67001
scalar RegressionTestingTutorialWireless.host2.wlan[0].radio receptionState:vector:mean 1.2499962687124073
scalar RegressionTestingTutorialWireless.host2.wlan[0].radio receptionState:vector:stddev 1.0897251638931249
scalar RegressionTestingTutorialWireless.host2.wlan[0].radio receptionState:vector:min 0
scalar RegressionTestingTutorialWireless.host2.wlan[0].radio receptionState:vector:max 3
scalar RegressionTestingTutorialWireless.host2.wlan[0].radio receptionState:vector:starttime 0
scalar RegressionTestingTutorialWireless.host2.wlan[0].radio receptionState:vector:endtime 4.999728829637001
scalar RegressionTestingTutorialWireless.host2.wlan[0].radio transmissionState:vector:count 67000
scalar RegressionTestingTutorialWireless.host2.wlan[0].radio transmissionState:vector:sum 67000
scalar RegressionTestingTutorialWireless.host2.wlan[0].radio transmissionState:vector:sumweights 67000
scalar RegressionTestingTutorialWireless.host2.wlan[0].radio transmissionState:vector:mean 1
scalar RegressionTestingTutorialWireless.host2.wlan[0].radio transmissionState:vector:stddev 0.70711205816189571
scalar RegressionTestingTutorialWireless.host2.wlan[0].radio transmissionState:vector:min 0
scalar RegressionTestingTutorialWireless.host2.wlan[0].radio transmissionState:vector:max 2
scalar RegressionTestingTutorialWireless.host2.wlan[0].radio transmissionState:vector:starttime 0.00028808086300000004
scalar RegressionTestingTutorialWireless.host2.wlan[0].radio transmissionState:vector:endtime 4.999728829637001
scalar RegressionTestingTutorialWireless.host2.wlan[0].radio radioChannel:vector:count 1
scalar RegressionTestingTutorialWireless.host2.wlan[0].radio radioChannel:vector:sum 0
scalar RegressionTestingTutorialWireless.host2.wlan[0].radio radioChannel:vector:sumweights 1
scalar RegressionTestingTutorialWireless.host2.wlan[0].radio radioChannel:vector:mean 0
scalar RegressionTestingTutorialWireless.host2.wlan[0].radio radioChannel:vector:stddev nan
scalar RegressionTestingTutorialWireless.host2.wlan[0].radio radioChannel:vector:min 0
scalar RegressionTestingTutorialWireless.host2.wlan[0].radio radioChannel:vector:max 0
scalar RegressionTestingTutorialWireless.host2.wlan[0].radio radioChannel:vector:starttime 0
scalar RegressionTestingTutorialWireless.host2.wlan[0].radio radioChannel:vector:endtime 0
scalar RegressionTestingTutorialWireless.host2.wlan[0] packetDropInterfaceDown:vector(packetBytes):count 0
scalar RegressionTestingTutorialWireless.host2.wlan[0] packetDropInterfaceDown:vector(packetBytes):sum 0
scalar RegressionTestingTutorialWireless.host2.wlan[0] packetDropInterfaceDown:vector(packetBytes):sumweights 0
scalar RegressionTestingTutorialWireless.host2.wlan[0] packetDropInterfaceDown:vector(packetBytes):mean -nan
scalar RegressionTestingTutorialWireless.host2.wlan[0] packetDropInterfaceDown:vector(packetBytes):stddev nan
scalar RegressionTestingTutorialWireless.host2.wlan[0] packetDropInterfaceDown:vector(packetBytes):min inf
scalar RegressionTestingTutorialWireless.host2.wlan[0] packetDropInterfaceDown:vector(packetBytes):max -inf
scalar RegressionTestingTutorialWireless.host2.wlan[0] packetDropInterfaceDown:vector(packetBytes):starttime nan
scalar RegressionTestingTutorialWireless.host2.wlan[0] packetDropInterfaceDown:vector(packetBytes):endtime nan
scalar RegressionTestingTutorialWireless.host2.wlan[0] packetDropNoCarrier:vector(packetBytes):count 0
scalar RegressionTestingTutorialWireless.host2.wlan[0] packetDropNoCarrier:vector(packetBytes):sum 0
scalar RegressionTestingTutorialWireless.host2.wlan[0] packetDropNoCarrier:vector(packetBytes):sumweights 0
scalar RegressionTestingTutorialWireless.host2.wlan[0] packetDropNoCarrier:vector(packetBytes):mean -nan
scalar RegressionTestingTutorialWireless.host2.wlan[0] packetDropNoCarrier:vector(packetBytes):stddev nan
scalar RegressionTestingTutorialWireless.host2.wlan[0] packetDropNoCarrier:vector(packetBytes):min inf
scalar RegressionTestingTutorialWireless.host2.wlan[0] packetDropNoCarrier:vector(packetBytes):max -inf
scalar RegressionTestingTutorialWireless.host2.wlan[0] packetDropNoCarrier:vector(packetBytes):starttime nan
scalar RegressionTestingTutorialWireless.host2.wlan[0] packetDropNoCarrier:vector(packetBytes):endtime nan
scalar RegressionTestingTutorialWireless.host2.ipv4.ip packetDropAddressResolutionFailed:vector(packetBytes):count 0
scalar RegressionTestingTutorialWireless.host2.ipv4.ip packetDropAddressResolutionFailed:vector(packetBytes):sum 0
scalar RegressionTestingTutorialWireless.host2.ipv4.ip packetDropAddressResolutionFailed:vector(packetBytes):sumweights 0
scalar RegressionTestingTutorialWireless.host2.ipv4.ip packetDropAddressResolutionFailed:vector(packetBytes):mean -nan
scalar RegressionTestingTutorialWireless.host2.ipv4.ip packetDropAddressResolutionFailed:vector(packetBytes):stddev nan
scalar RegressionTestingTutorialWireless.host2.ipv4.ip packetDropAddressResolutionFailed:vector(packetBytes):min inf
scalar RegressionTestingTutorialWireless.host2.ipv4.ip packetDropAddressResolutionFailed:vector(packetBytes):max -inf
scalar RegressionTestingTutorialWireless.host2.ipv4.ip packetDropAddressResolutionFailed:vector(packetBytes):starttime nan
scalar RegressionTestingTutorialWireless.host2.ipv4.ip packetDropAddressResolutionFailed:vector(packetBytes):endtime nan
scalar RegressionTestingTutorialWireless.host2.ipv4.ip packetDropHopLimitReached:vector(packetBytes):count 0
scalar RegressionTestingTutorialWireless.host2.ipv4.ip packetDropHopLimitReached:vector(packetBytes):sum 0
scalar RegressionTestingTutorialWireless.host2.ipv4.ip packetDropHopLimitReached:vector(packetBytes):sumweights 0
scalar RegressionTestingTutorialWireless.host2.ipv4.ip packetDropHopLimitReached:vector(packetBytes):mean -nan
scalar RegressionTestingTutorialWireless.host2.ipv4.ip packetDropHopLimitReached:vector(packetBytes):stddev nan
scalar RegressionTestingTutorialWireless.host2.ipv4.ip packetDropHopLimitReached:vector(packetBytes):min inf
scalar RegressionTestingTutorialWireless.host2.ipv4.ip packetDropHopLimitReached:vector(packetBytes):max -inf
scalar RegressionTestingTutorialWireless.host2.ipv4.ip packetDropHopLimitReached:vector(packetBytes):starttime nan
scalar RegressionTestingTutorialWireless.host2.ipv4.ip packetDropHopLimitReached:vector(packetBytes):endtime nan
scalar RegressionTestingTutorialWireless.host2.ipv4.ip packetDropForwardingDisabled:vector(packetBytes):count 0
scalar RegressionTestingTutorialWireless.host2.ipv4.ip packetDropForwardingDisabled:vector(packetBytes):sum 0
scalar RegressionTestingTutorialWireless.host2.ipv4.ip packetDropForwardingDisabled:vector(packetBytes):sumweights 0
scalar RegressionTestingTutorialWireless.host2.ipv4.ip packetDropForwardingDisabled:vector(packetBytes):mean -nan
scalar RegressionTestingTutorialWireless.host2.ipv4.ip packetDropForwardingDisabled:vector(packetBytes):stddev nan
scalar RegressionTestingTutorialWireless.host2.ipv4.ip packetDropForwardingDisabled:vector(packetBytes):min inf
scalar RegressionTestingTutorialWireless.host2.ipv4.ip packetDropForwardingDisabled:vector(packetBytes):max -inf
scalar RegressionTestingTutorialWireless.host2.ipv4.ip packetDropForwardingDisabled:vector(packetBytes):starttime nan
scalar RegressionTestingTutorialWireless.host2.ipv4.ip packetDropForwardingDisabled:vector(packetBytes):endtime nan
scalar RegressionTestingTutorialWireless.host2.ipv4.ip packetDropLifetimeExpired:vector(packetBytes):count 0
scalar RegressionTestingTutorialWireless.host2.ipv4.ip packetDropLifetimeExpired:vector(packetBytes):sum 0
scalar RegressionTestingTutorialWireless.host2.ipv4.ip packetDropLifetimeExpired:vector(packetBytes):sumweights 0
scalar RegressionTestingTutorialWireless.host2.ipv4.ip packetDropLifetimeExpired:vector(packetBytes):mean -nan
scalar RegressionTestingTutorialWireless.host2.ipv4.ip packetDropLifetimeExpired:vector(packetBytes):stddev nan
scalar RegressionTestingTutorialWireless.host2.ipv4.ip packetDropLifetimeExpired:vector(packetBytes):min inf
scalar RegressionTestingTutorialWireless.host2.ipv4.ip packetDropLifetimeExpired:vector(packetBytes):max -inf
scalar RegressionTestingTutorialWireless.host2.ipv4.ip packetDropLifetimeExpired:vector(packetBytes):starttime nan
scalar RegressionTestingTutorialWireless.host2.ipv4.ip packetDropLifetimeExpired:vector(packetBytes):endtime nan
scalar RegressionTestingTutorialWireless.host2.ipv4.ip packetDropNoInterfaceFound:vector(packetBytes):count 0
scalar RegressionTestingTutorialWireless.host2.ipv4.ip packetDropNoInterfaceFound:vector(packetBytes):sum 0
scalar RegressionTestingTutorialWireless.host2.ipv4.ip packetDropNoInterfaceFound:vector(packetBytes):sumweights 0
scalar RegressionTestingTutorialWireless.host2.ipv4.ip packetDropNoInterfaceFound:vector(packetBytes):mean -nan
scalar RegressionTestingTutorialWireless.host2.ipv4.ip packetDropNoInterfaceFound:vector(packetBytes):stddev nan
scalar RegressionTestingTutorialWireless.host2.ipv4.ip packetDropNoInterfaceFound:vector(packetBytes):min inf
scalar RegressionTestingTutorialWireless.host2.ipv4.ip packetDropNoInterfaceFound:vector(packetBytes):max -inf
scalar RegressionTestingTutorialWireless.host2.ipv4.ip packetDropNoInterfaceFound:vector(packetBytes):starttime nan
scalar RegressionTestingTutorialWireless.host2.ipv4.ip packetDropNoInterfaceFound:vector(packetBytes):endtime nan
scalar RegressionTestingTutorialWireless.host2.ipv4.ip packetDropNoRouteFound:vector(packetBytes):count 0
scalar RegressionTestingTutorialWireless.host2.ipv4.ip packetDropNoRouteFound:vector(packetBytes):sum 0
scalar RegressionTestingTutorialWireless.host2.ipv4.ip packetDropNoRouteFound:vector(packetBytes):sumweights 0
scalar RegressionTestingTutorialWireless.host2.ipv4.ip packetDropNoRouteFound:vector(packetBytes):mean -nan
scalar RegressionTestingTutorialWireless.host2.ipv4.ip packetDropNoRouteFound:vector(packetBytes):stddev nan
scalar RegressionTestingTutorialWireless.host2.ipv4.ip packetDropNoRouteFound:vector(packetBytes):min inf
scalar RegressionTestingTutorialWireless.host2.ipv4.ip packetDropNoRouteFound:vector(packetBytes):max -inf
scalar RegressionTestingTutorialWireless.host2.ipv4.ip packetDropNoRouteFound:vector(packetBytes):starttime nan
scalar RegressionTestingTutorialWireless.host2.ipv4.ip packetDropNoRouteFound:vector(packetBytes):endtime nan
scalar RegressionTestingTutorialWireless.host2.ipv4.ip packetDropUndefined:vector(packetBytes):count 0
scalar RegressionTestingTutorialWireless.host2.ipv4.ip packetDropUndefined:vector(packetBytes):sum 0
scalar RegressionTestingTutorialWireless.host2.ipv4.ip packetDropUndefined:vector(packetBytes):sumweights 0
scalar RegressionTestingTutorialWireless.host2.ipv4.ip packetDropUndefined:vector(packetBytes):mean -nan
scalar RegressionTestingTutorialWireless.host2.ipv4.ip packetDropUndefined:vector(packetBytes):stddev nan
scalar RegressionTestingTutorialWireless.host2.ipv4.ip packetDropUndefined:vector(packetBytes):min inf
scalar RegressionTestingTutorialWireless.host2.ipv4.ip packetDropUndefined:vector(packetBytes):max -inf
scalar RegressionTestingTutorialWireless.host2.ipv4.ip packetDropUndefined:vector(packetBytes):starttime nan
scalar RegressionTestingTutorialWireless.host2.ipv4.ip packetDropUndefined:vector(packetBytes):endtime nan
scalar RegressionTestingTutorialWireless.host2.udp packetSent:vector(packetBytes):count 0
scalar RegressionTestingTutorialWireless.host2.udp packetSent:vector(packetBytes):sum 0
scalar RegressionTestingTutorialWireless.host2.udp packetSent:vector(packetBytes):sumweights 0
scalar RegressionTestingTutorialWireless.host2.udp packetSent:vector(packetBytes):mean -nan
scalar RegressionTestingTutorialWireless.host2.udp packetSent:vector(packetBytes):stddev nan
scalar RegressionTestingTutorialWireless.host2.udp packetSent:vector(packetBytes):min inf
scalar RegressionTestingTutorialWireless.host2.udp packetSent:vector(packetBytes):max -inf
scalar RegressionTestingTutorialWireless.host2.udp packetSent:vector(packetBytes):starttime nan
scalar RegressionTestingTutorialWireless.host2.udp packetSent:vector(packetBytes):endtime nan
scalar RegressionTestingTutorialWireless.host2.udp packetReceived:vector(packetBytes):count 16750
scalar RegressionTestingTutorialWireless.host2.udp packetReceived:vector(packetBytes):sum 301500
scalar RegressionTestingTutorialWireless.host2.udp packetReceived:vector(packetBytes):sumweights 16750
scalar RegressionTestingTutorialWireless.host2.udp packetReceived:vector(packetBytes):mean 18
scalar RegressionTestingTutorialWireless.host2.udp packetReceived:vector(packetBytes):stddev 0
scalar RegressionTestingTutorialWireless.host2.udp packetReceived:vector(packetBytes):min 18
scalar RegressionTestingTutorialWireless.host2.udp packetReceived:vector(packetBytes):max 18
scalar RegressionTestingTutorialWireless.host2.udp packetReceived:vector(packetBytes):starttime 0.00027808086300000007
scalar RegressionTestingTutorialWireless.host2.udp packetReceived:vector(packetBytes):endtime 4.9996788296370012
scalar RegressionTestingTutorialWireless.host2.udp passedUpPk:vector(count):count 16751
scalar RegressionTestingTutorialWireless.host2.udp passedUpPk:vector(count):sum 140289625
scalar RegressionTestingTutorialWireless.host2.udp passedUpPk:vector(count):sumweights 16751
scalar RegressionTestingTutorialWireless.host2.udp passedUpPk:vector(count):mean 8375
scalar RegressionTestingTutorialWireless.host2.udp passedUpPk:vector(count):stddev 4835.7415150109091
scalar RegressionTestingTutorialWireless.host2.udp passedUpPk:vector(count):min 0
scalar RegressionTestingTutorialWireless.host2.udp passedUpPk:vector(count):max 16750
scalar RegressionTestingTutorialWireless.host2.udp passedUpPk:vector(count):starttime 0
scalar RegressionTestingTutorialWireless.host2.udp passedUpPk:vector(count):endtime 4.9996788296370012
scalar RegressionTestingTutorialWireless.host2.udp droppedPkWrongPort:vector(count):count 1
scalar RegressionTestingTutorialWireless.host2.udp droppedPkWrongPort:vector(count):sum 0
scalar RegressionTestingTutorialWireless.host2.udp droppedPkWrongPort:vector(count):sumweights 1
scalar RegressionTestingTutorialWireless.host2.udp droppedPkWrongPort:vector(count):mean 0
scalar RegressionTestingTutorialWireless.host2.udp droppedPkWrongPort:vector(count):stddev nan
scalar RegressionTestingTutorialWireless.host2.udp droppedPkWrongPort:vector(count):min 0
scalar RegressionTestingTutorialWireless.host2.udp droppedPkWrongPort:vector(count):max 0
scalar RegressionTestingTutorialWireless.host2.udp droppedPkWrongPort:vector(count):starttime 0
scalar RegressionTestingTutorialWireless.host2.udp droppedPkWrongPort:vector(count):endtime 0
scalar RegressionTestingTutorialWireless.host2.udp droppedPkBadChecksum:vector(count):count 1
scalar RegressionTestingTutorialWireless.host2.udp droppedPkBadChecksum:vector(count):sum 0
scalar RegressionTestingTutorialWireless.host2.udp droppedPkBadChecksum:vector(count):sumweights 1
scalar RegressionTestingTutorialWireless.host2.udp droppedPkBadChecksum:vector(count):mean 0
scalar RegressionTestingTutorialWireless.host2.udp droppedPkBadChecksum:vector(count):stddev nan
scalar RegressionTestingTutorialWireless.host2.udp droppedPkBadChecksum:vector(count):min 0
scalar RegressionTestingTutorialWireless.host2.udp droppedPkBadChecksum:vector(count):max 0
scalar RegressionTestingTutorialWireless.host2.udp droppedPkBadChecksum:vector(count):starttime 0
scalar RegressionTestingTutorialWireless.host2.udp droppedPkBadChecksum:vector(count):endtime 0
scalar RegressionTestingTutorialWireless.host2.app[0] packetReceived:vector(packetBytes):count 16750
scalar RegressionTestingTutorialWireless.host2.app[0] packetReceived:vector(packetBytes):sum 167500
scalar RegressionTestingTutorialWireless.host2.app[0] packetReceived:vector(packetBytes):sumweights 16750
scalar RegressionTestingTutorialWireless.host2.app[0] packetReceived:vector(packetBytes):mean 10
scalar RegressionTestingTutorialWireless.host2.app[0] packetReceived:vector(packetBytes):stddev 0
scalar RegressionTestingTutorialWireless.host2.app[0] packetReceived:vector(packetBytes):min 10
scalar RegressionTestingTutorialWireless.host2.app[0] packetReceived:vector(packetBytes):max 10
scalar RegressionTestingTutorialWireless.host2.app[0] packetReceived:vector(packetBytes):starttime 0.00027808086300000007
scalar RegressionTestingTutorialWireless.host2.app[0] packetReceived:vector(packetBytes):endtime 4.9996788296370012
scalar RegressionTestingTutorialWireless.host2.app[0] throughput:vector:count 168
scalar RegressionTestingTutorialWireless.host2.app[0] throughput:vector:sum 45062561.112961471
scalar RegressionTestingTutorialWireless.host2.app[0] throughput:vector:sumweights 168
scalar RegressionTestingTutorialWireless.host2.app[0] throughput:vector:mean 268229.53043429449
scalar RegressionTestingTutorialWireless.host2.app[0] throughput:vector:stddev 8492.2186200422475
scalar RegressionTestingTutorialWireless.host2.app[0] throughput:vector:min 247248.03204937783
scalar RegressionTestingTutorialWireless.host2.app[0] throughput:vector:max 291798.57147529046
scalar RegressionTestingTutorialWireless.host2.app[0] throughput:vector:starttime 0.029826091737000005
scalar RegressionTestingTutorialWireless.host2.app[0] throughput:vector:endtime 5
scalar RegressionTestingTutorialWireless.host2.app[0] endToEndDelay:vector:count 16750
scalar RegressionTestingTutorialWireless.host2.app[0] endToEndDelay:vector:sum 502.21040838574959
scalar RegressionTestingTutorialWireless.host2.app[0] endToEndDelay:vector:sumweights 16750
scalar RegressionTestingTutorialWireless.host2.app[0] endToEndDelay:vector:mean 0.02998271094840296
scalar RegressionTestingTutorialWireless.host2.app[0] endToEndDelay:vector:stddev 0.0019734264493755237
scalar RegressionTestingTutorialWireless.host2.app[0] endToEndDelay:vector:min 9.2120442000000001e-05
scalar RegressionTestingTutorialWireless.host2.app[0] endToEndDelay:vector:max 0.033102136085999996
scalar RegressionTestingTutorialWireless.host2.app[0] endToEndDelay:vector:starttime 0.00027808086300000007
scalar RegressionTestingTutorialWireless.host2.app[0] endToEndDelay:vector:endtime 4.9996788296370012
scalar RegressionTestingTutorialWireless.host2.app[0] rcvdPkSeqNo:vector:count 16750
scalar RegressionTestingTutorialWireless.host2.app[0] rcvdPkSeqNo:vector:sum 345214239
scalar RegressionTestingTutorialWireless.host2.app[0] rcvdPkSeqNo:vector:sumweights 16750
scalar RegressionTestingTutorialWireless.host2.app[0] rcvdPkSeqNo:vector:mean 20609.805313432837
scalar RegressionTestingTutorialWireless.host2.app[0] rcvdPkSeqNo:vector:stddev 12038.66158945307
scalar RegressionTestingTutorialWireless.host2.app[0] rcvdPkSeqNo:vector:min 0
scalar RegressionTestingTutorialWireless.host2.app[0] rcvdPkSeqNo:vector:max 41408
scalar RegressionTestingTutorialWireless.host2.app[0] rcvdPkSeqNo:vector:starttime 0.00027808086300000007
scalar RegressionTestingTutorialWireless.host2.app[0] rcvdPkSeqNo:vector:endtime 4.9996788296370012

