version 3
run LinkDownLinkUp-0-20250108-11:29:25-11973
attr configname LinkDownLinkUp
attr datetime 20250108-11:29:25
attr datetimef 20250108-112925
attr experiment LinkDownLinkUp
attr inifile omnetpp.ini
attr iterationvars ""
attr iterationvarsd ""
attr iterationvarsf ""
attr measurement ""
attr network multiple_areas2
attr processid 11973
attr repetition 0
attr replication #0
attr resultdir results
attr runnumber 0
attr seedset 0
config **.param-recording false
config image-path /home/levy/workspace/inet/images
config output-scalar-file results/omnetpp.ini-LinkDownLinkUp-#0.sca
config output-vector-file results/omnetpp.ini-LinkDownLinkUp-#0.vec
config sim-time-limit 500s
config **.scenarioManager.script "xmldoc(\"scenario2.xml\")"
config sim-time-limit 500s
config network multiple_areas2
config **.Host*.hasIpv6 true
config **.Router1.ospf.ospfv3Splitter.ospfv3RoutingConfig "xmldoc(\"config.xml\", \"Devices/Router[@id='R1']/Routing6/OSPFv3\")"
config **.Router2.ospf.ospfv3Splitter.ospfv3RoutingConfig "xmldoc(\"config.xml\", \"Devices/Router[@id='R2']/Routing6/OSPFv3\")"
config **.Router3.ospf.ospfv3Splitter.ospfv3RoutingConfig "xmldoc(\"config.xml\", \"Devices/Router[@id='R3']/Routing6/OSPFv3\")"
config **.Router4.ospf.ospfv3Splitter.ospfv3RoutingConfig "xmldoc(\"config.xml\", \"Devices/Router[@id='R4']/Routing6/OSPFv3\")"
config **.Router5.ospf.ospfv3Splitter.ospfv3RoutingConfig "xmldoc(\"config.xml\", \"Devices/Router[@id='R5']/Routing6/OSPFv3\")"
config **.Router6.ospf.ospfv3Splitter.ospfv3RoutingConfig "xmldoc(\"config.xml\", \"Devices/Router[@id='R6']/Routing6/OSPFv3\")"
config **.Router7.ospf.ospfv3Splitter.ospfv3RoutingConfig "xmldoc(\"config.xml\", \"Devices/Router[@id='R7']/Routing6/OSPFv3\")"
config **.Router8.ospf.ospfv3Splitter.ospfv3RoutingConfig "xmldoc(\"config.xml\", \"Devices/Router[@id='R8']/Routing6/OSPFv3\")"
config **.Router9.ospf.ospfv3Splitter.ospfv3RoutingConfig "xmldoc(\"config.xml\", \"Devices/Router[@id='R9']/Routing6/OSPFv3\")"
config **.Router10.ospf.ospfv3Splitter.ospfv3RoutingConfig "xmldoc(\"config.xml\", \"Devices/Router[@id='R10']/Routing6/OSPFv3\")"
config **.Router1.ospf.ospfv3Splitter.ospfv3IntConfig "xmldoc(\"config.xml\", \"Devices/Router[@id='R1']/Interfaces\")"
config **.Router2.ospf.ospfv3Splitter.ospfv3IntConfig "xmldoc(\"config.xml\", \"Devices/Router[@id='R2']/Interfaces\")"
config **.Router3.ospf.ospfv3Splitter.ospfv3IntConfig "xmldoc(\"config.xml\", \"Devices/Router[@id='R3']/Interfaces\")"
config **.Router4.ospf.ospfv3Splitter.ospfv3IntConfig "xmldoc(\"config.xml\", \"Devices/Router[@id='R4']/Interfaces\")"
config **.Router5.ospf.ospfv3Splitter.ospfv3IntConfig "xmldoc(\"config.xml\", \"Devices/Router[@id='R5']/Interfaces\")"
config **.Router6.ospf.ospfv3Splitter.ospfv3IntConfig "xmldoc(\"config.xml\", \"Devices/Router[@id='R6']/Interfaces\")"
config **.Router7.ospf.ospfv3Splitter.ospfv3IntConfig "xmldoc(\"config.xml\", \"Devices/Router[@id='R7']/Interfaces\")"
config **.Router8.ospf.ospfv3Splitter.ospfv3IntConfig "xmldoc(\"config.xml\", \"Devices/Router[@id='R8']/Interfaces\")"
config **.Router9.ospf.ospfv3Splitter.ospfv3IntConfig "xmldoc(\"config.xml\", \"Devices/Router[@id='R9']/Interfaces\")"
config **.Router10.ospf.ospfv3Splitter.ospfv3IntConfig "xmldoc(\"config.xml\", \"Devices/Router[@id='R10']/Interfaces\")"

scalar multiple_areas2.Router1.ethernet pauseSent:count 0
scalar multiple_areas2.Router1.ethernet pauseSent:sum 0
scalar multiple_areas2.Router1.ethernet decapPk:count 1859
scalar multiple_areas2.Router1.ethernet decapPk:sum(packetBytes) 162176
scalar multiple_areas2.Router1.ethernet encapPk:count 478
scalar multiple_areas2.Router1.ethernet encapPk:sum(packetBytes) 41800
scalar multiple_areas2.Router1.lo[0].lo rcvdPkFromHl:count 0
scalar multiple_areas2.Router1.lo[0].lo rcvdPkFromHl:sum(packetBytes) 0
scalar multiple_areas2.Router1.lo[0].lo passedUpPk:count 0
scalar multiple_areas2.Router1.lo[0].lo passedUpPk:sum(packetBytes) 0
scalar multiple_areas2.Router1.lo[0] packetDropInterfaceDown:count 0
scalar multiple_areas2.Router1.lo[0] packetDropInterfaceDown:sum(packetBytes) 0
scalar multiple_areas2.Router1.lo[0] packetDropNoCarrier:count 0
scalar multiple_areas2.Router1.lo[0] packetDropNoCarrier:sum(packetBytes) 0
scalar multiple_areas2.Router1.eth[0].queue queueLength:last 0
scalar multiple_areas2.Router1.eth[0].queue queueLength:max 20
scalar multiple_areas2.Router1.eth[0].queue queueLength:timeavg 2.601216e-05
scalar multiple_areas2.Router1.eth[0].queue queueBitLength:last 0
scalar multiple_areas2.Router1.eth[0].queue queueBitLength:max 15040
scalar multiple_areas2.Router1.eth[0].queue queueBitLength:timeavg 0.02016295936
scalar multiple_areas2.Router1.eth[0].queue outgoingPackets:count 381
scalar multiple_areas2.Router1.eth[0].queue outgoingPacketLengths:sum 317168
scalar multiple_areas2.Router1.eth[0].queue incomingPackets:count 381
scalar multiple_areas2.Router1.eth[0].queue incomingPacketLengths:sum 317168
scalar multiple_areas2.Router1.eth[0].queue droppedPacketsQueueOverflow:count 0
scalar multiple_areas2.Router1.eth[0].queue droppedPacketLengthsQueueOverflow:sum 0
scalar multiple_areas2.Router1.eth[0].mac "simulated time" 500
scalar multiple_areas2.Router1.eth[0].mac full-duplex 1
scalar multiple_areas2.Router1.eth[0].mac "frames/sec sent" 0.762
scalar multiple_areas2.Router1.eth[0].mac "frames/sec rcvd" 3.524
scalar multiple_areas2.Router1.eth[0].mac "bits/sec sent" 634.336
scalar multiple_areas2.Router1.eth[0].mac "bits/sec rcvd" 2968.96
scalar multiple_areas2.Router1.eth[0].mac "rx channel idle (%)" 99.996805504
scalar multiple_areas2.Router1.eth[0].mac "rx channel utilization (%)" 0.003194496
scalar multiple_areas2.Router1.eth[0].mac rxPausePkUnits:count 0
scalar multiple_areas2.Router1.eth[0].mac rxPausePkUnits:sum 0
scalar multiple_areas2.Router1.eth[0].mac txPausePkUnits:count 0
scalar multiple_areas2.Router1.eth[0].mac txPausePkUnits:sum 0
scalar multiple_areas2.Router1.eth[0].mac rxPkOk:count 1762
scalar multiple_areas2.Router1.eth[0].mac rxPkOk:sum(packetBytes) 185560
scalar multiple_areas2.Router1.eth[0].mac txPk:count 381
scalar multiple_areas2.Router1.eth[0].mac txPk:sum(packetBytes) 39646
scalar multiple_areas2.Router1.eth[0].mac packetReceivedFromUpper:count 381
scalar multiple_areas2.Router1.eth[0].mac packetReceivedFromUpper:sum(packetBytes) 39646
scalar multiple_areas2.Router1.eth[0].mac passedUpPk:count 1762
scalar multiple_areas2.Router1.eth[0].mac passedUpPk:sum(packetBytes) 185560
scalar multiple_areas2.Router1.eth[0].mac packetDropIncorrectlyReceived:count 0
scalar multiple_areas2.Router1.eth[0].mac packetDropIncorrectlyReceived:sum(packetBytes) 0
scalar multiple_areas2.Router1.eth[0].mac packetDropInterfaceDown:count 0
scalar multiple_areas2.Router1.eth[0].mac packetDropInterfaceDown:sum(packetBytes) 0
scalar multiple_areas2.Router1.eth[0].mac packetDropNotAddressedToUs:count 0
scalar multiple_areas2.Router1.eth[0].mac packetDropNotAddressedToUs:sum(packetBytes) 0
scalar multiple_areas2.Router1.eth[0] packetDropInterfaceDown:count 0
scalar multiple_areas2.Router1.eth[0] packetDropInterfaceDown:sum(packetBytes) 0
scalar multiple_areas2.Router1.eth[0] packetDropNoCarrier:count 0
scalar multiple_areas2.Router1.eth[0] packetDropNoCarrier:sum(packetBytes) 0
scalar multiple_areas2.Router1.eth[1].queue queueLength:last 0
scalar multiple_areas2.Router1.eth[1].queue queueLength:max 4
scalar multiple_areas2.Router1.eth[1].queue queueLength:timeavg 6.092e-07
scalar multiple_areas2.Router1.eth[1].queue queueBitLength:last 0
scalar multiple_areas2.Router1.eth[1].queue queueBitLength:max 3904
scalar multiple_areas2.Router1.eth[1].queue queueBitLength:timeavg 0.0005669184
scalar multiple_areas2.Router1.eth[1].queue outgoingPackets:count 97
scalar multiple_areas2.Router1.eth[1].queue outgoingPacketLengths:sum 86064
scalar multiple_areas2.Router1.eth[1].queue incomingPackets:count 97
scalar multiple_areas2.Router1.eth[1].queue incomingPacketLengths:sum 86064
scalar multiple_areas2.Router1.eth[1].queue droppedPacketsQueueOverflow:count 0
scalar multiple_areas2.Router1.eth[1].queue droppedPacketLengthsQueueOverflow:sum 0
scalar multiple_areas2.Router1.eth[1].mac "simulated time" 500
scalar multiple_areas2.Router1.eth[1].mac full-duplex 1
scalar multiple_areas2.Router1.eth[1].mac "frames/sec sent" 0.194
scalar multiple_areas2.Router1.eth[1].mac "frames/sec rcvd" 0.194
scalar multiple_areas2.Router1.eth[1].mac "bits/sec sent" 172.128
scalar multiple_areas2.Router1.eth[1].mac "bits/sec rcvd" 161.248
scalar multiple_areas2.Router1.eth[1].mac "rx channel idle (%)" 99.999826336
scalar multiple_areas2.Router1.eth[1].mac "rx channel utilization (%)" 0.000173664
scalar multiple_areas2.Router1.eth[1].mac rxPausePkUnits:count 0
scalar multiple_areas2.Router1.eth[1].mac rxPausePkUnits:sum 0
scalar multiple_areas2.Router1.eth[1].mac txPausePkUnits:count 0
scalar multiple_areas2.Router1.eth[1].mac txPausePkUnits:sum 0
scalar multiple_areas2.Router1.eth[1].mac rxPkOk:count 97
scalar multiple_areas2.Router1.eth[1].mac rxPkOk:sum(packetBytes) 10078
scalar multiple_areas2.Router1.eth[1].mac txPk:count 97
scalar multiple_areas2.Router1.eth[1].mac txPk:sum(packetBytes) 10758
scalar multiple_areas2.Router1.eth[1].mac packetReceivedFromUpper:count 97
scalar multiple_areas2.Router1.eth[1].mac packetReceivedFromUpper:sum(packetBytes) 10758
scalar multiple_areas2.Router1.eth[1].mac passedUpPk:count 97
scalar multiple_areas2.Router1.eth[1].mac passedUpPk:sum(packetBytes) 10078
scalar multiple_areas2.Router1.eth[1].mac packetDropIncorrectlyReceived:count 0
scalar multiple_areas2.Router1.eth[1].mac packetDropIncorrectlyReceived:sum(packetBytes) 0
scalar multiple_areas2.Router1.eth[1].mac packetDropInterfaceDown:count 0
scalar multiple_areas2.Router1.eth[1].mac packetDropInterfaceDown:sum(packetBytes) 0
scalar multiple_areas2.Router1.eth[1].mac packetDropNotAddressedToUs:count 0
scalar multiple_areas2.Router1.eth[1].mac packetDropNotAddressedToUs:sum(packetBytes) 0
scalar multiple_areas2.Router1.eth[1] packetDropInterfaceDown:count 0
scalar multiple_areas2.Router1.eth[1] packetDropInterfaceDown:sum(packetBytes) 0
scalar multiple_areas2.Router1.eth[1] packetDropNoCarrier:count 0
scalar multiple_areas2.Router1.eth[1] packetDropNoCarrier:sum(packetBytes) 0
scalar multiple_areas2.Router1.ipv4.ip packetDropAddressResolutionFailed:count 0
scalar multiple_areas2.Router1.ipv4.ip packetDropAddressResolutionFailed:sum(packetBytes) 0
scalar multiple_areas2.Router1.ipv4.ip packetDropHopLimitReached:count 0
scalar multiple_areas2.Router1.ipv4.ip packetDropHopLimitReached:sum(packetBytes) 0
scalar multiple_areas2.Router1.ipv4.ip packetDropForwardingDisabled:count 0
scalar multiple_areas2.Router1.ipv4.ip packetDropForwardingDisabled:sum(packetBytes) 0
scalar multiple_areas2.Router1.ipv4.ip packetDropLifetimeExpired:count 0
scalar multiple_areas2.Router1.ipv4.ip packetDropLifetimeExpired:sum(packetBytes) 0
scalar multiple_areas2.Router1.ipv4.ip packetDropNoInterfaceFound:count 0
scalar multiple_areas2.Router1.ipv4.ip packetDropNoInterfaceFound:sum(packetBytes) 0
scalar multiple_areas2.Router1.ipv4.ip packetDropNoRouteFound:count 0
scalar multiple_areas2.Router1.ipv4.ip packetDropNoRouteFound:sum(packetBytes) 0
scalar multiple_areas2.Router1.ipv4.ip packetDropUndefined:count 0
scalar multiple_areas2.Router1.ipv4.ip packetDropUndefined:sum(packetBytes) 0
scalar multiple_areas2.Router1.ipv4.arp arpResolutionFailed:count 0
scalar multiple_areas2.Router1.ipv4.arp arpResolutionCompleted:count 0
scalar multiple_areas2.Router1.ipv4.arp arpResolutionInitiated:count 0
scalar multiple_areas2.Router1.ipv4.arp arpReplySent:count 0
scalar multiple_areas2.Router1.ipv4.arp arpReplySent:sum(packetBytes) 0
scalar multiple_areas2.Router1.ipv4.arp arpRequestSent:count 0
scalar multiple_areas2.Router1.ipv4.arp arpRequestSent:sum(packetBytes) 0
scalar multiple_areas2.Router1.ipv6.neighbourDiscovery startDad:count 0
scalar multiple_areas2.Router2.ethernet pauseSent:count 0
scalar multiple_areas2.Router2.ethernet pauseSent:sum 0
scalar multiple_areas2.Router2.ethernet decapPk:count 1875
scalar multiple_areas2.Router2.ethernet decapPk:sum(packetBytes) 161880
scalar multiple_areas2.Router2.ethernet encapPk:count 639
scalar multiple_areas2.Router2.ethernet encapPk:sum(packetBytes) 57048
scalar multiple_areas2.Router2.lo[0].lo rcvdPkFromHl:count 0
scalar multiple_areas2.Router2.lo[0].lo rcvdPkFromHl:sum(packetBytes) 0
scalar multiple_areas2.Router2.lo[0].lo passedUpPk:count 0
scalar multiple_areas2.Router2.lo[0].lo passedUpPk:sum(packetBytes) 0
scalar multiple_areas2.Router2.lo[0] packetDropInterfaceDown:count 0
scalar multiple_areas2.Router2.lo[0] packetDropInterfaceDown:sum(packetBytes) 0
scalar multiple_areas2.Router2.lo[0] packetDropNoCarrier:count 0
scalar multiple_areas2.Router2.lo[0] packetDropNoCarrier:sum(packetBytes) 0
scalar multiple_areas2.Router2.eth[0].queue queueLength:last 0
scalar multiple_areas2.Router2.eth[0].queue queueLength:max 24
scalar multiple_areas2.Router2.eth[0].queue queueLength:timeavg 3.629208e-05
scalar multiple_areas2.Router2.eth[0].queue queueBitLength:last 0
scalar multiple_areas2.Router2.eth[0].queue queueBitLength:max 18048
scalar multiple_areas2.Router2.eth[0].queue queueBitLength:timeavg 0.0293101888
scalar multiple_areas2.Router2.eth[0].queue outgoingPackets:count 458
scalar multiple_areas2.Router2.eth[0].queue outgoingPacketLengths:sum 393344
scalar multiple_areas2.Router2.eth[0].queue incomingPackets:count 458
scalar multiple_areas2.Router2.eth[0].queue incomingPacketLengths:sum 393344
scalar multiple_areas2.Router2.eth[0].queue droppedPacketsQueueOverflow:count 0
scalar multiple_areas2.Router2.eth[0].queue droppedPacketLengthsQueueOverflow:sum 0
scalar multiple_areas2.Router2.eth[0].mac "simulated time" 500
scalar multiple_areas2.Router2.eth[0].mac full-duplex 1
scalar multiple_areas2.Router2.eth[0].mac "frames/sec sent" 0.916
scalar multiple_areas2.Router2.eth[0].mac "frames/sec rcvd" 3.37
scalar multiple_areas2.Router2.eth[0].mac "bits/sec sent" 786.688
scalar multiple_areas2.Router2.eth[0].mac "bits/sec rcvd" 2816.608
scalar multiple_areas2.Router2.eth[0].mac "rx channel idle (%)" 99.996967712
scalar multiple_areas2.Router2.eth[0].mac "rx channel utilization (%)" 0.003032288
scalar multiple_areas2.Router2.eth[0].mac rxPausePkUnits:count 0
scalar multiple_areas2.Router2.eth[0].mac rxPausePkUnits:sum 0
scalar multiple_areas2.Router2.eth[0].mac txPausePkUnits:count 0
scalar multiple_areas2.Router2.eth[0].mac txPausePkUnits:sum 0
scalar multiple_areas2.Router2.eth[0].mac rxPkOk:count 1685
scalar multiple_areas2.Router2.eth[0].mac rxPkOk:sum(packetBytes) 176038
scalar multiple_areas2.Router2.eth[0].mac txPk:count 458
scalar multiple_areas2.Router2.eth[0].mac txPk:sum(packetBytes) 49168
scalar multiple_areas2.Router2.eth[0].mac packetReceivedFromUpper:count 458
scalar multiple_areas2.Router2.eth[0].mac packetReceivedFromUpper:sum(packetBytes) 49168
scalar multiple_areas2.Router2.eth[0].mac passedUpPk:count 1685
scalar multiple_areas2.Router2.eth[0].mac passedUpPk:sum(packetBytes) 176038
scalar multiple_areas2.Router2.eth[0].mac packetDropIncorrectlyReceived:count 0
scalar multiple_areas2.Router2.eth[0].mac packetDropIncorrectlyReceived:sum(packetBytes) 0
scalar multiple_areas2.Router2.eth[0].mac packetDropInterfaceDown:count 0
scalar multiple_areas2.Router2.eth[0].mac packetDropInterfaceDown:sum(packetBytes) 0
scalar multiple_areas2.Router2.eth[0].mac packetDropNotAddressedToUs:count 0
scalar multiple_areas2.Router2.eth[0].mac packetDropNotAddressedToUs:sum(packetBytes) 0
scalar multiple_areas2.Router2.eth[0] packetDropInterfaceDown:count 0
scalar multiple_areas2.Router2.eth[0] packetDropInterfaceDown:sum(packetBytes) 0
scalar multiple_areas2.Router2.eth[0] packetDropNoCarrier:count 0
scalar multiple_areas2.Router2.eth[0] packetDropNoCarrier:sum(packetBytes) 0
scalar multiple_areas2.Router2.eth[1].queue queueLength:last 0
scalar multiple_areas2.Router2.eth[1].queue queueLength:max 7
scalar multiple_areas2.Router2.eth[1].queue queueLength:timeavg 2.69824e-06
scalar multiple_areas2.Router2.eth[1].queue queueBitLength:last 0
scalar multiple_areas2.Router2.eth[1].queue queueBitLength:max 6320
scalar multiple_areas2.Router2.eth[1].queue queueBitLength:timeavg 0.00230946048
scalar multiple_areas2.Router2.eth[1].queue outgoingPackets:count 181
scalar multiple_areas2.Router2.eth[1].queue outgoingPacketLengths:sum 155056
scalar multiple_areas2.Router2.eth[1].queue incomingPackets:count 181
scalar multiple_areas2.Router2.eth[1].queue incomingPacketLengths:sum 155056
scalar multiple_areas2.Router2.eth[1].queue droppedPacketsQueueOverflow:count 0
scalar multiple_areas2.Router2.eth[1].queue droppedPacketLengthsQueueOverflow:sum 0
scalar multiple_areas2.Router2.eth[1].mac "simulated time" 500
scalar multiple_areas2.Router2.eth[1].mac full-duplex 1
scalar multiple_areas2.Router2.eth[1].mac "frames/sec sent" 0.362
scalar multiple_areas2.Router2.eth[1].mac "frames/sec rcvd" 0.38
scalar multiple_areas2.Router2.eth[1].mac "bits/sec sent" 310.112
scalar multiple_areas2.Router2.eth[1].mac "bits/sec rcvd" 313.472
scalar multiple_areas2.Router2.eth[1].mac "rx channel idle (%)" 99.999662208
scalar multiple_areas2.Router2.eth[1].mac "rx channel utilization (%)" 0.000337792
scalar multiple_areas2.Router2.eth[1].mac rxPausePkUnits:count 0
scalar multiple_areas2.Router2.eth[1].mac rxPausePkUnits:sum 0
scalar multiple_areas2.Router2.eth[1].mac txPausePkUnits:count 0
scalar multiple_areas2.Router2.eth[1].mac txPausePkUnits:sum 0
scalar multiple_areas2.Router2.eth[1].mac rxPkOk:count 190
scalar multiple_areas2.Router2.eth[1].mac rxPkOk:sum(packetBytes) 19592
scalar multiple_areas2.Router2.eth[1].mac txPk:count 181
scalar multiple_areas2.Router2.eth[1].mac txPk:sum(packetBytes) 19382
scalar multiple_areas2.Router2.eth[1].mac packetReceivedFromUpper:count 181
scalar multiple_areas2.Router2.eth[1].mac packetReceivedFromUpper:sum(packetBytes) 19382
scalar multiple_areas2.Router2.eth[1].mac passedUpPk:count 190
scalar multiple_areas2.Router2.eth[1].mac passedUpPk:sum(packetBytes) 19592
scalar multiple_areas2.Router2.eth[1].mac packetDropIncorrectlyReceived:count 0
scalar multiple_areas2.Router2.eth[1].mac packetDropIncorrectlyReceived:sum(packetBytes) 0
scalar multiple_areas2.Router2.eth[1].mac packetDropInterfaceDown:count 0
scalar multiple_areas2.Router2.eth[1].mac packetDropInterfaceDown:sum(packetBytes) 0
scalar multiple_areas2.Router2.eth[1].mac packetDropNotAddressedToUs:count 0
scalar multiple_areas2.Router2.eth[1].mac packetDropNotAddressedToUs:sum(packetBytes) 0
scalar multiple_areas2.Router2.eth[1] packetDropInterfaceDown:count 0
scalar multiple_areas2.Router2.eth[1] packetDropInterfaceDown:sum(packetBytes) 0
scalar multiple_areas2.Router2.eth[1] packetDropNoCarrier:count 0
scalar multiple_areas2.Router2.eth[1] packetDropNoCarrier:sum(packetBytes) 0
scalar multiple_areas2.Router2.ipv4.ip packetDropAddressResolutionFailed:count 0
scalar multiple_areas2.Router2.ipv4.ip packetDropAddressResolutionFailed:sum(packetBytes) 0
scalar multiple_areas2.Router2.ipv4.ip packetDropHopLimitReached:count 0
scalar multiple_areas2.Router2.ipv4.ip packetDropHopLimitReached:sum(packetBytes) 0
scalar multiple_areas2.Router2.ipv4.ip packetDropForwardingDisabled:count 0
scalar multiple_areas2.Router2.ipv4.ip packetDropForwardingDisabled:sum(packetBytes) 0
scalar multiple_areas2.Router2.ipv4.ip packetDropLifetimeExpired:count 0
scalar multiple_areas2.Router2.ipv4.ip packetDropLifetimeExpired:sum(packetBytes) 0
scalar multiple_areas2.Router2.ipv4.ip packetDropNoInterfaceFound:count 0
scalar multiple_areas2.Router2.ipv4.ip packetDropNoInterfaceFound:sum(packetBytes) 0
scalar multiple_areas2.Router2.ipv4.ip packetDropNoRouteFound:count 0
scalar multiple_areas2.Router2.ipv4.ip packetDropNoRouteFound:sum(packetBytes) 0
scalar multiple_areas2.Router2.ipv4.ip packetDropUndefined:count 0
scalar multiple_areas2.Router2.ipv4.ip packetDropUndefined:sum(packetBytes) 0
scalar multiple_areas2.Router2.ipv4.arp arpResolutionFailed:count 0
scalar multiple_areas2.Router2.ipv4.arp arpResolutionCompleted:count 0
scalar multiple_areas2.Router2.ipv4.arp arpResolutionInitiated:count 0
scalar multiple_areas2.Router2.ipv4.arp arpReplySent:count 0
scalar multiple_areas2.Router2.ipv4.arp arpReplySent:sum(packetBytes) 0
scalar multiple_areas2.Router2.ipv4.arp arpRequestSent:count 0
scalar multiple_areas2.Router2.ipv4.arp arpRequestSent:sum(packetBytes) 0
scalar multiple_areas2.Router2.ipv6.neighbourDiscovery startDad:count 0
scalar multiple_areas2.Router4.ethernet pauseSent:count 0
scalar multiple_areas2.Router4.ethernet pauseSent:sum 0
scalar multiple_areas2.Router4.ethernet decapPk:count 1852
scalar multiple_areas2.Router4.ethernet decapPk:sum(packetBytes) 161108
scalar multiple_areas2.Router4.ethernet encapPk:count 487
scalar multiple_areas2.Router4.ethernet encapPk:sum(packetBytes) 43012
scalar multiple_areas2.Router4.lo[0].lo rcvdPkFromHl:count 0
scalar multiple_areas2.Router4.lo[0].lo rcvdPkFromHl:sum(packetBytes) 0
scalar multiple_areas2.Router4.lo[0].lo passedUpPk:count 0
scalar multiple_areas2.Router4.lo[0].lo passedUpPk:sum(packetBytes) 0
scalar multiple_areas2.Router4.lo[0] packetDropInterfaceDown:count 0
scalar multiple_areas2.Router4.lo[0] packetDropInterfaceDown:sum(packetBytes) 0
scalar multiple_areas2.Router4.lo[0] packetDropNoCarrier:count 0
scalar multiple_areas2.Router4.lo[0] packetDropNoCarrier:sum(packetBytes) 0
scalar multiple_areas2.Router4.eth[0].queue queueLength:last 0
scalar multiple_areas2.Router4.eth[0].queue queueLength:max 20
scalar multiple_areas2.Router4.eth[0].queue queueLength:timeavg 2.833472e-05
scalar multiple_areas2.Router4.eth[0].queue queueBitLength:last 0
scalar multiple_areas2.Router4.eth[0].queue queueBitLength:max 15040
scalar multiple_areas2.Router4.eth[0].queue queueBitLength:timeavg 0.02206784512
scalar multiple_areas2.Router4.eth[0].queue outgoingPackets:count 392
scalar multiple_areas2.Router4.eth[0].queue outgoingPacketLengths:sum 329600
scalar multiple_areas2.Router4.eth[0].queue incomingPackets:count 392
scalar multiple_areas2.Router4.eth[0].queue incomingPacketLengths:sum 329600
scalar multiple_areas2.Router4.eth[0].queue droppedPacketsQueueOverflow:count 0
scalar multiple_areas2.Router4.eth[0].queue droppedPacketLengthsQueueOverflow:sum 0
scalar multiple_areas2.Router4.eth[0].mac "simulated time" 500
scalar multiple_areas2.Router4.eth[0].mac full-duplex 1
scalar multiple_areas2.Router4.eth[0].mac "frames/sec sent" 0.784
scalar multiple_areas2.Router4.eth[0].mac "frames/sec rcvd" 3.502
scalar multiple_areas2.Router4.eth[0].mac "bits/sec sent" 659.2
scalar multiple_areas2.Router4.eth[0].mac "bits/sec rcvd" 2944.096
scalar multiple_areas2.Router4.eth[0].mac "rx channel idle (%)" 99.996831776
scalar multiple_areas2.Router4.eth[0].mac "rx channel utilization (%)" 0.003168224
scalar multiple_areas2.Router4.eth[0].mac rxPausePkUnits:count 0
scalar multiple_areas2.Router4.eth[0].mac rxPausePkUnits:sum 0
scalar multiple_areas2.Router4.eth[0].mac txPausePkUnits:count 0
scalar multiple_areas2.Router4.eth[0].mac txPausePkUnits:sum 0
scalar multiple_areas2.Router4.eth[0].mac rxPkOk:count 1751
scalar multiple_areas2.Router4.eth[0].mac rxPkOk:sum(packetBytes) 184006
scalar multiple_areas2.Router4.eth[0].mac txPk:count 392
scalar multiple_areas2.Router4.eth[0].mac txPk:sum(packetBytes) 41200
scalar multiple_areas2.Router4.eth[0].mac packetReceivedFromUpper:count 392
scalar multiple_areas2.Router4.eth[0].mac packetReceivedFromUpper:sum(packetBytes) 41200
scalar multiple_areas2.Router4.eth[0].mac passedUpPk:count 1751
scalar multiple_areas2.Router4.eth[0].mac passedUpPk:sum(packetBytes) 184006
scalar multiple_areas2.Router4.eth[0].mac packetDropIncorrectlyReceived:count 0
scalar multiple_areas2.Router4.eth[0].mac packetDropIncorrectlyReceived:sum(packetBytes) 0
scalar multiple_areas2.Router4.eth[0].mac packetDropInterfaceDown:count 0
scalar multiple_areas2.Router4.eth[0].mac packetDropInterfaceDown:sum(packetBytes) 0
scalar multiple_areas2.Router4.eth[0].mac packetDropNotAddressedToUs:count 0
scalar multiple_areas2.Router4.eth[0].mac packetDropNotAddressedToUs:sum(packetBytes) 0
scalar multiple_areas2.Router4.eth[0] packetDropInterfaceDown:count 0
scalar multiple_areas2.Router4.eth[0] packetDropInterfaceDown:sum(packetBytes) 0
scalar multiple_areas2.Router4.eth[0] packetDropNoCarrier:count 0
scalar multiple_areas2.Router4.eth[0] packetDropNoCarrier:sum(packetBytes) 0
scalar multiple_areas2.Router4.eth[1].queue queueLength:last 0
scalar multiple_areas2.Router4.eth[1].queue queueLength:max 4
scalar multiple_areas2.Router4.eth[1].queue queueLength:timeavg 5.4104e-07
scalar multiple_areas2.Router4.eth[1].queue queueBitLength:last 0
scalar multiple_areas2.Router4.eth[1].queue queueBitLength:max 3904
scalar multiple_areas2.Router4.eth[1].queue queueBitLength:timeavg 0.00050039424
scalar multiple_areas2.Router4.eth[1].queue outgoingPackets:count 95
scalar multiple_areas2.Router4.eth[1].queue outgoingPacketLengths:sum 84624
scalar multiple_areas2.Router4.eth[1].queue incomingPackets:count 95
scalar multiple_areas2.Router4.eth[1].queue incomingPacketLengths:sum 84624
scalar multiple_areas2.Router4.eth[1].queue droppedPacketsQueueOverflow:count 0
scalar multiple_areas2.Router4.eth[1].queue droppedPacketLengthsQueueOverflow:sum 0
scalar multiple_areas2.Router4.eth[1].mac "simulated time" 500
scalar multiple_areas2.Router4.eth[1].mac full-duplex 1
scalar multiple_areas2.Router4.eth[1].mac "frames/sec sent" 0.19
scalar multiple_areas2.Router4.eth[1].mac "frames/sec rcvd" 0.202
scalar multiple_areas2.Router4.eth[1].mac "bits/sec sent" 169.248
scalar multiple_areas2.Router4.eth[1].mac "bits/sec rcvd" 167.008
scalar multiple_areas2.Router4.eth[1].mac "rx channel idle (%)" 99.999820064
scalar multiple_areas2.Router4.eth[1].mac "rx channel utilization (%)" 0.000179936
scalar multiple_areas2.Router4.eth[1].mac rxPausePkUnits:count 0
scalar multiple_areas2.Router4.eth[1].mac rxPausePkUnits:sum 0
scalar multiple_areas2.Router4.eth[1].mac txPausePkUnits:count 0
scalar multiple_areas2.Router4.eth[1].mac txPausePkUnits:sum 0
scalar multiple_areas2.Router4.eth[1].mac rxPkOk:count 101
scalar multiple_areas2.Router4.eth[1].mac rxPkOk:sum(packetBytes) 10438
scalar multiple_areas2.Router4.eth[1].mac txPk:count 95
scalar multiple_areas2.Router4.eth[1].mac txPk:sum(packetBytes) 10578
scalar multiple_areas2.Router4.eth[1].mac packetReceivedFromUpper:count 95
scalar multiple_areas2.Router4.eth[1].mac packetReceivedFromUpper:sum(packetBytes) 10578
scalar multiple_areas2.Router4.eth[1].mac passedUpPk:count 101
scalar multiple_areas2.Router4.eth[1].mac passedUpPk:sum(packetBytes) 10438
scalar multiple_areas2.Router4.eth[1].mac packetDropIncorrectlyReceived:count 0
scalar multiple_areas2.Router4.eth[1].mac packetDropIncorrectlyReceived:sum(packetBytes) 0
scalar multiple_areas2.Router4.eth[1].mac packetDropInterfaceDown:count 0
scalar multiple_areas2.Router4.eth[1].mac packetDropInterfaceDown:sum(packetBytes) 0
scalar multiple_areas2.Router4.eth[1].mac packetDropNotAddressedToUs:count 0
scalar multiple_areas2.Router4.eth[1].mac packetDropNotAddressedToUs:sum(packetBytes) 0
scalar multiple_areas2.Router4.eth[1] packetDropInterfaceDown:count 0
scalar multiple_areas2.Router4.eth[1] packetDropInterfaceDown:sum(packetBytes) 0
scalar multiple_areas2.Router4.eth[1] packetDropNoCarrier:count 0
scalar multiple_areas2.Router4.eth[1] packetDropNoCarrier:sum(packetBytes) 0
scalar multiple_areas2.Router4.ipv4.ip packetDropAddressResolutionFailed:count 0
scalar multiple_areas2.Router4.ipv4.ip packetDropAddressResolutionFailed:sum(packetBytes) 0
scalar multiple_areas2.Router4.ipv4.ip packetDropHopLimitReached:count 0
scalar multiple_areas2.Router4.ipv4.ip packetDropHopLimitReached:sum(packetBytes) 0
scalar multiple_areas2.Router4.ipv4.ip packetDropForwardingDisabled:count 0
scalar multiple_areas2.Router4.ipv4.ip packetDropForwardingDisabled:sum(packetBytes) 0
scalar multiple_areas2.Router4.ipv4.ip packetDropLifetimeExpired:count 0
scalar multiple_areas2.Router4.ipv4.ip packetDropLifetimeExpired:sum(packetBytes) 0
scalar multiple_areas2.Router4.ipv4.ip packetDropNoInterfaceFound:count 0
scalar multiple_areas2.Router4.ipv4.ip packetDropNoInterfaceFound:sum(packetBytes) 0
scalar multiple_areas2.Router4.ipv4.ip packetDropNoRouteFound:count 0
scalar multiple_areas2.Router4.ipv4.ip packetDropNoRouteFound:sum(packetBytes) 0
scalar multiple_areas2.Router4.ipv4.ip packetDropUndefined:count 0
scalar multiple_areas2.Router4.ipv4.ip packetDropUndefined:sum(packetBytes) 0
scalar multiple_areas2.Router4.ipv4.arp arpResolutionFailed:count 0
scalar multiple_areas2.Router4.ipv4.arp arpResolutionCompleted:count 0
scalar multiple_areas2.Router4.ipv4.arp arpResolutionInitiated:count 0
scalar multiple_areas2.Router4.ipv4.arp arpReplySent:count 0
scalar multiple_areas2.Router4.ipv4.arp arpReplySent:sum(packetBytes) 0
scalar multiple_areas2.Router4.ipv4.arp arpRequestSent:count 0
scalar multiple_areas2.Router4.ipv4.arp arpRequestSent:sum(packetBytes) 0
scalar multiple_areas2.Router4.ipv6.neighbourDiscovery startDad:count 0
scalar multiple_areas2.Router3.ethernet pauseSent:count 0
scalar multiple_areas2.Router3.ethernet pauseSent:sum 0
scalar multiple_areas2.Router3.ethernet decapPk:count 1805
scalar multiple_areas2.Router3.ethernet decapPk:sum(packetBytes) 159220
scalar multiple_areas2.Router3.ethernet encapPk:count 712
scalar multiple_areas2.Router3.ethernet encapPk:sum(packetBytes) 62464
scalar multiple_areas2.Router3.lo[0].lo rcvdPkFromHl:count 0
scalar multiple_areas2.Router3.lo[0].lo rcvdPkFromHl:sum(packetBytes) 0
scalar multiple_areas2.Router3.lo[0].lo passedUpPk:count 0
scalar multiple_areas2.Router3.lo[0].lo passedUpPk:sum(packetBytes) 0
scalar multiple_areas2.Router3.lo[0] packetDropInterfaceDown:count 0
scalar multiple_areas2.Router3.lo[0] packetDropInterfaceDown:sum(packetBytes) 0
scalar multiple_areas2.Router3.lo[0] packetDropNoCarrier:count 0
scalar multiple_areas2.Router3.lo[0] packetDropNoCarrier:sum(packetBytes) 0
scalar multiple_areas2.Router3.eth[0].queue queueLength:last 0
scalar multiple_areas2.Router3.eth[0].queue queueLength:max 33
scalar multiple_areas2.Router3.eth[0].queue queueLength:timeavg 4.063752e-05
scalar multiple_areas2.Router3.eth[0].queue queueBitLength:last 0
scalar multiple_areas2.Router3.eth[0].queue queueBitLength:max 24816
scalar multiple_areas2.Router3.eth[0].queue queueBitLength:timeavg 0.03146114944
scalar multiple_areas2.Router3.eth[0].queue outgoingPackets:count 511
scalar multiple_areas2.Router3.eth[0].queue outgoingPacketLengths:sum 426384
scalar multiple_areas2.Router3.eth[0].queue incomingPackets:count 511
scalar multiple_areas2.Router3.eth[0].queue incomingPacketLengths:sum 426384
scalar multiple_areas2.Router3.eth[0].queue droppedPacketsQueueOverflow:count 0
scalar multiple_areas2.Router3.eth[0].queue droppedPacketLengthsQueueOverflow:sum 0
scalar multiple_areas2.Router3.eth[0].mac "simulated time" 500
scalar multiple_areas2.Router3.eth[0].mac full-duplex 1
scalar multiple_areas2.Router3.eth[0].mac "frames/sec sent" 1.022
scalar multiple_areas2.Router3.eth[0].mac "frames/sec rcvd" 3.264
scalar multiple_areas2.Router3.eth[0].mac "bits/sec sent" 852.768
scalar multiple_areas2.Router3.eth[0].mac "bits/sec rcvd" 2750.528
scalar multiple_areas2.Router3.eth[0].mac "rx channel idle (%)" 99.997040576
scalar multiple_areas2.Router3.eth[0].mac "rx channel utilization (%)" 0.002959424
scalar multiple_areas2.Router3.eth[0].mac rxPausePkUnits:count 0
scalar multiple_areas2.Router3.eth[0].mac rxPausePkUnits:sum 0
scalar multiple_areas2.Router3.eth[0].mac txPausePkUnits:count 0
scalar multiple_areas2.Router3.eth[0].mac txPausePkUnits:sum 0
scalar multiple_areas2.Router3.eth[0].mac rxPkOk:count 1632
scalar multiple_areas2.Router3.eth[0].mac rxPkOk:sum(packetBytes) 171908
scalar multiple_areas2.Router3.eth[0].mac txPk:count 511
scalar multiple_areas2.Router3.eth[0].mac txPk:sum(packetBytes) 53298
scalar multiple_areas2.Router3.eth[0].mac packetReceivedFromUpper:count 511
scalar multiple_areas2.Router3.eth[0].mac packetReceivedFromUpper:sum(packetBytes) 53298
scalar multiple_areas2.Router3.eth[0].mac passedUpPk:count 1632
scalar multiple_areas2.Router3.eth[0].mac passedUpPk:sum(packetBytes) 171908
scalar multiple_areas2.Router3.eth[0].mac packetDropIncorrectlyReceived:count 0
scalar multiple_areas2.Router3.eth[0].mac packetDropIncorrectlyReceived:sum(packetBytes) 0
scalar multiple_areas2.Router3.eth[0].mac packetDropInterfaceDown:count 0
scalar multiple_areas2.Router3.eth[0].mac packetDropInterfaceDown:sum(packetBytes) 0
scalar multiple_areas2.Router3.eth[0].mac packetDropNotAddressedToUs:count 0
scalar multiple_areas2.Router3.eth[0].mac packetDropNotAddressedToUs:sum(packetBytes) 0
scalar multiple_areas2.Router3.eth[0] packetDropInterfaceDown:count 0
scalar multiple_areas2.Router3.eth[0] packetDropInterfaceDown:sum(packetBytes) 0
scalar multiple_areas2.Router3.eth[0] packetDropNoCarrier:count 0
scalar multiple_areas2.Router3.eth[0] packetDropNoCarrier:sum(packetBytes) 0
scalar multiple_areas2.Router3.eth[1].queue queueLength:last 0
scalar multiple_areas2.Router3.eth[1].queue queueLength:max 7
scalar multiple_areas2.Router3.eth[1].queue queueLength:timeavg 2.7576e-06
scalar multiple_areas2.Router3.eth[1].queue queueBitLength:last 0
scalar multiple_areas2.Router3.eth[1].queue queueBitLength:max 6544
scalar multiple_areas2.Router3.eth[1].queue queueBitLength:timeavg 0.00266112512
scalar multiple_areas2.Router3.eth[1].queue outgoingPackets:count 201
scalar multiple_areas2.Router3.eth[1].queue outgoingPacketLengths:sum 175856
scalar multiple_areas2.Router3.eth[1].queue incomingPackets:count 201
scalar multiple_areas2.Router3.eth[1].queue incomingPacketLengths:sum 175856
scalar multiple_areas2.Router3.eth[1].queue droppedPacketsQueueOverflow:count 0
scalar multiple_areas2.Router3.eth[1].queue droppedPacketLengthsQueueOverflow:sum 0
scalar multiple_areas2.Router3.eth[1].mac "simulated time" 500
scalar multiple_areas2.Router3.eth[1].mac full-duplex 1
scalar multiple_areas2.Router3.eth[1].mac "frames/sec sent" 0.318
scalar multiple_areas2.Router3.eth[1].mac "frames/sec rcvd" 0.346
scalar multiple_areas2.Router3.eth[1].mac "bits/sec sent" 288.032
scalar multiple_areas2.Router3.eth[1].mac "bits/sec rcvd" 316.832
scalar multiple_areas2.Router3.eth[1].mac "rx channel idle (%)" 99.999661024
scalar multiple_areas2.Router3.eth[1].mac "rx channel utilization (%)" 0.000338976
scalar multiple_areas2.Router3.eth[1].mac rxPausePkUnits:count 0
scalar multiple_areas2.Router3.eth[1].mac rxPausePkUnits:sum 0
scalar multiple_areas2.Router3.eth[1].mac txPausePkUnits:count 0
scalar multiple_areas2.Router3.eth[1].mac txPausePkUnits:sum 0
scalar multiple_areas2.Router3.eth[1].mac rxPkOk:count 173
scalar multiple_areas2.Router3.eth[1].mac rxPkOk:sum(packetBytes) 19802
scalar multiple_areas2.Router3.eth[1].mac txPk:count 159
scalar multiple_areas2.Router3.eth[1].mac txPk:sum(packetBytes) 18002
scalar multiple_areas2.Router3.eth[1].mac packetReceivedFromUpper:count 201
scalar multiple_areas2.Router3.eth[1].mac packetReceivedFromUpper:sum(packetBytes) 21982
scalar multiple_areas2.Router3.eth[1].mac passedUpPk:count 173
scalar multiple_areas2.Router3.eth[1].mac passedUpPk:sum(packetBytes) 19802
scalar multiple_areas2.Router3.eth[1].mac packetDropIncorrectlyReceived:count 0
scalar multiple_areas2.Router3.eth[1].mac packetDropIncorrectlyReceived:sum(packetBytes) 0
scalar multiple_areas2.Router3.eth[1].mac packetDropInterfaceDown:count 42
scalar multiple_areas2.Router3.eth[1].mac packetDropInterfaceDown:sum(packetBytes) 3980
scalar multiple_areas2.Router3.eth[1].mac packetDropNotAddressedToUs:count 0
scalar multiple_areas2.Router3.eth[1].mac packetDropNotAddressedToUs:sum(packetBytes) 0
scalar multiple_areas2.Router3.eth[1] packetDropInterfaceDown:count 42
scalar multiple_areas2.Router3.eth[1] packetDropInterfaceDown:sum(packetBytes) 3980
scalar multiple_areas2.Router3.eth[1] packetDropNoCarrier:count 0
scalar multiple_areas2.Router3.eth[1] packetDropNoCarrier:sum(packetBytes) 0
scalar multiple_areas2.Router3.ipv4.ip packetDropAddressResolutionFailed:count 0
scalar multiple_areas2.Router3.ipv4.ip packetDropAddressResolutionFailed:sum(packetBytes) 0
scalar multiple_areas2.Router3.ipv4.ip packetDropHopLimitReached:count 0
scalar multiple_areas2.Router3.ipv4.ip packetDropHopLimitReached:sum(packetBytes) 0
scalar multiple_areas2.Router3.ipv4.ip packetDropForwardingDisabled:count 0
scalar multiple_areas2.Router3.ipv4.ip packetDropForwardingDisabled:sum(packetBytes) 0
scalar multiple_areas2.Router3.ipv4.ip packetDropLifetimeExpired:count 0
scalar multiple_areas2.Router3.ipv4.ip packetDropLifetimeExpired:sum(packetBytes) 0
scalar multiple_areas2.Router3.ipv4.ip packetDropNoInterfaceFound:count 0
scalar multiple_areas2.Router3.ipv4.ip packetDropNoInterfaceFound:sum(packetBytes) 0
scalar multiple_areas2.Router3.ipv4.ip packetDropNoRouteFound:count 0
scalar multiple_areas2.Router3.ipv4.ip packetDropNoRouteFound:sum(packetBytes) 0
scalar multiple_areas2.Router3.ipv4.ip packetDropUndefined:count 0
scalar multiple_areas2.Router3.ipv4.ip packetDropUndefined:sum(packetBytes) 0
scalar multiple_areas2.Router3.ipv4.arp arpResolutionFailed:count 0
scalar multiple_areas2.Router3.ipv4.arp arpResolutionCompleted:count 0
scalar multiple_areas2.Router3.ipv4.arp arpResolutionInitiated:count 0
scalar multiple_areas2.Router3.ipv4.arp arpReplySent:count 0
scalar multiple_areas2.Router3.ipv4.arp arpReplySent:sum(packetBytes) 0
scalar multiple_areas2.Router3.ipv4.arp arpRequestSent:count 0
scalar multiple_areas2.Router3.ipv4.arp arpRequestSent:sum(packetBytes) 0
scalar multiple_areas2.Router3.ipv6.neighbourDiscovery startDad:count 0
scalar multiple_areas2.Router5.ethernet pauseSent:count 0
scalar multiple_areas2.Router5.ethernet pauseSent:sum 0
scalar multiple_areas2.Router5.ethernet decapPk:count 1843
scalar multiple_areas2.Router5.ethernet decapPk:sum(packetBytes) 160576
scalar multiple_areas2.Router5.ethernet encapPk:count 498
scalar multiple_areas2.Router5.ethernet encapPk:sum(packetBytes) 43688
scalar multiple_areas2.Router5.lo[0].lo rcvdPkFromHl:count 0
scalar multiple_areas2.Router5.lo[0].lo rcvdPkFromHl:sum(packetBytes) 0
scalar multiple_areas2.Router5.lo[0].lo passedUpPk:count 0
scalar multiple_areas2.Router5.lo[0].lo passedUpPk:sum(packetBytes) 0
scalar multiple_areas2.Router5.lo[0] packetDropInterfaceDown:count 0
scalar multiple_areas2.Router5.lo[0] packetDropInterfaceDown:sum(packetBytes) 0
scalar multiple_areas2.Router5.lo[0] packetDropNoCarrier:count 0
scalar multiple_areas2.Router5.lo[0] packetDropNoCarrier:sum(packetBytes) 0
scalar multiple_areas2.Router5.eth[0].queue queueLength:last 0
scalar multiple_areas2.Router5.eth[0].queue queueLength:max 34
scalar multiple_areas2.Router5.eth[0].queue queueLength:timeavg 4.260544e-05
scalar multiple_areas2.Router5.eth[0].queue queueBitLength:last 0
scalar multiple_areas2.Router5.eth[0].queue queueBitLength:max 26064
scalar multiple_areas2.Router5.eth[0].queue queueBitLength:timeavg 0.03328027648
scalar multiple_areas2.Router5.eth[0].queue outgoingPackets:count 401
scalar multiple_areas2.Router5.eth[0].queue outgoingPacketLengths:sum 335152
scalar multiple_areas2.Router5.eth[0].queue incomingPackets:count 401
scalar multiple_areas2.Router5.eth[0].queue incomingPacketLengths:sum 335152
scalar multiple_areas2.Router5.eth[0].queue droppedPacketsQueueOverflow:count 0
scalar multiple_areas2.Router5.eth[0].queue droppedPacketLengthsQueueOverflow:sum 0
scalar multiple_areas2.Router5.eth[0].mac "simulated time" 500
scalar multiple_areas2.Router5.eth[0].mac full-duplex 1
scalar multiple_areas2.Router5.eth[0].mac "frames/sec sent" 0.802
scalar multiple_areas2.Router5.eth[0].mac "frames/sec rcvd" 3.484
scalar multiple_areas2.Router5.eth[0].mac "bits/sec sent" 670.304
scalar multiple_areas2.Router5.eth[0].mac "bits/sec rcvd" 2932.992
scalar multiple_areas2.Router5.eth[0].mac "rx channel idle (%)" 99.996844032
scalar multiple_areas2.Router5.eth[0].mac "rx channel utilization (%)" 0.003155968
scalar multiple_areas2.Router5.eth[0].mac rxPausePkUnits:count 0
scalar multiple_areas2.Router5.eth[0].mac rxPausePkUnits:sum 0
scalar multiple_areas2.Router5.eth[0].mac txPausePkUnits:count 0
scalar multiple_areas2.Router5.eth[0].mac txPausePkUnits:sum 0
scalar multiple_areas2.Router5.eth[0].mac rxPkOk:count 1742
scalar multiple_areas2.Router5.eth[0].mac rxPkOk:sum(packetBytes) 183312
scalar multiple_areas2.Router5.eth[0].mac txPk:count 401
scalar multiple_areas2.Router5.eth[0].mac txPk:sum(packetBytes) 41894
scalar multiple_areas2.Router5.eth[0].mac packetReceivedFromUpper:count 401
scalar multiple_areas2.Router5.eth[0].mac packetReceivedFromUpper:sum(packetBytes) 41894
scalar multiple_areas2.Router5.eth[0].mac passedUpPk:count 1742
scalar multiple_areas2.Router5.eth[0].mac passedUpPk:sum(packetBytes) 183312
scalar multiple_areas2.Router5.eth[0].mac packetDropIncorrectlyReceived:count 0
scalar multiple_areas2.Router5.eth[0].mac packetDropIncorrectlyReceived:sum(packetBytes) 0
scalar multiple_areas2.Router5.eth[0].mac packetDropInterfaceDown:count 0
scalar multiple_areas2.Router5.eth[0].mac packetDropInterfaceDown:sum(packetBytes) 0
scalar multiple_areas2.Router5.eth[0].mac packetDropNotAddressedToUs:count 0
scalar multiple_areas2.Router5.eth[0].mac packetDropNotAddressedToUs:sum(packetBytes) 0
scalar multiple_areas2.Router5.eth[0] packetDropInterfaceDown:count 0
scalar multiple_areas2.Router5.eth[0] packetDropInterfaceDown:sum(packetBytes) 0
scalar multiple_areas2.Router5.eth[0] packetDropNoCarrier:count 0
scalar multiple_areas2.Router5.eth[0] packetDropNoCarrier:sum(packetBytes) 0
scalar multiple_areas2.Router5.eth[1].queue queueLength:last 0
scalar multiple_areas2.Router5.eth[1].queue queueLength:max 4
scalar multiple_areas2.Router5.eth[1].queue queueLength:timeavg 5.4104e-07
scalar multiple_areas2.Router5.eth[1].queue queueBitLength:last 0
scalar multiple_areas2.Router5.eth[1].queue queueBitLength:max 3904
scalar multiple_areas2.Router5.eth[1].queue queueBitLength:timeavg 0.00050039424
scalar multiple_areas2.Router5.eth[1].queue outgoingPackets:count 97
scalar multiple_areas2.Router5.eth[1].queue outgoingPacketLengths:sum 86064
scalar multiple_areas2.Router5.eth[1].queue incomingPackets:count 97
scalar multiple_areas2.Router5.eth[1].queue incomingPacketLengths:sum 86064
scalar multiple_areas2.Router5.eth[1].queue droppedPacketsQueueOverflow:count 0
scalar multiple_areas2.Router5.eth[1].queue droppedPacketLengthsQueueOverflow:sum 0
scalar multiple_areas2.Router5.eth[1].mac "simulated time" 500
scalar multiple_areas2.Router5.eth[1].mac full-duplex 1
scalar multiple_areas2.Router5.eth[1].mac "frames/sec sent" 0.194
scalar multiple_areas2.Router5.eth[1].mac "frames/sec rcvd" 0.202
scalar multiple_areas2.Router5.eth[1].mac "bits/sec sent" 172.128
scalar multiple_areas2.Router5.eth[1].mac "bits/sec rcvd" 167.008
scalar multiple_areas2.Router5.eth[1].mac "rx channel idle (%)" 99.999820064
scalar multiple_areas2.Router5.eth[1].mac "rx channel utilization (%)" 0.000179936
scalar multiple_areas2.Router5.eth[1].mac rxPausePkUnits:count 0
scalar multiple_areas2.Router5.eth[1].mac rxPausePkUnits:sum 0
scalar multiple_areas2.Router5.eth[1].mac txPausePkUnits:count 0
scalar multiple_areas2.Router5.eth[1].mac txPausePkUnits:sum 0
scalar multiple_areas2.Router5.eth[1].mac rxPkOk:count 101
scalar multiple_areas2.Router5.eth[1].mac rxPkOk:sum(packetBytes) 10438
scalar multiple_areas2.Router5.eth[1].mac txPk:count 97
scalar multiple_areas2.Router5.eth[1].mac txPk:sum(packetBytes) 10758
scalar multiple_areas2.Router5.eth[1].mac packetReceivedFromUpper:count 97
scalar multiple_areas2.Router5.eth[1].mac packetReceivedFromUpper:sum(packetBytes) 10758
scalar multiple_areas2.Router5.eth[1].mac passedUpPk:count 101
scalar multiple_areas2.Router5.eth[1].mac passedUpPk:sum(packetBytes) 10438
scalar multiple_areas2.Router5.eth[1].mac packetDropIncorrectlyReceived:count 0
scalar multiple_areas2.Router5.eth[1].mac packetDropIncorrectlyReceived:sum(packetBytes) 0
scalar multiple_areas2.Router5.eth[1].mac packetDropInterfaceDown:count 0
scalar multiple_areas2.Router5.eth[1].mac packetDropInterfaceDown:sum(packetBytes) 0
scalar multiple_areas2.Router5.eth[1].mac packetDropNotAddressedToUs:count 0
scalar multiple_areas2.Router5.eth[1].mac packetDropNotAddressedToUs:sum(packetBytes) 0
scalar multiple_areas2.Router5.eth[1] packetDropInterfaceDown:count 0
scalar multiple_areas2.Router5.eth[1] packetDropInterfaceDown:sum(packetBytes) 0
scalar multiple_areas2.Router5.eth[1] packetDropNoCarrier:count 0
scalar multiple_areas2.Router5.eth[1] packetDropNoCarrier:sum(packetBytes) 0
scalar multiple_areas2.Router5.ipv4.ip packetDropAddressResolutionFailed:count 0
scalar multiple_areas2.Router5.ipv4.ip packetDropAddressResolutionFailed:sum(packetBytes) 0
scalar multiple_areas2.Router5.ipv4.ip packetDropHopLimitReached:count 0
scalar multiple_areas2.Router5.ipv4.ip packetDropHopLimitReached:sum(packetBytes) 0
scalar multiple_areas2.Router5.ipv4.ip packetDropForwardingDisabled:count 0
scalar multiple_areas2.Router5.ipv4.ip packetDropForwardingDisabled:sum(packetBytes) 0
scalar multiple_areas2.Router5.ipv4.ip packetDropLifetimeExpired:count 0
scalar multiple_areas2.Router5.ipv4.ip packetDropLifetimeExpired:sum(packetBytes) 0
scalar multiple_areas2.Router5.ipv4.ip packetDropNoInterfaceFound:count 0
scalar multiple_areas2.Router5.ipv4.ip packetDropNoInterfaceFound:sum(packetBytes) 0
scalar multiple_areas2.Router5.ipv4.ip packetDropNoRouteFound:count 0
scalar multiple_areas2.Router5.ipv4.ip packetDropNoRouteFound:sum(packetBytes) 0
scalar multiple_areas2.Router5.ipv4.ip packetDropUndefined:count 0
scalar multiple_areas2.Router5.ipv4.ip packetDropUndefined:sum(packetBytes) 0
scalar multiple_areas2.Router5.ipv4.arp arpResolutionFailed:count 0
scalar multiple_areas2.Router5.ipv4.arp arpResolutionCompleted:count 0
scalar multiple_areas2.Router5.ipv4.arp arpResolutionInitiated:count 0
scalar multiple_areas2.Router5.ipv4.arp arpReplySent:count 0
scalar multiple_areas2.Router5.ipv4.arp arpReplySent:sum(packetBytes) 0
scalar multiple_areas2.Router5.ipv4.arp arpRequestSent:count 0
scalar multiple_areas2.Router5.ipv4.arp arpRequestSent:sum(packetBytes) 0
scalar multiple_areas2.Router5.ipv6.neighbourDiscovery startDad:count 0
scalar multiple_areas2.Router6.ethernet pauseSent:count 0
scalar multiple_areas2.Router6.ethernet pauseSent:sum 0
scalar multiple_areas2.Router6.ethernet decapPk:count 101
scalar multiple_areas2.Router6.ethernet decapPk:sum(packetBytes) 9244
scalar multiple_areas2.Router6.ethernet encapPk:count 154
scalar multiple_areas2.Router6.ethernet encapPk:sum(packetBytes) 12636
scalar multiple_areas2.Router6.lo[0].lo rcvdPkFromHl:count 0
scalar multiple_areas2.Router6.lo[0].lo rcvdPkFromHl:sum(packetBytes) 0
scalar multiple_areas2.Router6.lo[0].lo passedUpPk:count 0
scalar multiple_areas2.Router6.lo[0].lo passedUpPk:sum(packetBytes) 0
scalar multiple_areas2.Router6.lo[0] packetDropInterfaceDown:count 0
scalar multiple_areas2.Router6.lo[0] packetDropInterfaceDown:sum(packetBytes) 0
scalar multiple_areas2.Router6.lo[0] packetDropNoCarrier:count 0
scalar multiple_areas2.Router6.lo[0] packetDropNoCarrier:sum(packetBytes) 0
scalar multiple_areas2.Router6.eth[0].queue queueLength:last 0
scalar multiple_areas2.Router6.eth[0].queue queueLength:max 10
scalar multiple_areas2.Router6.eth[0].queue queueLength:timeavg 2.70204e-06
scalar multiple_areas2.Router6.eth[0].queue queueBitLength:last 0
scalar multiple_areas2.Router6.eth[0].queue queueBitLength:max 9856
scalar multiple_areas2.Router6.eth[0].queue queueBitLength:timeavg 0.00232216
scalar multiple_areas2.Router6.eth[0].queue outgoingPackets:count 97
scalar multiple_areas2.Router6.eth[0].queue outgoingPacketLengths:sum 80624
scalar multiple_areas2.Router6.eth[0].queue incomingPackets:count 97
scalar multiple_areas2.Router6.eth[0].queue incomingPacketLengths:sum 80624
scalar multiple_areas2.Router6.eth[0].queue droppedPacketsQueueOverflow:count 0
scalar multiple_areas2.Router6.eth[0].queue droppedPacketLengthsQueueOverflow:sum 0
scalar multiple_areas2.Router6.eth[0].mac "simulated time" 500
scalar multiple_areas2.Router6.eth[0].mac full-duplex 1
scalar multiple_areas2.Router6.eth[0].mac "frames/sec sent" 0.194
scalar multiple_areas2.Router6.eth[0].mac "frames/sec rcvd" 0.194
scalar multiple_areas2.Router6.eth[0].mac "bits/sec sent" 161.248
scalar multiple_areas2.Router6.eth[0].mac "bits/sec rcvd" 172.128
scalar multiple_areas2.Router6.eth[0].mac "rx channel idle (%)" 99.999815456
scalar multiple_areas2.Router6.eth[0].mac "rx channel utilization (%)" 0.000184544
scalar multiple_areas2.Router6.eth[0].mac rxPausePkUnits:count 0
scalar multiple_areas2.Router6.eth[0].mac rxPausePkUnits:sum 0
scalar multiple_areas2.Router6.eth[0].mac txPausePkUnits:count 0
scalar multiple_areas2.Router6.eth[0].mac txPausePkUnits:sum 0
scalar multiple_areas2.Router6.eth[0].mac rxPkOk:count 97
scalar multiple_areas2.Router6.eth[0].mac rxPkOk:sum(packetBytes) 10758
scalar multiple_areas2.Router6.eth[0].mac txPk:count 97
scalar multiple_areas2.Router6.eth[0].mac txPk:sum(packetBytes) 10078
scalar multiple_areas2.Router6.eth[0].mac packetReceivedFromUpper:count 97
scalar multiple_areas2.Router6.eth[0].mac packetReceivedFromUpper:sum(packetBytes) 10078
scalar multiple_areas2.Router6.eth[0].mac passedUpPk:count 97
scalar multiple_areas2.Router6.eth[0].mac passedUpPk:sum(packetBytes) 10758
scalar multiple_areas2.Router6.eth[0].mac packetDropIncorrectlyReceived:count 0
scalar multiple_areas2.Router6.eth[0].mac packetDropIncorrectlyReceived:sum(packetBytes) 0
scalar multiple_areas2.Router6.eth[0].mac packetDropInterfaceDown:count 0
scalar multiple_areas2.Router6.eth[0].mac packetDropInterfaceDown:sum(packetBytes) 0
scalar multiple_areas2.Router6.eth[0].mac packetDropNotAddressedToUs:count 0
scalar multiple_areas2.Router6.eth[0].mac packetDropNotAddressedToUs:sum(packetBytes) 0
scalar multiple_areas2.Router6.eth[0] packetDropInterfaceDown:count 0
scalar multiple_areas2.Router6.eth[0] packetDropInterfaceDown:sum(packetBytes) 0
scalar multiple_areas2.Router6.eth[0] packetDropNoCarrier:count 0
scalar multiple_areas2.Router6.eth[0] packetDropNoCarrier:sum(packetBytes) 0
scalar multiple_areas2.Router6.eth[1].queue queueLength:last 0
scalar multiple_areas2.Router6.eth[1].queue queueLength:max 0
scalar multiple_areas2.Router6.eth[1].queue queueLength:timeavg 0
scalar multiple_areas2.Router6.eth[1].queue queueBitLength:last 0
scalar multiple_areas2.Router6.eth[1].queue queueBitLength:max 0
scalar multiple_areas2.Router6.eth[1].queue queueBitLength:timeavg 0
scalar multiple_areas2.Router6.eth[1].queue outgoingPackets:count 57
scalar multiple_areas2.Router6.eth[1].queue outgoingPacketLengths:sum 42640
scalar multiple_areas2.Router6.eth[1].queue incomingPackets:count 57
scalar multiple_areas2.Router6.eth[1].queue incomingPacketLengths:sum 42640
scalar multiple_areas2.Router6.eth[1].queue droppedPacketsQueueOverflow:count 0
scalar multiple_areas2.Router6.eth[1].queue droppedPacketLengthsQueueOverflow:sum 0
scalar multiple_areas2.Router6.eth[1].mac "simulated time" 500
scalar multiple_areas2.Router6.eth[1].mac full-duplex 1
scalar multiple_areas2.Router6.eth[1].mac "frames/sec sent" 0.114
scalar multiple_areas2.Router6.eth[1].mac "frames/sec rcvd" 0.008
scalar multiple_areas2.Router6.eth[1].mac "bits/sec sent" 85.28
scalar multiple_areas2.Router6.eth[1].mac "bits/sec rcvd" 4.864
scalar multiple_areas2.Router6.eth[1].mac "rx channel idle (%)" 99.999994624
scalar multiple_areas2.Router6.eth[1].mac "rx channel utilization (%)" 5.376e-06
scalar multiple_areas2.Router6.eth[1].mac rxPausePkUnits:count 0
scalar multiple_areas2.Router6.eth[1].mac rxPausePkUnits:sum 0
scalar multiple_areas2.Router6.eth[1].mac txPausePkUnits:count 0
scalar multiple_areas2.Router6.eth[1].mac txPausePkUnits:sum 0
scalar multiple_areas2.Router6.eth[1].mac rxPkOk:count 4
scalar multiple_areas2.Router6.eth[1].mac rxPkOk:sum(packetBytes) 304
scalar multiple_areas2.Router6.eth[1].mac txPk:count 57
scalar multiple_areas2.Router6.eth[1].mac txPk:sum(packetBytes) 5330
scalar multiple_areas2.Router6.eth[1].mac packetReceivedFromUpper:count 57
scalar multiple_areas2.Router6.eth[1].mac packetReceivedFromUpper:sum(packetBytes) 5330
scalar multiple_areas2.Router6.eth[1].mac passedUpPk:count 4
scalar multiple_areas2.Router6.eth[1].mac passedUpPk:sum(packetBytes) 304
scalar multiple_areas2.Router6.eth[1].mac packetDropIncorrectlyReceived:count 0
scalar multiple_areas2.Router6.eth[1].mac packetDropIncorrectlyReceived:sum(packetBytes) 0
scalar multiple_areas2.Router6.eth[1].mac packetDropInterfaceDown:count 0
scalar multiple_areas2.Router6.eth[1].mac packetDropInterfaceDown:sum(packetBytes) 0
scalar multiple_areas2.Router6.eth[1].mac packetDropNotAddressedToUs:count 0
scalar multiple_areas2.Router6.eth[1].mac packetDropNotAddressedToUs:sum(packetBytes) 0
scalar multiple_areas2.Router6.eth[1] packetDropInterfaceDown:count 0
scalar multiple_areas2.Router6.eth[1] packetDropInterfaceDown:sum(packetBytes) 0
scalar multiple_areas2.Router6.eth[1] packetDropNoCarrier:count 0
scalar multiple_areas2.Router6.eth[1] packetDropNoCarrier:sum(packetBytes) 0
scalar multiple_areas2.Router6.ipv4.ip packetDropAddressResolutionFailed:count 0
scalar multiple_areas2.Router6.ipv4.ip packetDropAddressResolutionFailed:sum(packetBytes) 0
scalar multiple_areas2.Router6.ipv4.ip packetDropHopLimitReached:count 0
scalar multiple_areas2.Router6.ipv4.ip packetDropHopLimitReached:sum(packetBytes) 0
scalar multiple_areas2.Router6.ipv4.ip packetDropForwardingDisabled:count 0
scalar multiple_areas2.Router6.ipv4.ip packetDropForwardingDisabled:sum(packetBytes) 0
scalar multiple_areas2.Router6.ipv4.ip packetDropLifetimeExpired:count 0
scalar multiple_areas2.Router6.ipv4.ip packetDropLifetimeExpired:sum(packetBytes) 0
scalar multiple_areas2.Router6.ipv4.ip packetDropNoInterfaceFound:count 0
scalar multiple_areas2.Router6.ipv4.ip packetDropNoInterfaceFound:sum(packetBytes) 0
scalar multiple_areas2.Router6.ipv4.ip packetDropNoRouteFound:count 0
scalar multiple_areas2.Router6.ipv4.ip packetDropNoRouteFound:sum(packetBytes) 0
scalar multiple_areas2.Router6.ipv4.ip packetDropUndefined:count 0
scalar multiple_areas2.Router6.ipv4.ip packetDropUndefined:sum(packetBytes) 0
scalar multiple_areas2.Router6.ipv4.arp arpResolutionFailed:count 0
scalar multiple_areas2.Router6.ipv4.arp arpResolutionCompleted:count 0
scalar multiple_areas2.Router6.ipv4.arp arpResolutionInitiated:count 0
scalar multiple_areas2.Router6.ipv4.arp arpReplySent:count 0
scalar multiple_areas2.Router6.ipv4.arp arpReplySent:sum(packetBytes) 0
scalar multiple_areas2.Router6.ipv4.arp arpRequestSent:count 0
scalar multiple_areas2.Router6.ipv4.arp arpRequestSent:sum(packetBytes) 0
scalar multiple_areas2.Router6.ipv6.neighbourDiscovery startDad:count 0
scalar multiple_areas2.Router7.ethernet pauseSent:count 0
scalar multiple_areas2.Router7.ethernet pauseSent:sum 0
scalar multiple_areas2.Router7.ethernet decapPk:count 185
scalar multiple_areas2.Router7.ethernet decapPk:sum(packetBytes) 16356
scalar multiple_areas2.Router7.ethernet encapPk:count 297
scalar multiple_areas2.Router7.ethernet encapPk:sum(packetBytes) 24276
scalar multiple_areas2.Router7.lo[0].lo rcvdPkFromHl:count 0
scalar multiple_areas2.Router7.lo[0].lo rcvdPkFromHl:sum(packetBytes) 0
scalar multiple_areas2.Router7.lo[0].lo passedUpPk:count 0
scalar multiple_areas2.Router7.lo[0].lo passedUpPk:sum(packetBytes) 0
scalar multiple_areas2.Router7.lo[0] packetDropInterfaceDown:count 0
scalar multiple_areas2.Router7.lo[0] packetDropInterfaceDown:sum(packetBytes) 0
scalar multiple_areas2.Router7.lo[0] packetDropNoCarrier:count 0
scalar multiple_areas2.Router7.lo[0] packetDropNoCarrier:sum(packetBytes) 0
scalar multiple_areas2.Router7.eth[0].queue queueLength:last 0
scalar multiple_areas2.Router7.eth[0].queue queueLength:max 22
scalar multiple_areas2.Router7.eth[0].queue queueLength:timeavg 1.077472e-05
scalar multiple_areas2.Router7.eth[0].queue queueBitLength:last 0
scalar multiple_areas2.Router7.eth[0].queue queueBitLength:max 20832
scalar multiple_areas2.Router7.eth[0].queue queueBitLength:timeavg 0.0092632128
scalar multiple_areas2.Router7.eth[0].queue outgoingPackets:count 190
scalar multiple_areas2.Router7.eth[0].queue outgoingPacketLengths:sum 156736
scalar multiple_areas2.Router7.eth[0].queue incomingPackets:count 190
scalar multiple_areas2.Router7.eth[0].queue incomingPacketLengths:sum 156736
scalar multiple_areas2.Router7.eth[0].queue droppedPacketsQueueOverflow:count 0
scalar multiple_areas2.Router7.eth[0].queue droppedPacketLengthsQueueOverflow:sum 0
scalar multiple_areas2.Router7.eth[0].mac "simulated time" 500
scalar multiple_areas2.Router7.eth[0].mac full-duplex 1
scalar multiple_areas2.Router7.eth[0].mac "frames/sec sent" 0.38
scalar multiple_areas2.Router7.eth[0].mac "frames/sec rcvd" 0.362
scalar multiple_areas2.Router7.eth[0].mac "bits/sec sent" 313.472
scalar multiple_areas2.Router7.eth[0].mac "bits/sec rcvd" 310.112
scalar multiple_areas2.Router7.eth[0].mac "rx channel idle (%)" 99.99966672
scalar multiple_areas2.Router7.eth[0].mac "rx channel utilization (%)" 0.00033328
scalar multiple_areas2.Router7.eth[0].mac rxPausePkUnits:count 0
scalar multiple_areas2.Router7.eth[0].mac rxPausePkUnits:sum 0
scalar multiple_areas2.Router7.eth[0].mac txPausePkUnits:count 0
scalar multiple_areas2.Router7.eth[0].mac txPausePkUnits:sum 0
scalar multiple_areas2.Router7.eth[0].mac rxPkOk:count 181
scalar multiple_areas2.Router7.eth[0].mac rxPkOk:sum(packetBytes) 19382
scalar multiple_areas2.Router7.eth[0].mac txPk:count 190
scalar multiple_areas2.Router7.eth[0].mac txPk:sum(packetBytes) 19592
scalar multiple_areas2.Router7.eth[0].mac packetReceivedFromUpper:count 190
scalar multiple_areas2.Router7.eth[0].mac packetReceivedFromUpper:sum(packetBytes) 19592
scalar multiple_areas2.Router7.eth[0].mac passedUpPk:count 181
scalar multiple_areas2.Router7.eth[0].mac passedUpPk:sum(packetBytes) 19382
scalar multiple_areas2.Router7.eth[0].mac packetDropIncorrectlyReceived:count 0
scalar multiple_areas2.Router7.eth[0].mac packetDropIncorrectlyReceived:sum(packetBytes) 0
scalar multiple_areas2.Router7.eth[0].mac packetDropInterfaceDown:count 0
scalar multiple_areas2.Router7.eth[0].mac packetDropInterfaceDown:sum(packetBytes) 0
scalar multiple_areas2.Router7.eth[0].mac packetDropNotAddressedToUs:count 0
scalar multiple_areas2.Router7.eth[0].mac packetDropNotAddressedToUs:sum(packetBytes) 0
scalar multiple_areas2.Router7.eth[0] packetDropInterfaceDown:count 0
scalar multiple_areas2.Router7.eth[0] packetDropInterfaceDown:sum(packetBytes) 0
scalar multiple_areas2.Router7.eth[0] packetDropNoCarrier:count 0
scalar multiple_areas2.Router7.eth[0] packetDropNoCarrier:sum(packetBytes) 0
scalar multiple_areas2.Router7.eth[1].queue queueLength:last 0
scalar multiple_areas2.Router7.eth[1].queue queueLength:max 1
scalar multiple_areas2.Router7.eth[1].queue queueLength:timeavg 9.12e-07
scalar multiple_areas2.Router7.eth[1].queue queueBitLength:last 0
scalar multiple_areas2.Router7.eth[1].queue queueBitLength:max 752
scalar multiple_areas2.Router7.eth[1].queue queueBitLength:timeavg 0.000685824
scalar multiple_areas2.Router7.eth[1].queue outgoingPackets:count 107
scalar multiple_areas2.Router7.eth[1].queue outgoingPacketLengths:sum 80240
scalar multiple_areas2.Router7.eth[1].queue incomingPackets:count 107
scalar multiple_areas2.Router7.eth[1].queue incomingPacketLengths:sum 80240
scalar multiple_areas2.Router7.eth[1].queue droppedPacketsQueueOverflow:count 0
scalar multiple_areas2.Router7.eth[1].queue droppedPacketLengthsQueueOverflow:sum 0
scalar multiple_areas2.Router7.eth[1].mac "simulated time" 500
scalar multiple_areas2.Router7.eth[1].mac full-duplex 1
scalar multiple_areas2.Router7.eth[1].mac "frames/sec sent" 0.214
scalar multiple_areas2.Router7.eth[1].mac "frames/sec rcvd" 0.008
scalar multiple_areas2.Router7.eth[1].mac "bits/sec sent" 160.48
scalar multiple_areas2.Router7.eth[1].mac "bits/sec rcvd" 4.864
scalar multiple_areas2.Router7.eth[1].mac "rx channel idle (%)" 99.999994624
scalar multiple_areas2.Router7.eth[1].mac "rx channel utilization (%)" 5.376e-06
scalar multiple_areas2.Router7.eth[1].mac rxPausePkUnits:count 0
scalar multiple_areas2.Router7.eth[1].mac rxPausePkUnits:sum 0
scalar multiple_areas2.Router7.eth[1].mac txPausePkUnits:count 0
scalar multiple_areas2.Router7.eth[1].mac txPausePkUnits:sum 0
scalar multiple_areas2.Router7.eth[1].mac rxPkOk:count 4
scalar multiple_areas2.Router7.eth[1].mac rxPkOk:sum(packetBytes) 304
scalar multiple_areas2.Router7.eth[1].mac txPk:count 107
scalar multiple_areas2.Router7.eth[1].mac txPk:sum(packetBytes) 10030
scalar multiple_areas2.Router7.eth[1].mac packetReceivedFromUpper:count 107
scalar multiple_areas2.Router7.eth[1].mac packetReceivedFromUpper:sum(packetBytes) 10030
scalar multiple_areas2.Router7.eth[1].mac passedUpPk:count 4
scalar multiple_areas2.Router7.eth[1].mac passedUpPk:sum(packetBytes) 304
scalar multiple_areas2.Router7.eth[1].mac packetDropIncorrectlyReceived:count 0
scalar multiple_areas2.Router7.eth[1].mac packetDropIncorrectlyReceived:sum(packetBytes) 0
scalar multiple_areas2.Router7.eth[1].mac packetDropInterfaceDown:count 0
scalar multiple_areas2.Router7.eth[1].mac packetDropInterfaceDown:sum(packetBytes) 0
scalar multiple_areas2.Router7.eth[1].mac packetDropNotAddressedToUs:count 0
scalar multiple_areas2.Router7.eth[1].mac packetDropNotAddressedToUs:sum(packetBytes) 0
scalar multiple_areas2.Router7.eth[1] packetDropInterfaceDown:count 0
scalar multiple_areas2.Router7.eth[1] packetDropInterfaceDown:sum(packetBytes) 0
scalar multiple_areas2.Router7.eth[1] packetDropNoCarrier:count 0
scalar multiple_areas2.Router7.eth[1] packetDropNoCarrier:sum(packetBytes) 0
scalar multiple_areas2.Router7.ipv4.ip packetDropAddressResolutionFailed:count 0
scalar multiple_areas2.Router7.ipv4.ip packetDropAddressResolutionFailed:sum(packetBytes) 0
scalar multiple_areas2.Router7.ipv4.ip packetDropHopLimitReached:count 0
scalar multiple_areas2.Router7.ipv4.ip packetDropHopLimitReached:sum(packetBytes) 0
scalar multiple_areas2.Router7.ipv4.ip packetDropForwardingDisabled:count 0
scalar multiple_areas2.Router7.ipv4.ip packetDropForwardingDisabled:sum(packetBytes) 0
scalar multiple_areas2.Router7.ipv4.ip packetDropLifetimeExpired:count 0
scalar multiple_areas2.Router7.ipv4.ip packetDropLifetimeExpired:sum(packetBytes) 0
scalar multiple_areas2.Router7.ipv4.ip packetDropNoInterfaceFound:count 0
scalar multiple_areas2.Router7.ipv4.ip packetDropNoInterfaceFound:sum(packetBytes) 0
scalar multiple_areas2.Router7.ipv4.ip packetDropNoRouteFound:count 0
scalar multiple_areas2.Router7.ipv4.ip packetDropNoRouteFound:sum(packetBytes) 0
scalar multiple_areas2.Router7.ipv4.ip packetDropUndefined:count 0
scalar multiple_areas2.Router7.ipv4.ip packetDropUndefined:sum(packetBytes) 0
scalar multiple_areas2.Router7.ipv4.arp arpResolutionFailed:count 0
scalar multiple_areas2.Router7.ipv4.arp arpResolutionCompleted:count 0
scalar multiple_areas2.Router7.ipv4.arp arpResolutionInitiated:count 0
scalar multiple_areas2.Router7.ipv4.arp arpReplySent:count 0
scalar multiple_areas2.Router7.ipv4.arp arpReplySent:sum(packetBytes) 0
scalar multiple_areas2.Router7.ipv4.arp arpRequestSent:count 0
scalar multiple_areas2.Router7.ipv4.arp arpRequestSent:sum(packetBytes) 0
scalar multiple_areas2.Router7.ipv6.neighbourDiscovery startDad:count 0
scalar multiple_areas2.Router8.ethernet pauseSent:count 0
scalar multiple_areas2.Router8.ethernet pauseSent:sum 0
scalar multiple_areas2.Router8.ethernet decapPk:count 163
scalar multiple_areas2.Router8.ethernet decapPk:sum(packetBytes) 15372
scalar multiple_areas2.Router8.ethernet encapPk:count 320
scalar multiple_areas2.Router8.ethernet encapPk:sum(packetBytes) 27872
scalar multiple_areas2.Router8.lo[0].lo rcvdPkFromHl:count 0
scalar multiple_areas2.Router8.lo[0].lo rcvdPkFromHl:sum(packetBytes) 0
scalar multiple_areas2.Router8.lo[0].lo passedUpPk:count 0
scalar multiple_areas2.Router8.lo[0].lo passedUpPk:sum(packetBytes) 0
scalar multiple_areas2.Router8.lo[0] packetDropInterfaceDown:count 0
scalar multiple_areas2.Router8.lo[0] packetDropInterfaceDown:sum(packetBytes) 0
scalar multiple_areas2.Router8.lo[0] packetDropNoCarrier:count 0
scalar multiple_areas2.Router8.lo[0] packetDropNoCarrier:sum(packetBytes) 0
scalar multiple_areas2.Router8.eth[0].queue queueLength:last 0
scalar multiple_areas2.Router8.eth[0].queue queueLength:max 21
scalar multiple_areas2.Router8.eth[0].queue queueLength:timeavg 1.318532e-05
scalar multiple_areas2.Router8.eth[0].queue queueBitLength:last 0
scalar multiple_areas2.Router8.eth[0].queue queueBitLength:max 21040
scalar multiple_areas2.Router8.eth[0].queue queueBitLength:timeavg 0.01223238208
scalar multiple_areas2.Router8.eth[0].queue outgoingPackets:count 217
scalar multiple_areas2.Router8.eth[0].queue outgoingPacketLengths:sum 191696
scalar multiple_areas2.Router8.eth[0].queue incomingPackets:count 217
scalar multiple_areas2.Router8.eth[0].queue incomingPacketLengths:sum 191696
scalar multiple_areas2.Router8.eth[0].queue droppedPacketsQueueOverflow:count 0
scalar multiple_areas2.Router8.eth[0].queue droppedPacketLengthsQueueOverflow:sum 0
scalar multiple_areas2.Router8.eth[0].mac "simulated time" 500
scalar multiple_areas2.Router8.eth[0].mac full-duplex 1
scalar multiple_areas2.Router8.eth[0].mac "frames/sec sent" 0.346
scalar multiple_areas2.Router8.eth[0].mac "frames/sec rcvd" 0.318
scalar multiple_areas2.Router8.eth[0].mac "bits/sec sent" 316.832
scalar multiple_areas2.Router8.eth[0].mac "bits/sec rcvd" 288.032
scalar multiple_areas2.Router8.eth[0].mac "rx channel idle (%)" 99.999691616
scalar multiple_areas2.Router8.eth[0].mac "rx channel utilization (%)" 0.000308384
scalar multiple_areas2.Router8.eth[0].mac rxPausePkUnits:count 0
scalar multiple_areas2.Router8.eth[0].mac rxPausePkUnits:sum 0
scalar multiple_areas2.Router8.eth[0].mac txPausePkUnits:count 0
scalar multiple_areas2.Router8.eth[0].mac txPausePkUnits:sum 0
scalar multiple_areas2.Router8.eth[0].mac rxPkOk:count 159
scalar multiple_areas2.Router8.eth[0].mac rxPkOk:sum(packetBytes) 18002
scalar multiple_areas2.Router8.eth[0].mac txPk:count 173
scalar multiple_areas2.Router8.eth[0].mac txPk:sum(packetBytes) 19802
scalar multiple_areas2.Router8.eth[0].mac packetReceivedFromUpper:count 217
scalar multiple_areas2.Router8.eth[0].mac packetReceivedFromUpper:sum(packetBytes) 23962
scalar multiple_areas2.Router8.eth[0].mac passedUpPk:count 159
scalar multiple_areas2.Router8.eth[0].mac passedUpPk:sum(packetBytes) 18002
scalar multiple_areas2.Router8.eth[0].mac packetDropIncorrectlyReceived:count 0
scalar multiple_areas2.Router8.eth[0].mac packetDropIncorrectlyReceived:sum(packetBytes) 0
scalar multiple_areas2.Router8.eth[0].mac packetDropInterfaceDown:count 44
scalar multiple_areas2.Router8.eth[0].mac packetDropInterfaceDown:sum(packetBytes) 4160
scalar multiple_areas2.Router8.eth[0].mac packetDropNotAddressedToUs:count 0
scalar multiple_areas2.Router8.eth[0].mac packetDropNotAddressedToUs:sum(packetBytes) 0
scalar multiple_areas2.Router8.eth[0] packetDropInterfaceDown:count 44
scalar multiple_areas2.Router8.eth[0] packetDropInterfaceDown:sum(packetBytes) 4160
scalar multiple_areas2.Router8.eth[0] packetDropNoCarrier:count 0
scalar multiple_areas2.Router8.eth[0] packetDropNoCarrier:sum(packetBytes) 0
scalar multiple_areas2.Router8.eth[1].queue queueLength:last 0
scalar multiple_areas2.Router8.eth[1].queue queueLength:max 1
scalar multiple_areas2.Router8.eth[1].queue queueLength:timeavg 9.12e-07
scalar multiple_areas2.Router8.eth[1].queue queueBitLength:last 0
scalar multiple_areas2.Router8.eth[1].queue queueBitLength:max 752
scalar multiple_areas2.Router8.eth[1].queue queueBitLength:timeavg 0.000685824
scalar multiple_areas2.Router8.eth[1].queue outgoingPackets:count 103
scalar multiple_areas2.Router8.eth[1].queue outgoingPacketLengths:sum 77360
scalar multiple_areas2.Router8.eth[1].queue incomingPackets:count 103
scalar multiple_areas2.Router8.eth[1].queue incomingPacketLengths:sum 77360
scalar multiple_areas2.Router8.eth[1].queue droppedPacketsQueueOverflow:count 0
scalar multiple_areas2.Router8.eth[1].queue droppedPacketLengthsQueueOverflow:sum 0
scalar multiple_areas2.Router8.eth[1].mac "simulated time" 500
scalar multiple_areas2.Router8.eth[1].mac full-duplex 1
scalar multiple_areas2.Router8.eth[1].mac "frames/sec sent" 0.206
scalar multiple_areas2.Router8.eth[1].mac "frames/sec rcvd" 0.008
scalar multiple_areas2.Router8.eth[1].mac "bits/sec sent" 154.72
scalar multiple_areas2.Router8.eth[1].mac "bits/sec rcvd" 4.864
scalar multiple_areas2.Router8.eth[1].mac "rx channel idle (%)" 99.999994624
scalar multiple_areas2.Router8.eth[1].mac "rx channel utilization (%)" 5.376e-06
scalar multiple_areas2.Router8.eth[1].mac rxPausePkUnits:count 0
scalar multiple_areas2.Router8.eth[1].mac rxPausePkUnits:sum 0
scalar multiple_areas2.Router8.eth[1].mac txPausePkUnits:count 0
scalar multiple_areas2.Router8.eth[1].mac txPausePkUnits:sum 0
scalar multiple_areas2.Router8.eth[1].mac rxPkOk:count 4
scalar multiple_areas2.Router8.eth[1].mac rxPkOk:sum(packetBytes) 304
scalar multiple_areas2.Router8.eth[1].mac txPk:count 103
scalar multiple_areas2.Router8.eth[1].mac txPk:sum(packetBytes) 9670
scalar multiple_areas2.Router8.eth[1].mac packetReceivedFromUpper:count 103
scalar multiple_areas2.Router8.eth[1].mac packetReceivedFromUpper:sum(packetBytes) 9670
scalar multiple_areas2.Router8.eth[1].mac passedUpPk:count 4
scalar multiple_areas2.Router8.eth[1].mac passedUpPk:sum(packetBytes) 304
scalar multiple_areas2.Router8.eth[1].mac packetDropIncorrectlyReceived:count 0
scalar multiple_areas2.Router8.eth[1].mac packetDropIncorrectlyReceived:sum(packetBytes) 0
scalar multiple_areas2.Router8.eth[1].mac packetDropInterfaceDown:count 0
scalar multiple_areas2.Router8.eth[1].mac packetDropInterfaceDown:sum(packetBytes) 0
scalar multiple_areas2.Router8.eth[1].mac packetDropNotAddressedToUs:count 0
scalar multiple_areas2.Router8.eth[1].mac packetDropNotAddressedToUs:sum(packetBytes) 0
scalar multiple_areas2.Router8.eth[1] packetDropInterfaceDown:count 0
scalar multiple_areas2.Router8.eth[1] packetDropInterfaceDown:sum(packetBytes) 0
scalar multiple_areas2.Router8.eth[1] packetDropNoCarrier:count 0
scalar multiple_areas2.Router8.eth[1] packetDropNoCarrier:sum(packetBytes) 0
scalar multiple_areas2.Router8.ipv4.ip packetDropAddressResolutionFailed:count 0
scalar multiple_areas2.Router8.ipv4.ip packetDropAddressResolutionFailed:sum(packetBytes) 0
scalar multiple_areas2.Router8.ipv4.ip packetDropHopLimitReached:count 0
scalar multiple_areas2.Router8.ipv4.ip packetDropHopLimitReached:sum(packetBytes) 0
scalar multiple_areas2.Router8.ipv4.ip packetDropForwardingDisabled:count 0
scalar multiple_areas2.Router8.ipv4.ip packetDropForwardingDisabled:sum(packetBytes) 0
scalar multiple_areas2.Router8.ipv4.ip packetDropLifetimeExpired:count 0
scalar multiple_areas2.Router8.ipv4.ip packetDropLifetimeExpired:sum(packetBytes) 0
scalar multiple_areas2.Router8.ipv4.ip packetDropNoInterfaceFound:count 0
scalar multiple_areas2.Router8.ipv4.ip packetDropNoInterfaceFound:sum(packetBytes) 0
scalar multiple_areas2.Router8.ipv4.ip packetDropNoRouteFound:count 0
scalar multiple_areas2.Router8.ipv4.ip packetDropNoRouteFound:sum(packetBytes) 0
scalar multiple_areas2.Router8.ipv4.ip packetDropUndefined:count 0
scalar multiple_areas2.Router8.ipv4.ip packetDropUndefined:sum(packetBytes) 0
scalar multiple_areas2.Router8.ipv4.arp arpResolutionFailed:count 0
scalar multiple_areas2.Router8.ipv4.arp arpResolutionCompleted:count 0
scalar multiple_areas2.Router8.ipv4.arp arpResolutionInitiated:count 0
scalar multiple_areas2.Router8.ipv4.arp arpReplySent:count 0
scalar multiple_areas2.Router8.ipv4.arp arpReplySent:sum(packetBytes) 0
scalar multiple_areas2.Router8.ipv4.arp arpRequestSent:count 0
scalar multiple_areas2.Router8.ipv4.arp arpRequestSent:sum(packetBytes) 0
scalar multiple_areas2.Router8.ipv6.neighbourDiscovery startDad:count 0
scalar multiple_areas2.Router9.ethernet pauseSent:count 0
scalar multiple_areas2.Router9.ethernet pauseSent:sum 0
scalar multiple_areas2.Router9.ethernet decapPk:count 99
scalar multiple_areas2.Router9.ethernet decapPk:sum(packetBytes) 9100
scalar multiple_areas2.Router9.ethernet encapPk:count 158
scalar multiple_areas2.Router9.ethernet encapPk:sum(packetBytes) 12924
scalar multiple_areas2.Router9.lo[0].lo rcvdPkFromHl:count 0
scalar multiple_areas2.Router9.lo[0].lo rcvdPkFromHl:sum(packetBytes) 0
scalar multiple_areas2.Router9.lo[0].lo passedUpPk:count 0
scalar multiple_areas2.Router9.lo[0].lo passedUpPk:sum(packetBytes) 0
scalar multiple_areas2.Router9.lo[0] packetDropInterfaceDown:count 0
scalar multiple_areas2.Router9.lo[0] packetDropInterfaceDown:sum(packetBytes) 0
scalar multiple_areas2.Router9.lo[0] packetDropNoCarrier:count 0
scalar multiple_areas2.Router9.lo[0] packetDropNoCarrier:sum(packetBytes) 0
scalar multiple_areas2.Router9.eth[0].queue queueLength:last 0
scalar multiple_areas2.Router9.eth[0].queue queueLength:max 10
scalar multiple_areas2.Router9.eth[0].queue queueLength:timeavg 2.70204e-06
scalar multiple_areas2.Router9.eth[0].queue queueBitLength:last 0
scalar multiple_areas2.Router9.eth[0].queue queueBitLength:max 9856
scalar multiple_areas2.Router9.eth[0].queue queueBitLength:timeavg 0.00232216
scalar multiple_areas2.Router9.eth[0].queue outgoingPackets:count 101
scalar multiple_areas2.Router9.eth[0].queue outgoingPacketLengths:sum 83504
scalar multiple_areas2.Router9.eth[0].queue incomingPackets:count 101
scalar multiple_areas2.Router9.eth[0].queue incomingPacketLengths:sum 83504
scalar multiple_areas2.Router9.eth[0].queue droppedPacketsQueueOverflow:count 0
scalar multiple_areas2.Router9.eth[0].queue droppedPacketLengthsQueueOverflow:sum 0
scalar multiple_areas2.Router9.eth[0].mac "simulated time" 500
scalar multiple_areas2.Router9.eth[0].mac full-duplex 1
scalar multiple_areas2.Router9.eth[0].mac "frames/sec sent" 0.202
scalar multiple_areas2.Router9.eth[0].mac "frames/sec rcvd" 0.19
scalar multiple_areas2.Router9.eth[0].mac "bits/sec sent" 167.008
scalar multiple_areas2.Router9.eth[0].mac "bits/sec rcvd" 169.248
scalar multiple_areas2.Router9.eth[0].mac "rx channel idle (%)" 99.999818592
scalar multiple_areas2.Router9.eth[0].mac "rx channel utilization (%)" 0.000181408
scalar multiple_areas2.Router9.eth[0].mac rxPausePkUnits:count 0
scalar multiple_areas2.Router9.eth[0].mac rxPausePkUnits:sum 0
scalar multiple_areas2.Router9.eth[0].mac txPausePkUnits:count 0
scalar multiple_areas2.Router9.eth[0].mac txPausePkUnits:sum 0
scalar multiple_areas2.Router9.eth[0].mac rxPkOk:count 95
scalar multiple_areas2.Router9.eth[0].mac rxPkOk:sum(packetBytes) 10578
scalar multiple_areas2.Router9.eth[0].mac txPk:count 101
scalar multiple_areas2.Router9.eth[0].mac txPk:sum(packetBytes) 10438
scalar multiple_areas2.Router9.eth[0].mac packetReceivedFromUpper:count 101
scalar multiple_areas2.Router9.eth[0].mac packetReceivedFromUpper:sum(packetBytes) 10438
scalar multiple_areas2.Router9.eth[0].mac passedUpPk:count 95
scalar multiple_areas2.Router9.eth[0].mac passedUpPk:sum(packetBytes) 10578
scalar multiple_areas2.Router9.eth[0].mac packetDropIncorrectlyReceived:count 0
scalar multiple_areas2.Router9.eth[0].mac packetDropIncorrectlyReceived:sum(packetBytes) 0
scalar multiple_areas2.Router9.eth[0].mac packetDropInterfaceDown:count 0
scalar multiple_areas2.Router9.eth[0].mac packetDropInterfaceDown:sum(packetBytes) 0
scalar multiple_areas2.Router9.eth[0].mac packetDropNotAddressedToUs:count 0
scalar multiple_areas2.Router9.eth[0].mac packetDropNotAddressedToUs:sum(packetBytes) 0
scalar multiple_areas2.Router9.eth[0] packetDropInterfaceDown:count 0
scalar multiple_areas2.Router9.eth[0] packetDropInterfaceDown:sum(packetBytes) 0
scalar multiple_areas2.Router9.eth[0] packetDropNoCarrier:count 0
scalar multiple_areas2.Router9.eth[0] packetDropNoCarrier:sum(packetBytes) 0
scalar multiple_areas2.Router9.eth[1].queue queueLength:last 0
scalar multiple_areas2.Router9.eth[1].queue queueLength:max 0
scalar multiple_areas2.Router9.eth[1].queue queueLength:timeavg 0
scalar multiple_areas2.Router9.eth[1].queue queueBitLength:last 0
scalar multiple_areas2.Router9.eth[1].queue queueBitLength:max 0
scalar multiple_areas2.Router9.eth[1].queue queueBitLength:timeavg 0
scalar multiple_areas2.Router9.eth[1].queue outgoingPackets:count 57
scalar multiple_areas2.Router9.eth[1].queue outgoingPacketLengths:sum 42640
scalar multiple_areas2.Router9.eth[1].queue incomingPackets:count 57
scalar multiple_areas2.Router9.eth[1].queue incomingPacketLengths:sum 42640
scalar multiple_areas2.Router9.eth[1].queue droppedPacketsQueueOverflow:count 0
scalar multiple_areas2.Router9.eth[1].queue droppedPacketLengthsQueueOverflow:sum 0
scalar multiple_areas2.Router9.eth[1].mac "simulated time" 500
scalar multiple_areas2.Router9.eth[1].mac full-duplex 1
scalar multiple_areas2.Router9.eth[1].mac "frames/sec sent" 0.114
scalar multiple_areas2.Router9.eth[1].mac "frames/sec rcvd" 0.008
scalar multiple_areas2.Router9.eth[1].mac "bits/sec sent" 85.28
scalar multiple_areas2.Router9.eth[1].mac "bits/sec rcvd" 4.864
scalar multiple_areas2.Router9.eth[1].mac "rx channel idle (%)" 99.999994624
scalar multiple_areas2.Router9.eth[1].mac "rx channel utilization (%)" 5.376e-06
scalar multiple_areas2.Router9.eth[1].mac rxPausePkUnits:count 0
scalar multiple_areas2.Router9.eth[1].mac rxPausePkUnits:sum 0
scalar multiple_areas2.Router9.eth[1].mac txPausePkUnits:count 0
scalar multiple_areas2.Router9.eth[1].mac txPausePkUnits:sum 0
scalar multiple_areas2.Router9.eth[1].mac rxPkOk:count 4
scalar multiple_areas2.Router9.eth[1].mac rxPkOk:sum(packetBytes) 304
scalar multiple_areas2.Router9.eth[1].mac txPk:count 57
scalar multiple_areas2.Router9.eth[1].mac txPk:sum(packetBytes) 5330
scalar multiple_areas2.Router9.eth[1].mac packetReceivedFromUpper:count 57
scalar multiple_areas2.Router9.eth[1].mac packetReceivedFromUpper:sum(packetBytes) 5330
scalar multiple_areas2.Router9.eth[1].mac passedUpPk:count 4
scalar multiple_areas2.Router9.eth[1].mac passedUpPk:sum(packetBytes) 304
scalar multiple_areas2.Router9.eth[1].mac packetDropIncorrectlyReceived:count 0
scalar multiple_areas2.Router9.eth[1].mac packetDropIncorrectlyReceived:sum(packetBytes) 0
scalar multiple_areas2.Router9.eth[1].mac packetDropInterfaceDown:count 0
scalar multiple_areas2.Router9.eth[1].mac packetDropInterfaceDown:sum(packetBytes) 0
scalar multiple_areas2.Router9.eth[1].mac packetDropNotAddressedToUs:count 0
scalar multiple_areas2.Router9.eth[1].mac packetDropNotAddressedToUs:sum(packetBytes) 0
scalar multiple_areas2.Router9.eth[1] packetDropInterfaceDown:count 0
scalar multiple_areas2.Router9.eth[1] packetDropInterfaceDown:sum(packetBytes) 0
scalar multiple_areas2.Router9.eth[1] packetDropNoCarrier:count 0
scalar multiple_areas2.Router9.eth[1] packetDropNoCarrier:sum(packetBytes) 0
scalar multiple_areas2.Router9.ipv4.ip packetDropAddressResolutionFailed:count 0
scalar multiple_areas2.Router9.ipv4.ip packetDropAddressResolutionFailed:sum(packetBytes) 0
scalar multiple_areas2.Router9.ipv4.ip packetDropHopLimitReached:count 0
scalar multiple_areas2.Router9.ipv4.ip packetDropHopLimitReached:sum(packetBytes) 0
scalar multiple_areas2.Router9.ipv4.ip packetDropForwardingDisabled:count 0
scalar multiple_areas2.Router9.ipv4.ip packetDropForwardingDisabled:sum(packetBytes) 0
scalar multiple_areas2.Router9.ipv4.ip packetDropLifetimeExpired:count 0
scalar multiple_areas2.Router9.ipv4.ip packetDropLifetimeExpired:sum(packetBytes) 0
scalar multiple_areas2.Router9.ipv4.ip packetDropNoInterfaceFound:count 0
[...]
scalar multiple_areas2.Host5.eth[0].mac txPk:vector(packetBytes):sum 304
scalar multiple_areas2.Host5.eth[0].mac txPk:vector(packetBytes):sumweights 4
scalar multiple_areas2.Host5.eth[0].mac txPk:vector(packetBytes):mean 76
scalar multiple_areas2.Host5.eth[0].mac txPk:vector(packetBytes):stddev 4
scalar multiple_areas2.Host5.eth[0].mac txPk:vector(packetBytes):min 74
scalar multiple_areas2.Host5.eth[0].mac txPk:vector(packetBytes):max 82
scalar multiple_areas2.Host5.eth[0].mac txPk:vector(packetBytes):starttime 0.770167599191
scalar multiple_areas2.Host5.eth[0].mac txPk:vector(packetBytes):endtime 11.354335835247
scalar multiple_areas2.Host5.eth[0].mac rxPkOk:vector(packetBytes):count 57
scalar multiple_areas2.Host5.eth[0].mac rxPkOk:vector(packetBytes):sum 5330
scalar multiple_areas2.Host5.eth[0].mac rxPkOk:vector(packetBytes):sumweights 57
scalar multiple_areas2.Host5.eth[0].mac rxPkOk:vector(packetBytes):mean 93.508771929825
scalar multiple_areas2.Host5.eth[0].mac rxPkOk:vector(packetBytes):stddev 1.3245323570652
scalar multiple_areas2.Host5.eth[0].mac rxPkOk:vector(packetBytes):min 90
scalar multiple_areas2.Host5.eth[0].mac rxPkOk:vector(packetBytes):max 94
scalar multiple_areas2.Host5.eth[0].mac rxPkOk:vector(packetBytes):starttime 3.680913891346
scalar multiple_areas2.Host5.eth[0].mac rxPkOk:vector(packetBytes):endtime 495.00000826
scalar multiple_areas2.Host5.eth[0].mac passedUpPk:vector(packetBytes):count 57
scalar multiple_areas2.Host5.eth[0].mac passedUpPk:vector(packetBytes):sum 5330
scalar multiple_areas2.Host5.eth[0].mac passedUpPk:vector(packetBytes):sumweights 57
scalar multiple_areas2.Host5.eth[0].mac passedUpPk:vector(packetBytes):mean 93.508771929825
scalar multiple_areas2.Host5.eth[0].mac passedUpPk:vector(packetBytes):stddev 1.3245323570652
scalar multiple_areas2.Host5.eth[0].mac passedUpPk:vector(packetBytes):min 90
scalar multiple_areas2.Host5.eth[0].mac passedUpPk:vector(packetBytes):max 94
scalar multiple_areas2.Host5.eth[0].mac passedUpPk:vector(packetBytes):starttime 3.680913891346
scalar multiple_areas2.Host5.eth[0].mac passedUpPk:vector(packetBytes):endtime 495.00000826
scalar multiple_areas2.Host5.eth[0].mac txPausePkUnits:vector:count 0
scalar multiple_areas2.Host5.eth[0].mac txPausePkUnits:vector:sum 0
scalar multiple_areas2.Host5.eth[0].mac txPausePkUnits:vector:sumweights 0
scalar multiple_areas2.Host5.eth[0].mac txPausePkUnits:vector:mean -nan
scalar multiple_areas2.Host5.eth[0].mac txPausePkUnits:vector:stddev nan
scalar multiple_areas2.Host5.eth[0].mac txPausePkUnits:vector:min inf
scalar multiple_areas2.Host5.eth[0].mac txPausePkUnits:vector:max -inf
scalar multiple_areas2.Host5.eth[0].mac txPausePkUnits:vector:starttime nan
scalar multiple_areas2.Host5.eth[0].mac txPausePkUnits:vector:endtime nan
scalar multiple_areas2.Host5.eth[0].mac rxPausePkUnits:vector:count 0
scalar multiple_areas2.Host5.eth[0].mac rxPausePkUnits:vector:sum 0
scalar multiple_areas2.Host5.eth[0].mac rxPausePkUnits:vector:sumweights 0
scalar multiple_areas2.Host5.eth[0].mac rxPausePkUnits:vector:mean -nan
scalar multiple_areas2.Host5.eth[0].mac rxPausePkUnits:vector:stddev nan
scalar multiple_areas2.Host5.eth[0].mac rxPausePkUnits:vector:min inf
scalar multiple_areas2.Host5.eth[0].mac rxPausePkUnits:vector:max -inf
scalar multiple_areas2.Host5.eth[0].mac rxPausePkUnits:vector:starttime nan
scalar multiple_areas2.Host5.eth[0].mac rxPausePkUnits:vector:endtime nan
scalar multiple_areas2.Host5.eth[0].mac packetReceivedFromUpper:vector(packetBytes):count 4
scalar multiple_areas2.Host5.eth[0].mac packetReceivedFromUpper:vector(packetBytes):sum 304
scalar multiple_areas2.Host5.eth[0].mac packetReceivedFromUpper:vector(packetBytes):sumweights 4
scalar multiple_areas2.Host5.eth[0].mac packetReceivedFromUpper:vector(packetBytes):mean 76
scalar multiple_areas2.Host5.eth[0].mac packetReceivedFromUpper:vector(packetBytes):stddev 4
scalar multiple_areas2.Host5.eth[0].mac packetReceivedFromUpper:vector(packetBytes):min 74
scalar multiple_areas2.Host5.eth[0].mac packetReceivedFromUpper:vector(packetBytes):max 82
scalar multiple_areas2.Host5.eth[0].mac packetReceivedFromUpper:vector(packetBytes):starttime 0.770160399191
scalar multiple_areas2.Host5.eth[0].mac packetReceivedFromUpper:vector(packetBytes):endtime 11.354329275247
scalar multiple_areas2.Host5.eth[0].mac packetDropIncorrectlyReceived:vector(packetBytes):count 0
scalar multiple_areas2.Host5.eth[0].mac packetDropIncorrectlyReceived:vector(packetBytes):sum 0
scalar multiple_areas2.Host5.eth[0].mac packetDropIncorrectlyReceived:vector(packetBytes):sumweights 0
scalar multiple_areas2.Host5.eth[0].mac packetDropIncorrectlyReceived:vector(packetBytes):mean -nan
scalar multiple_areas2.Host5.eth[0].mac packetDropIncorrectlyReceived:vector(packetBytes):stddev nan
scalar multiple_areas2.Host5.eth[0].mac packetDropIncorrectlyReceived:vector(packetBytes):min inf
scalar multiple_areas2.Host5.eth[0].mac packetDropIncorrectlyReceived:vector(packetBytes):max -inf
scalar multiple_areas2.Host5.eth[0].mac packetDropIncorrectlyReceived:vector(packetBytes):starttime nan
scalar multiple_areas2.Host5.eth[0].mac packetDropIncorrectlyReceived:vector(packetBytes):endtime nan
scalar multiple_areas2.Host5.eth[0].mac packetDropInterfaceDown:vector(packetBytes):count 0
scalar multiple_areas2.Host5.eth[0].mac packetDropInterfaceDown:vector(packetBytes):sum 0
scalar multiple_areas2.Host5.eth[0].mac packetDropInterfaceDown:vector(packetBytes):sumweights 0
scalar multiple_areas2.Host5.eth[0].mac packetDropInterfaceDown:vector(packetBytes):mean -nan
scalar multiple_areas2.Host5.eth[0].mac packetDropInterfaceDown:vector(packetBytes):stddev nan
scalar multiple_areas2.Host5.eth[0].mac packetDropInterfaceDown:vector(packetBytes):min inf
scalar multiple_areas2.Host5.eth[0].mac packetDropInterfaceDown:vector(packetBytes):max -inf
scalar multiple_areas2.Host5.eth[0].mac packetDropInterfaceDown:vector(packetBytes):starttime nan
scalar multiple_areas2.Host5.eth[0].mac packetDropInterfaceDown:vector(packetBytes):endtime nan
scalar multiple_areas2.Host5.eth[0].mac packetDropNotAddressedToUs:vector(packetBytes):count 0
scalar multiple_areas2.Host5.eth[0].mac packetDropNotAddressedToUs:vector(packetBytes):sum 0
scalar multiple_areas2.Host5.eth[0].mac packetDropNotAddressedToUs:vector(packetBytes):sumweights 0
scalar multiple_areas2.Host5.eth[0].mac packetDropNotAddressedToUs:vector(packetBytes):mean -nan
scalar multiple_areas2.Host5.eth[0].mac packetDropNotAddressedToUs:vector(packetBytes):stddev nan
scalar multiple_areas2.Host5.eth[0].mac packetDropNotAddressedToUs:vector(packetBytes):min inf
scalar multiple_areas2.Host5.eth[0].mac packetDropNotAddressedToUs:vector(packetBytes):max -inf
scalar multiple_areas2.Host5.eth[0].mac packetDropNotAddressedToUs:vector(packetBytes):starttime nan
scalar multiple_areas2.Host5.eth[0].mac packetDropNotAddressedToUs:vector(packetBytes):endtime nan
scalar multiple_areas2.Host5.eth[0] packetDropInterfaceDown:vector(packetBytes):count 0
scalar multiple_areas2.Host5.eth[0] packetDropInterfaceDown:vector(packetBytes):sum 0
scalar multiple_areas2.Host5.eth[0] packetDropInterfaceDown:vector(packetBytes):sumweights 0
scalar multiple_areas2.Host5.eth[0] packetDropInterfaceDown:vector(packetBytes):mean -nan
scalar multiple_areas2.Host5.eth[0] packetDropInterfaceDown:vector(packetBytes):stddev nan
scalar multiple_areas2.Host5.eth[0] packetDropInterfaceDown:vector(packetBytes):min inf
scalar multiple_areas2.Host5.eth[0] packetDropInterfaceDown:vector(packetBytes):max -inf
scalar multiple_areas2.Host5.eth[0] packetDropInterfaceDown:vector(packetBytes):starttime nan
scalar multiple_areas2.Host5.eth[0] packetDropInterfaceDown:vector(packetBytes):endtime nan
scalar multiple_areas2.Host5.eth[0] packetDropNoCarrier:vector(packetBytes):count 0
scalar multiple_areas2.Host5.eth[0] packetDropNoCarrier:vector(packetBytes):sum 0
scalar multiple_areas2.Host5.eth[0] packetDropNoCarrier:vector(packetBytes):sumweights 0
scalar multiple_areas2.Host5.eth[0] packetDropNoCarrier:vector(packetBytes):mean -nan
scalar multiple_areas2.Host5.eth[0] packetDropNoCarrier:vector(packetBytes):stddev nan
scalar multiple_areas2.Host5.eth[0] packetDropNoCarrier:vector(packetBytes):min inf
scalar multiple_areas2.Host5.eth[0] packetDropNoCarrier:vector(packetBytes):max -inf
scalar multiple_areas2.Host5.eth[0] packetDropNoCarrier:vector(packetBytes):starttime nan
scalar multiple_areas2.Host5.eth[0] packetDropNoCarrier:vector(packetBytes):endtime nan
scalar multiple_areas2.Host5.ipv4.ip packetDropAddressResolutionFailed:vector(packetBytes):count 0
scalar multiple_areas2.Host5.ipv4.ip packetDropAddressResolutionFailed:vector(packetBytes):sum 0
scalar multiple_areas2.Host5.ipv4.ip packetDropAddressResolutionFailed:vector(packetBytes):sumweights 0
scalar multiple_areas2.Host5.ipv4.ip packetDropAddressResolutionFailed:vector(packetBytes):mean -nan
scalar multiple_areas2.Host5.ipv4.ip packetDropAddressResolutionFailed:vector(packetBytes):stddev nan
scalar multiple_areas2.Host5.ipv4.ip packetDropAddressResolutionFailed:vector(packetBytes):min inf
scalar multiple_areas2.Host5.ipv4.ip packetDropAddressResolutionFailed:vector(packetBytes):max -inf
scalar multiple_areas2.Host5.ipv4.ip packetDropAddressResolutionFailed:vector(packetBytes):starttime nan
scalar multiple_areas2.Host5.ipv4.ip packetDropAddressResolutionFailed:vector(packetBytes):endtime nan
scalar multiple_areas2.Host5.ipv4.ip packetDropHopLimitReached:vector(packetBytes):count 0
scalar multiple_areas2.Host5.ipv4.ip packetDropHopLimitReached:vector(packetBytes):sum 0
scalar multiple_areas2.Host5.ipv4.ip packetDropHopLimitReached:vector(packetBytes):sumweights 0
scalar multiple_areas2.Host5.ipv4.ip packetDropHopLimitReached:vector(packetBytes):mean -nan
scalar multiple_areas2.Host5.ipv4.ip packetDropHopLimitReached:vector(packetBytes):stddev nan
scalar multiple_areas2.Host5.ipv4.ip packetDropHopLimitReached:vector(packetBytes):min inf
scalar multiple_areas2.Host5.ipv4.ip packetDropHopLimitReached:vector(packetBytes):max -inf
scalar multiple_areas2.Host5.ipv4.ip packetDropHopLimitReached:vector(packetBytes):starttime nan
scalar multiple_areas2.Host5.ipv4.ip packetDropHopLimitReached:vector(packetBytes):endtime nan
scalar multiple_areas2.Host5.ipv4.ip packetDropForwardingDisabled:vector(packetBytes):count 0
scalar multiple_areas2.Host5.ipv4.ip packetDropForwardingDisabled:vector(packetBytes):sum 0
scalar multiple_areas2.Host5.ipv4.ip packetDropForwardingDisabled:vector(packetBytes):sumweights 0
scalar multiple_areas2.Host5.ipv4.ip packetDropForwardingDisabled:vector(packetBytes):mean -nan
scalar multiple_areas2.Host5.ipv4.ip packetDropForwardingDisabled:vector(packetBytes):stddev nan
scalar multiple_areas2.Host5.ipv4.ip packetDropForwardingDisabled:vector(packetBytes):min inf
scalar multiple_areas2.Host5.ipv4.ip packetDropForwardingDisabled:vector(packetBytes):max -inf
scalar multiple_areas2.Host5.ipv4.ip packetDropForwardingDisabled:vector(packetBytes):starttime nan
scalar multiple_areas2.Host5.ipv4.ip packetDropForwardingDisabled:vector(packetBytes):endtime nan
scalar multiple_areas2.Host5.ipv4.ip packetDropLifetimeExpired:vector(packetBytes):count 0
scalar multiple_areas2.Host5.ipv4.ip packetDropLifetimeExpired:vector(packetBytes):sum 0
scalar multiple_areas2.Host5.ipv4.ip packetDropLifetimeExpired:vector(packetBytes):sumweights 0
scalar multiple_areas2.Host5.ipv4.ip packetDropLifetimeExpired:vector(packetBytes):mean -nan
scalar multiple_areas2.Host5.ipv4.ip packetDropLifetimeExpired:vector(packetBytes):stddev nan
scalar multiple_areas2.Host5.ipv4.ip packetDropLifetimeExpired:vector(packetBytes):min inf
scalar multiple_areas2.Host5.ipv4.ip packetDropLifetimeExpired:vector(packetBytes):max -inf
scalar multiple_areas2.Host5.ipv4.ip packetDropLifetimeExpired:vector(packetBytes):starttime nan
scalar multiple_areas2.Host5.ipv4.ip packetDropLifetimeExpired:vector(packetBytes):endtime nan
scalar multiple_areas2.Host5.ipv4.ip packetDropNoInterfaceFound:vector(packetBytes):count 0
scalar multiple_areas2.Host5.ipv4.ip packetDropNoInterfaceFound:vector(packetBytes):sum 0
scalar multiple_areas2.Host5.ipv4.ip packetDropNoInterfaceFound:vector(packetBytes):sumweights 0
scalar multiple_areas2.Host5.ipv4.ip packetDropNoInterfaceFound:vector(packetBytes):mean -nan
scalar multiple_areas2.Host5.ipv4.ip packetDropNoInterfaceFound:vector(packetBytes):stddev nan
scalar multiple_areas2.Host5.ipv4.ip packetDropNoInterfaceFound:vector(packetBytes):min inf
scalar multiple_areas2.Host5.ipv4.ip packetDropNoInterfaceFound:vector(packetBytes):max -inf
scalar multiple_areas2.Host5.ipv4.ip packetDropNoInterfaceFound:vector(packetBytes):starttime nan
scalar multiple_areas2.Host5.ipv4.ip packetDropNoInterfaceFound:vector(packetBytes):endtime nan
scalar multiple_areas2.Host5.ipv4.ip packetDropNoRouteFound:vector(packetBytes):count 0
scalar multiple_areas2.Host5.ipv4.ip packetDropNoRouteFound:vector(packetBytes):sum 0
scalar multiple_areas2.Host5.ipv4.ip packetDropNoRouteFound:vector(packetBytes):sumweights 0
scalar multiple_areas2.Host5.ipv4.ip packetDropNoRouteFound:vector(packetBytes):mean -nan
scalar multiple_areas2.Host5.ipv4.ip packetDropNoRouteFound:vector(packetBytes):stddev nan
scalar multiple_areas2.Host5.ipv4.ip packetDropNoRouteFound:vector(packetBytes):min inf
scalar multiple_areas2.Host5.ipv4.ip packetDropNoRouteFound:vector(packetBytes):max -inf
scalar multiple_areas2.Host5.ipv4.ip packetDropNoRouteFound:vector(packetBytes):starttime nan
scalar multiple_areas2.Host5.ipv4.ip packetDropNoRouteFound:vector(packetBytes):endtime nan
scalar multiple_areas2.Host5.ipv4.ip packetDropUndefined:vector(packetBytes):count 0
scalar multiple_areas2.Host5.ipv4.ip packetDropUndefined:vector(packetBytes):sum 0
scalar multiple_areas2.Host5.ipv4.ip packetDropUndefined:vector(packetBytes):sumweights 0
scalar multiple_areas2.Host5.ipv4.ip packetDropUndefined:vector(packetBytes):mean -nan
scalar multiple_areas2.Host5.ipv4.ip packetDropUndefined:vector(packetBytes):stddev nan
scalar multiple_areas2.Host5.ipv4.ip packetDropUndefined:vector(packetBytes):min inf
scalar multiple_areas2.Host5.ipv4.ip packetDropUndefined:vector(packetBytes):max -inf
scalar multiple_areas2.Host5.ipv4.ip packetDropUndefined:vector(packetBytes):starttime nan
scalar multiple_areas2.Host5.ipv4.ip packetDropUndefined:vector(packetBytes):endtime nan
scalar multiple_areas2.Host5.ipv4.arp arpRequestSent:vector(packetBytes):count 0
scalar multiple_areas2.Host5.ipv4.arp arpRequestSent:vector(packetBytes):sum 0
scalar multiple_areas2.Host5.ipv4.arp arpRequestSent:vector(packetBytes):sumweights 0
scalar multiple_areas2.Host5.ipv4.arp arpRequestSent:vector(packetBytes):mean -nan
scalar multiple_areas2.Host5.ipv4.arp arpRequestSent:vector(packetBytes):stddev nan
scalar multiple_areas2.Host5.ipv4.arp arpRequestSent:vector(packetBytes):min inf
scalar multiple_areas2.Host5.ipv4.arp arpRequestSent:vector(packetBytes):max -inf
scalar multiple_areas2.Host5.ipv4.arp arpRequestSent:vector(packetBytes):starttime nan
scalar multiple_areas2.Host5.ipv4.arp arpRequestSent:vector(packetBytes):endtime nan
scalar multiple_areas2.Host5.ipv4.arp arpReplySent:vector(packetBytes):count 0
scalar multiple_areas2.Host5.ipv4.arp arpReplySent:vector(packetBytes):sum 0
scalar multiple_areas2.Host5.ipv4.arp arpReplySent:vector(packetBytes):sumweights 0
scalar multiple_areas2.Host5.ipv4.arp arpReplySent:vector(packetBytes):mean -nan
scalar multiple_areas2.Host5.ipv4.arp arpReplySent:vector(packetBytes):stddev nan
scalar multiple_areas2.Host5.ipv4.arp arpReplySent:vector(packetBytes):min inf
scalar multiple_areas2.Host5.ipv4.arp arpReplySent:vector(packetBytes):max -inf
scalar multiple_areas2.Host5.ipv4.arp arpReplySent:vector(packetBytes):starttime nan
scalar multiple_areas2.Host5.ipv4.arp arpReplySent:vector(packetBytes):endtime nan
scalar multiple_areas2.Host5.ipv6.neighbourDiscovery startDad:vector:count 1
scalar multiple_areas2.Host5.ipv6.neighbourDiscovery startDad:vector:sum 1
scalar multiple_areas2.Host5.ipv6.neighbourDiscovery startDad:vector:sumweights 1
scalar multiple_areas2.Host5.ipv6.neighbourDiscovery startDad:vector:mean 1
scalar multiple_areas2.Host5.ipv6.neighbourDiscovery startDad:vector:stddev nan
scalar multiple_areas2.Host5.ipv6.neighbourDiscovery startDad:vector:min 1
scalar multiple_areas2.Host5.ipv6.neighbourDiscovery startDad:vector:max 1
scalar multiple_areas2.Host5.ipv6.neighbourDiscovery startDad:vector:starttime 0.770160399191
scalar multiple_areas2.Host5.ipv6.neighbourDiscovery startDad:vector:endtime 0.770160399191
scalar multiple_areas2.Host5.udp packetSent:vector(packetBytes):count 0
scalar multiple_areas2.Host5.udp packetSent:vector(packetBytes):sum 0
scalar multiple_areas2.Host5.udp packetSent:vector(packetBytes):sumweights 0
scalar multiple_areas2.Host5.udp packetSent:vector(packetBytes):mean -nan
scalar multiple_areas2.Host5.udp packetSent:vector(packetBytes):stddev nan
scalar multiple_areas2.Host5.udp packetSent:vector(packetBytes):min inf
scalar multiple_areas2.Host5.udp packetSent:vector(packetBytes):max -inf
scalar multiple_areas2.Host5.udp packetSent:vector(packetBytes):starttime nan
scalar multiple_areas2.Host5.udp packetSent:vector(packetBytes):endtime nan
scalar multiple_areas2.Host5.udp packetReceived:vector(packetBytes):count 0
scalar multiple_areas2.Host5.udp packetReceived:vector(packetBytes):sum 0
scalar multiple_areas2.Host5.udp packetReceived:vector(packetBytes):sumweights 0
scalar multiple_areas2.Host5.udp packetReceived:vector(packetBytes):mean -nan
scalar multiple_areas2.Host5.udp packetReceived:vector(packetBytes):stddev nan
scalar multiple_areas2.Host5.udp packetReceived:vector(packetBytes):min inf
scalar multiple_areas2.Host5.udp packetReceived:vector(packetBytes):max -inf
scalar multiple_areas2.Host5.udp packetReceived:vector(packetBytes):starttime nan
scalar multiple_areas2.Host5.udp packetReceived:vector(packetBytes):endtime nan
scalar multiple_areas2.Host5.udp passedUpPk:vector(count):count 1
scalar multiple_areas2.Host5.udp passedUpPk:vector(count):sum 0
scalar multiple_areas2.Host5.udp passedUpPk:vector(count):sumweights 1
scalar multiple_areas2.Host5.udp passedUpPk:vector(count):mean 0
scalar multiple_areas2.Host5.udp passedUpPk:vector(count):stddev nan
scalar multiple_areas2.Host5.udp passedUpPk:vector(count):min 0
scalar multiple_areas2.Host5.udp passedUpPk:vector(count):max 0
scalar multiple_areas2.Host5.udp passedUpPk:vector(count):starttime 0
scalar multiple_areas2.Host5.udp passedUpPk:vector(count):endtime 0
scalar multiple_areas2.Host5.udp droppedPkWrongPort:vector(count):count 1
scalar multiple_areas2.Host5.udp droppedPkWrongPort:vector(count):sum 0
scalar multiple_areas2.Host5.udp droppedPkWrongPort:vector(count):sumweights 1
scalar multiple_areas2.Host5.udp droppedPkWrongPort:vector(count):mean 0
scalar multiple_areas2.Host5.udp droppedPkWrongPort:vector(count):stddev nan
scalar multiple_areas2.Host5.udp droppedPkWrongPort:vector(count):min 0
scalar multiple_areas2.Host5.udp droppedPkWrongPort:vector(count):max 0
scalar multiple_areas2.Host5.udp droppedPkWrongPort:vector(count):starttime 0
scalar multiple_areas2.Host5.udp droppedPkWrongPort:vector(count):endtime 0
scalar multiple_areas2.Host5.udp droppedPkBadChecksum:vector(count):count 1
scalar multiple_areas2.Host5.udp droppedPkBadChecksum:vector(count):sum 0
scalar multiple_areas2.Host5.udp droppedPkBadChecksum:vector(count):sumweights 1
scalar multiple_areas2.Host5.udp droppedPkBadChecksum:vector(count):mean 0
scalar multiple_areas2.Host5.udp droppedPkBadChecksum:vector(count):stddev nan
scalar multiple_areas2.Host5.udp droppedPkBadChecksum:vector(count):min 0
scalar multiple_areas2.Host5.udp droppedPkBadChecksum:vector(count):max 0
scalar multiple_areas2.Host5.udp droppedPkBadChecksum:vector(count):starttime 0
scalar multiple_areas2.Host5.udp droppedPkBadChecksum:vector(count):endtime 0

