version 3
run NonQos-0-20250108-11:38:16-14789
attr configname NonQos
attr datetime 20250108-11:38:16
attr datetimef 20250108-113816
attr experiment NonQos
attr inifile omnetpp.ini
attr iterationvars ""
attr iterationvarsd ""
attr iterationvarsf ""
attr measurement ""
attr network QosShowcase
attr processid 14789
attr repetition 0
attr replication #0
attr resultdir results
attr runnumber 0
attr seedset 0
config **.param-recording false
config image-path /home/levy/workspace/inet/images
config output-scalar-file results/omnetpp.ini-NonQos-#0.sca
config output-vector-file results/omnetpp.ini-NonQos-#0.vec
config sim-time-limit 10s
config network QosShowcase
config sim-time-limit 10s
config *.*.wlan[*].bitrate 54Mbps
config *.client.numApps 4
config *.client.app[*].typename UdpBasicApp
config *.client.app[*].destAddresses "\"server\""
config *.client.app[*].startTime 1.0s+this.sendInterval*index/4
config *.client.app[*].stopTime 6.0s
config *.client.app[0].destPort 21
config *.client.app[1].destPort 80
config *.client.app[2].destPort 4000
config *.client.app[3].destPort 5000
config *.client.app[0].packetName "\"background\""
config *.client.app[1].packetName "\"best effort\""
config *.client.app[2].packetName "\"video\""
config *.client.app[3].packetName "\"voice\""
config *.server.numApps 4
config *.server.app[*].typename UdpSink
config *.server.app[0].localPort 21
config *.server.app[1].localPort 80
config *.server.app[2].localPort 4000
config *.server.app[3].localPort 5000
config *.client.app[0].messageLength 900B
config *.client.app[0].sendInterval normal(300us,10us)
config *.client.app[1].messageLength 900B
config *.client.app[1].sendInterval normal(250us,10us)
config *.client.app[2].messageLength 600B
config *.client.app[2].sendInterval normal(1ms,10us)
config *.client.app[3].messageLength 125B
config *.client.app[3].sendInterval normal(10ms,10us)

scalar QosShowcase.ap.wlan[0].mac.dcf.channelAccess.pendingQueue queueLength:last 0
scalar QosShowcase.ap.wlan[0].mac.dcf.channelAccess.pendingQueue queueLength:max 100
scalar QosShowcase.ap.wlan[0].mac.dcf.channelAccess.pendingQueue queueLength:timeavg 24.924803752705
scalar QosShowcase.ap.wlan[0].mac.dcf.channelAccess.pendingQueue queueBitLength:last 0
scalar QosShowcase.ap.wlan[0].mac.dcf.channelAccess.pendingQueue queueBitLength:max 764000
scalar QosShowcase.ap.wlan[0].mac.dcf.channelAccess.pendingQueue queueBitLength:timeavg 185830.38477726
scalar QosShowcase.ap.wlan[0].mac.dcf.channelAccess.pendingQueue outgoingPackets:count 6019
scalar QosShowcase.ap.wlan[0].mac.dcf.channelAccess.pendingQueue outgoingPacketLengths:sum 44111320
scalar QosShowcase.ap.wlan[0].mac.dcf.channelAccess.pendingQueue incomingPackets:count 6080
scalar QosShowcase.ap.wlan[0].mac.dcf.channelAccess.pendingQueue incomingPacketLengths:sum 44562552
scalar QosShowcase.ap.wlan[0].mac.dcf.channelAccess.pendingQueue droppedPacketsQueueOverflow:count 61
scalar QosShowcase.ap.wlan[0].mac.dcf.channelAccess.pendingQueue droppedPacketLengthsQueueOverflow:sum 451232
scalar QosShowcase.ap.wlan[0].mac.dcf.channelAccess.inProgressFrames queueLength:max 2
scalar QosShowcase.ap.wlan[0].mac.dcf.channelAccess.inProgressFrames queueLength:timeavg 0.65492479097233
scalar QosShowcase.ap.wlan[0].mac.dcf.channelAccess.contention channelAccessGranted:count 6209
scalar QosShowcase.ap.wlan[0].mac.dcf.channelAccess.contention stateChanged:count 97506
scalar QosShowcase.ap.wlan[0].mac.dcf.channelAccess channelOwnershipChanged:count 12418
scalar QosShowcase.ap.wlan[0].mac.dcf.originatorMacDataService packetAggregated:count 0
scalar QosShowcase.ap.wlan[0].mac.dcf.originatorMacDataService packetFragmented:count 0
scalar QosShowcase.ap.wlan[0].mac.dcf.recipientMacDataService packetDeaggregated:count 0
scalar QosShowcase.ap.wlan[0].mac.dcf.recipientMacDataService packetDefragmented:count 5980
scalar QosShowcase.ap.wlan[0].mac.dcf.recipientMacDataService packetDropDuplicateDetected:count 0
scalar QosShowcase.ap.wlan[0].mac.dcf.recipientMacDataService packetDropDuplicateDetected:sum(packetBytes) 0
scalar QosShowcase.ap.wlan[0].mac.dcf.recoveryProcedure retryLimitReached:count 0
scalar QosShowcase.ap.wlan[0].mac.dcf frameSequenceFinished:count 6209
scalar QosShowcase.ap.wlan[0].mac.dcf packetReceivedFromPeer:count 11898
scalar QosShowcase.ap.wlan[0].mac.dcf packetReceivedFromPeer:sum(packetBytes) 5647523
scalar QosShowcase.ap.wlan[0].mac.dcf packetReceivedFromPeerUnicast:count 11896
scalar QosShowcase.ap.wlan[0].mac.dcf packetReceivedFromPeerUnicast:sum(packetBytes) 5647443
scalar QosShowcase.ap.wlan[0].mac.dcf packetReceivedFromPeerMulticast:count 2
scalar QosShowcase.ap.wlan[0].mac.dcf packetReceivedFromPeerMulticast:sum(packetBytes) 80
scalar QosShowcase.ap.wlan[0].mac.dcf packetReceivedFromPeerBroadcast:count 2
scalar QosShowcase.ap.wlan[0].mac.dcf packetReceivedFromPeerBroadcast:sum(packetBytes) 80
scalar QosShowcase.ap.wlan[0].mac.dcf packetReceivedFromPeerWithRetry:count 183
scalar QosShowcase.ap.wlan[0].mac.dcf packetReceivedFromPeerWithRetry:sum(packetBytes) 171562
scalar QosShowcase.ap.wlan[0].mac.dcf packetReceivedFromPeerWithoutRetry:count 11715
scalar QosShowcase.ap.wlan[0].mac.dcf packetReceivedFromPeerWithoutRetry:sum(packetBytes) 5475961
scalar QosShowcase.ap.wlan[0].mac.dcf packetSentToPeer:count 12187
scalar QosShowcase.ap.wlan[0].mac.dcf packetSentToPeer:sum(packetBytes) 5775442
scalar QosShowcase.ap.wlan[0].mac.dcf packetSentToPeerUnicast:count 12086
scalar QosShowcase.ap.wlan[0].mac.dcf packetSentToPeerUnicast:sum(packetBytes) 5769778
scalar QosShowcase.ap.wlan[0].mac.dcf packetSentToPeerMulticast:count 101
scalar QosShowcase.ap.wlan[0].mac.dcf packetSentToPeerMulticast:sum(packetBytes) 5664
scalar QosShowcase.ap.wlan[0].mac.dcf packetSentToPeerBroadcast:count 101
scalar QosShowcase.ap.wlan[0].mac.dcf packetSentToPeerBroadcast:sum(packetBytes) 5664
scalar QosShowcase.ap.wlan[0].mac.dcf packetSentToPeerWithRetry:count 373
scalar QosShowcase.ap.wlan[0].mac.dcf packetSentToPeerWithRetry:sum(packetBytes) 349397
scalar QosShowcase.ap.wlan[0].mac.dcf packetSentToPeerWithoutRetry:count 11814
scalar QosShowcase.ap.wlan[0].mac.dcf packetSentToPeerWithoutRetry:sum(packetBytes) 5426045
scalar QosShowcase.ap.wlan[0].mac.dcf packetDrop:count 61
scalar QosShowcase.ap.wlan[0].mac.dcf packetDrop:sum(packetBytes) 56404
scalar QosShowcase.ap.wlan[0].mac.dcf packetDropNotAddressedToUs:count 0
scalar QosShowcase.ap.wlan[0].mac.dcf packetDropNotAddressedToUs:sum(packetBytes) 0
scalar QosShowcase.ap.wlan[0].mac.dcf packetDropQueueOverflow:count 61
scalar QosShowcase.ap.wlan[0].mac.dcf packetDropQueueOverflow:sum(packetBytes) 56404
scalar QosShowcase.ap.wlan[0].mac.dcf packetDropRetryLimitReached:count 0
scalar QosShowcase.ap.wlan[0].mac.dcf packetDropRetryLimitReached:sum(packetBytes) 0
scalar QosShowcase.ap.wlan[0].mac.dcf linkBroken:count 0
scalar QosShowcase.ap.wlan[0].mac packetReceivedFromLower:count 11898
scalar QosShowcase.ap.wlan[0].mac packetReceivedFromLower:sum(packetBytes) 5647523
scalar QosShowcase.ap.wlan[0].mac packetSentToLower:count 12187
scalar QosShowcase.ap.wlan[0].mac packetSentToLower:sum(packetBytes) 5775442
scalar QosShowcase.ap.wlan[0].mac packetReceivedFromUpper:count 0
scalar QosShowcase.ap.wlan[0].mac packetReceivedFromUpper:sum(packetBytes) 0
scalar QosShowcase.ap.wlan[0].mac packetSentToUpper:count 1
scalar QosShowcase.ap.wlan[0].mac packetSentToUpper:sum(packetBytes) 36
scalar QosShowcase.ap.wlan[0].mac packetDrop:count 61
scalar QosShowcase.ap.wlan[0].mac packetDrop:sum(packetBytes) 56404
scalar QosShowcase.ap.wlan[0].mac packetDropIncorrectlyReceived:count 0
scalar QosShowcase.ap.wlan[0].mac packetDropIncorrectlyReceived:sum(packetBytes) 0
scalar QosShowcase.ap.wlan[0].mac packetDropNotAddressedToUs:count 0
scalar QosShowcase.ap.wlan[0].mac packetDropNotAddressedToUs:sum(packetBytes) 0
scalar QosShowcase.ap.wlan[0].mac packetDropQueueOverflow:count 61
scalar QosShowcase.ap.wlan[0].mac packetDropQueueOverflow:sum(packetBytes) 56404
scalar QosShowcase.ap.wlan[0].mac packetDropRetryLimitReached:count 0
scalar QosShowcase.ap.wlan[0].mac packetDropRetryLimitReached:sum(packetBytes) 0
scalar QosShowcase.ap.wlan[0].mac packetDropDuplicateDetected:count 0
scalar QosShowcase.ap.wlan[0].mac packetDropDuplicateDetected:sum(packetBytes) 0
scalar QosShowcase.ap.wlan[0].mac packetDropOther:count 0
scalar QosShowcase.ap.wlan[0].mac packetDropOther:sum(packetBytes) 0
scalar QosShowcase.ap.wlan[0].mac linkBroken:count 0
scalar QosShowcase.ap.wlan[0].radio radioMode:count 24377
scalar QosShowcase.ap.wlan[0].radio receptionState:count 48349
scalar QosShowcase.ap.wlan[0].radio transmissionState:count 48748
scalar QosShowcase.ap.wlan[0] packetDropInterfaceDown:count 0
scalar QosShowcase.ap.wlan[0] packetDropInterfaceDown:sum(packetBytes) 0
scalar QosShowcase.ap.wlan[0] packetDropNoCarrier:count 0
scalar QosShowcase.ap.wlan[0] packetDropNoCarrier:sum(packetBytes) 0
scalar QosShowcase.server.lo[0].lo rcvdPkFromHl:count 0
scalar QosShowcase.server.lo[0].lo rcvdPkFromHl:sum(packetBytes) 0
scalar QosShowcase.server.lo[0].lo passedUpPk:count 0
scalar QosShowcase.server.lo[0].lo passedUpPk:sum(packetBytes) 0
scalar QosShowcase.server.lo[0] packetDropInterfaceDown:count 0
scalar QosShowcase.server.lo[0] packetDropInterfaceDown:sum(packetBytes) 0
scalar QosShowcase.server.lo[0] packetDropNoCarrier:count 0
scalar QosShowcase.server.lo[0] packetDropNoCarrier:sum(packetBytes) 0
scalar QosShowcase.server.wlan[0].agent dropConfirm:count 0
scalar QosShowcase.server.wlan[0].agent acceptConfirm:count 3
scalar QosShowcase.server.wlan[0].agent sentRequest:count 3
scalar QosShowcase.server.wlan[0].mac.dcf.channelAccess.pendingQueue queueLength:last 0
scalar QosShowcase.server.wlan[0].mac.dcf.channelAccess.pendingQueue queueLength:max 1
scalar QosShowcase.server.wlan[0].mac.dcf.channelAccess.pendingQueue queueLength:timeavg 0.0001578
scalar QosShowcase.server.wlan[0].mac.dcf.channelAccess.pendingQueue queueBitLength:last 0
scalar QosShowcase.server.wlan[0].mac.dcf.channelAccess.pendingQueue queueBitLength:max 512
scalar QosShowcase.server.wlan[0].mac.dcf.channelAccess.pendingQueue queueBitLength:timeavg 0.059664
scalar QosShowcase.server.wlan[0].mac.dcf.channelAccess.pendingQueue outgoingPackets:count 5
scalar QosShowcase.server.wlan[0].mac.dcf.channelAccess.pendingQueue outgoingPacketLengths:sum 1664
scalar QosShowcase.server.wlan[0].mac.dcf.channelAccess.pendingQueue incomingPackets:count 5
scalar QosShowcase.server.wlan[0].mac.dcf.channelAccess.pendingQueue incomingPacketLengths:sum 1664
scalar QosShowcase.server.wlan[0].mac.dcf.channelAccess.pendingQueue droppedPacketsQueueOverflow:count 0
scalar QosShowcase.server.wlan[0].mac.dcf.channelAccess.pendingQueue droppedPacketLengthsQueueOverflow:sum 0
scalar QosShowcase.server.wlan[0].mac.dcf.channelAccess.inProgressFrames queueLength:max 1
scalar QosShowcase.server.wlan[0].mac.dcf.channelAccess.inProgressFrames queueLength:timeavg 3.85773848e-05
scalar QosShowcase.server.wlan[0].mac.dcf.channelAccess.contention channelAccessGranted:count 5
scalar QosShowcase.server.wlan[0].mac.dcf.channelAccess.contention stateChanged:count 96728
scalar QosShowcase.server.wlan[0].mac.dcf.channelAccess channelOwnershipChanged:count 10
scalar QosShowcase.server.wlan[0].mac.dcf.originatorMacDataService packetAggregated:count 0
scalar QosShowcase.server.wlan[0].mac.dcf.originatorMacDataService packetFragmented:count 0
scalar QosShowcase.server.wlan[0].mac.dcf.recipientMacDataService packetDeaggregated:count 0
scalar QosShowcase.server.wlan[0].mac.dcf.recipientMacDataService packetDefragmented:count 6014
scalar QosShowcase.server.wlan[0].mac.dcf.recipientMacDataService packetDropDuplicateDetected:count 0
scalar QosShowcase.server.wlan[0].mac.dcf.recipientMacDataService packetDropDuplicateDetected:sum(packetBytes) 0
scalar QosShowcase.server.wlan[0].mac.dcf.recoveryProcedure retryLimitReached:count 0
scalar QosShowcase.server.wlan[0].mac.dcf frameSequenceFinished:count 5
scalar QosShowcase.server.wlan[0].mac.dcf packetReceivedFromPeer:count 6018
scalar QosShowcase.server.wlan[0].mac.dcf packetReceivedFromPeer:sum(packetBytes) 5513723
scalar QosShowcase.server.wlan[0].mac.dcf packetReceivedFromPeerUnicast:count 5917
scalar QosShowcase.server.wlan[0].mac.dcf packetReceivedFromPeerUnicast:sum(packetBytes) 5508075
scalar QosShowcase.server.wlan[0].mac.dcf packetReceivedFromPeerMulticast:count 101
scalar QosShowcase.server.wlan[0].mac.dcf packetReceivedFromPeerMulticast:sum(packetBytes) 5648
scalar QosShowcase.server.wlan[0].mac.dcf packetReceivedFromPeerBroadcast:count 101
scalar QosShowcase.server.wlan[0].mac.dcf packetReceivedFromPeerBroadcast:sum(packetBytes) 5648
scalar QosShowcase.server.wlan[0].mac.dcf packetReceivedFromPeerWithRetry:count 365
scalar QosShowcase.server.wlan[0].mac.dcf packetReceivedFromPeerWithRetry:sum(packetBytes) 341685
scalar QosShowcase.server.wlan[0].mac.dcf packetReceivedFromPeerWithoutRetry:count 5653
scalar QosShowcase.server.wlan[0].mac.dcf packetReceivedFromPeerWithoutRetry:sum(packetBytes) 5172038
scalar QosShowcase.server.wlan[0].mac.dcf packetSentToPeer:count 5918
scalar QosShowcase.server.wlan[0].mac.dcf packetSentToPeer:sum(packetBytes) 82990
scalar QosShowcase.server.wlan[0].mac.dcf packetSentToPeerUnicast:count 5917
scalar QosShowcase.server.wlan[0].mac.dcf packetSentToPeerUnicast:sum(packetBytes) 82950
scalar QosShowcase.server.wlan[0].mac.dcf packetSentToPeerMulticast:count 1
scalar QosShowcase.server.wlan[0].mac.dcf packetSentToPeerMulticast:sum(packetBytes) 40
scalar QosShowcase.server.wlan[0].mac.dcf packetSentToPeerBroadcast:count 1
scalar QosShowcase.server.wlan[0].mac.dcf packetSentToPeerBroadcast:sum(packetBytes) 40
scalar QosShowcase.server.wlan[0].mac.dcf packetSentToPeerWithRetry:count 0
scalar QosShowcase.server.wlan[0].mac.dcf packetSentToPeerWithRetry:sum(packetBytes) 0
scalar QosShowcase.server.wlan[0].mac.dcf packetSentToPeerWithoutRetry:count 5918
scalar QosShowcase.server.wlan[0].mac.dcf packetSentToPeerWithoutRetry:sum(packetBytes) 82990
scalar QosShowcase.server.wlan[0].mac.dcf packetDrop:count 11958
scalar QosShowcase.server.wlan[0].mac.dcf packetDrop:sum(packetBytes) 5648361
scalar QosShowcase.server.wlan[0].mac.dcf packetDropNotAddressedToUs:count 11958
scalar QosShowcase.server.wlan[0].mac.dcf packetDropNotAddressedToUs:sum(packetBytes) 5648361
scalar QosShowcase.server.wlan[0].mac.dcf packetDropQueueOverflow:count 0
scalar QosShowcase.server.wlan[0].mac.dcf packetDropQueueOverflow:sum(packetBytes) 0
scalar QosShowcase.server.wlan[0].mac.dcf packetDropRetryLimitReached:count 0
scalar QosShowcase.server.wlan[0].mac.dcf packetDropRetryLimitReached:sum(packetBytes) 0
scalar QosShowcase.server.wlan[0].mac.dcf linkBroken:count 0
scalar QosShowcase.server.wlan[0].mac packetReceivedFromLower:count 18167
scalar QosShowcase.server.wlan[0].mac packetReceivedFromLower:sum(packetBytes) 11339975
scalar QosShowcase.server.wlan[0].mac packetSentToLower:count 5918
scalar QosShowcase.server.wlan[0].mac packetSentToLower:sum(packetBytes) 82990
scalar QosShowcase.server.wlan[0].mac packetReceivedFromUpper:count 1
scalar QosShowcase.server.wlan[0].mac packetReceivedFromUpper:sum(packetBytes) 36
scalar QosShowcase.server.wlan[0].mac packetSentToUpper:count 5910
scalar QosShowcase.server.wlan[0].mac packetSentToUpper:sum(packetBytes) 5342435
scalar QosShowcase.server.wlan[0].mac packetDrop:count 12149
scalar QosShowcase.server.wlan[0].mac packetDrop:sum(packetBytes) 5826252
scalar QosShowcase.server.wlan[0].mac packetDropIncorrectlyReceived:count 191
scalar QosShowcase.server.wlan[0].mac packetDropIncorrectlyReceived:sum(packetBytes) 177891
scalar QosShowcase.server.wlan[0].mac packetDropNotAddressedToUs:count 11958
scalar QosShowcase.server.wlan[0].mac packetDropNotAddressedToUs:sum(packetBytes) 5648361
scalar QosShowcase.server.wlan[0].mac packetDropQueueOverflow:count 0
scalar QosShowcase.server.wlan[0].mac packetDropQueueOverflow:sum(packetBytes) 0
scalar QosShowcase.server.wlan[0].mac packetDropRetryLimitReached:count 0
scalar QosShowcase.server.wlan[0].mac packetDropRetryLimitReached:sum(packetBytes) 0
scalar QosShowcase.server.wlan[0].mac packetDropDuplicateDetected:count 0
scalar QosShowcase.server.wlan[0].mac packetDropDuplicateDetected:sum(packetBytes) 0
scalar QosShowcase.server.wlan[0].mac packetDropOther:count 0
scalar QosShowcase.server.wlan[0].mac packetDropOther:sum(packetBytes) 0
scalar QosShowcase.server.wlan[0].mac linkBroken:count 0
scalar QosShowcase.server.wlan[0].radio radioMode:count 11839
scalar QosShowcase.server.wlan[0].radio receptionState:count 48349
scalar QosShowcase.server.wlan[0].radio transmissionState:count 23672
scalar QosShowcase.server.wlan[0] packetDropInterfaceDown:count 0
scalar QosShowcase.server.wlan[0] packetDropInterfaceDown:sum(packetBytes) 0
scalar QosShowcase.server.wlan[0] packetDropNoCarrier:count 0
scalar QosShowcase.server.wlan[0] packetDropNoCarrier:sum(packetBytes) 0
scalar QosShowcase.server.ipv4.ip packetDropAddressResolutionFailed:count 0
scalar QosShowcase.server.ipv4.ip packetDropAddressResolutionFailed:sum(packetBytes) 0
scalar QosShowcase.server.ipv4.ip packetDropHopLimitReached:count 0
scalar QosShowcase.server.ipv4.ip packetDropHopLimitReached:sum(packetBytes) 0
scalar QosShowcase.server.ipv4.ip packetDropForwardingDisabled:count 0
scalar QosShowcase.server.ipv4.ip packetDropForwardingDisabled:sum(packetBytes) 0
scalar QosShowcase.server.ipv4.ip packetDropLifetimeExpired:count 0
scalar QosShowcase.server.ipv4.ip packetDropLifetimeExpired:sum(packetBytes) 0
scalar QosShowcase.server.ipv4.ip packetDropNoInterfaceFound:count 0
scalar QosShowcase.server.ipv4.ip packetDropNoInterfaceFound:sum(packetBytes) 0
scalar QosShowcase.server.ipv4.ip packetDropNoRouteFound:count 0
scalar QosShowcase.server.ipv4.ip packetDropNoRouteFound:sum(packetBytes) 0
scalar QosShowcase.server.ipv4.ip packetDropUndefined:count 0
scalar QosShowcase.server.ipv4.ip packetDropUndefined:sum(packetBytes) 0
scalar QosShowcase.server.ipv4.arp arpResolutionFailed:count 0
scalar QosShowcase.server.ipv4.arp arpResolutionCompleted:count 1
scalar QosShowcase.server.ipv4.arp arpResolutionInitiated:count 0
scalar QosShowcase.server.ipv4.arp arpReplySent:count 1
scalar QosShowcase.server.ipv4.arp arpReplySent:sum(packetBytes) 28
scalar QosShowcase.server.ipv4.arp arpRequestSent:count 0
scalar QosShowcase.server.ipv4.arp arpRequestSent:sum(packetBytes) 0
scalar QosShowcase.server.udp packetReceived:count 5909
scalar QosShowcase.server.udp packetReceived:sum(packetBytes) 5176947
scalar QosShowcase.server.udp packetSent:count 0
scalar QosShowcase.server.udp packetSent:sum(packetBytes) 0
scalar QosShowcase.server.udp passedUpPk:count 5909
scalar QosShowcase.server.udp droppedPkWrongPort:count 0
scalar QosShowcase.server.udp droppedPkBadChecksum:count 0
scalar QosShowcase.server.app[0] packetReceived:count 2268
scalar QosShowcase.server.app[0] packetReceived:sum(packetBytes) 2041200
scalar QosShowcase.server.app[1] packetReceived:count 3081
scalar QosShowcase.server.app[1] packetReceived:sum(packetBytes) 2772900
scalar QosShowcase.server.app[2] packetReceived:count 517
scalar QosShowcase.server.app[2] packetReceived:sum(packetBytes) 310200
scalar QosShowcase.server.app[3] packetReceived:count 43
scalar QosShowcase.server.app[3] packetReceived:sum(packetBytes) 5375
scalar QosShowcase.client.lo[0].lo rcvdPkFromHl:count 0
scalar QosShowcase.client.lo[0].lo rcvdPkFromHl:sum(packetBytes) 0
scalar QosShowcase.client.lo[0].lo passedUpPk:count 0
scalar QosShowcase.client.lo[0].lo passedUpPk:sum(packetBytes) 0
scalar QosShowcase.client.lo[0] packetDropInterfaceDown:count 0
scalar QosShowcase.client.lo[0] packetDropInterfaceDown:sum(packetBytes) 0
scalar QosShowcase.client.lo[0] packetDropNoCarrier:count 0
scalar QosShowcase.client.lo[0] packetDropNoCarrier:sum(packetBytes) 0
scalar QosShowcase.client.wlan[0].agent dropConfirm:count 0
scalar QosShowcase.client.wlan[0].agent acceptConfirm:count 3
scalar QosShowcase.client.wlan[0].agent sentRequest:count 3
scalar QosShowcase.client.wlan[0].mac.dcf.channelAccess.pendingQueue queueLength:last 0
scalar QosShowcase.client.wlan[0].mac.dcf.channelAccess.pendingQueue queueLength:max 100
scalar QosShowcase.client.wlan[0].mac.dcf.channelAccess.pendingQueue queueLength:timeavg 50.260503329025
scalar QosShowcase.client.wlan[0].mac.dcf.channelAccess.pendingQueue queueBitLength:last 0
scalar QosShowcase.client.wlan[0].mac.dcf.channelAccess.pendingQueue queueBitLength:max 766400
scalar QosShowcase.client.wlan[0].mac.dcf.channelAccess.pendingQueue queueBitLength:timeavg 374787.94061709
scalar QosShowcase.client.wlan[0].mac.dcf.channelAccess.pendingQueue outgoingPackets:count 5975
scalar QosShowcase.client.wlan[0].mac.dcf.channelAccess.pendingQueue outgoingPacketLengths:sum 44515704
scalar QosShowcase.client.wlan[0].mac.dcf.channelAccess.pendingQueue incomingPackets:count 42187
scalar QosShowcase.client.wlan[0].mac.dcf.channelAccess.pendingQueue incomingPacketLengths:sum 310209248
scalar QosShowcase.client.wlan[0].mac.dcf.channelAccess.pendingQueue droppedPacketsQueueOverflow:count 36212
scalar QosShowcase.client.wlan[0].mac.dcf.channelAccess.pendingQueue droppedPacketLengthsQueueOverflow:sum 265693544
scalar QosShowcase.client.wlan[0].mac.dcf.channelAccess.inProgressFrames queueLength:max 2
scalar QosShowcase.client.wlan[0].mac.dcf.channelAccess.inProgressFrames queueLength:timeavg 0.65672078746633
scalar QosShowcase.client.wlan[0].mac.dcf.channelAccess.contention channelAccessGranted:count 6166
scalar QosShowcase.client.wlan[0].mac.dcf.channelAccess.contention stateChanged:count 97110
scalar QosShowcase.client.wlan[0].mac.dcf.channelAccess channelOwnershipChanged:count 12332
scalar QosShowcase.client.wlan[0].mac.dcf.originatorMacDataService packetAggregated:count 0
scalar QosShowcase.client.wlan[0].mac.dcf.originatorMacDataService packetFragmented:count 0
scalar QosShowcase.client.wlan[0].mac.dcf.recipientMacDataService packetDeaggregated:count 0
scalar QosShowcase.client.wlan[0].mac.dcf.recipientMacDataService packetDefragmented:count 105
scalar QosShowcase.client.wlan[0].mac.dcf.recipientMacDataService packetDropDuplicateDetected:count 0
scalar QosShowcase.client.wlan[0].mac.dcf.recipientMacDataService packetDropDuplicateDetected:sum(packetBytes) 0
scalar QosShowcase.client.wlan[0].mac.dcf.recoveryProcedure retryLimitReached:count 0
scalar QosShowcase.client.wlan[0].mac.dcf frameSequenceFinished:count 6166
scalar QosShowcase.client.wlan[0].mac.dcf packetReceivedFromPeer:count 6079
scalar QosShowcase.client.wlan[0].mac.dcf packetReceivedFromPeer:sum(packetBytes) 89452
scalar QosShowcase.client.wlan[0].mac.dcf packetReceivedFromPeerUnicast:count 5979
scalar QosShowcase.client.wlan[0].mac.dcf packetReceivedFromPeerUnicast:sum(packetBytes) 83868
scalar QosShowcase.client.wlan[0].mac.dcf packetReceivedFromPeerMulticast:count 100
scalar QosShowcase.client.wlan[0].mac.dcf packetReceivedFromPeerMulticast:sum(packetBytes) 5584
scalar QosShowcase.client.wlan[0].mac.dcf packetReceivedFromPeerBroadcast:count 100
scalar QosShowcase.client.wlan[0].mac.dcf packetReceivedFromPeerBroadcast:sum(packetBytes) 5584
scalar QosShowcase.client.wlan[0].mac.dcf packetReceivedFromPeerWithRetry:count 0
scalar QosShowcase.client.wlan[0].mac.dcf packetReceivedFromPeerWithRetry:sum(packetBytes) 0
scalar QosShowcase.client.wlan[0].mac.dcf packetReceivedFromPeerWithoutRetry:count 6079
scalar QosShowcase.client.wlan[0].mac.dcf packetReceivedFromPeerWithoutRetry:sum(packetBytes) 89452
scalar QosShowcase.client.wlan[0].mac.dcf packetSentToPeer:count 6171
scalar QosShowcase.client.wlan[0].mac.dcf packetSentToPeer:sum(packetBytes) 5743032
scalar QosShowcase.client.wlan[0].mac.dcf packetSentToPeerUnicast:count 6170
scalar QosShowcase.client.wlan[0].mac.dcf packetSentToPeerUnicast:sum(packetBytes) 5742992
scalar QosShowcase.client.wlan[0].mac.dcf packetSentToPeerMulticast:count 1
scalar QosShowcase.client.wlan[0].mac.dcf packetSentToPeerMulticast:sum(packetBytes) 40
scalar QosShowcase.client.wlan[0].mac.dcf packetSentToPeerBroadcast:count 1
scalar QosShowcase.client.wlan[0].mac.dcf packetSentToPeerBroadcast:sum(packetBytes) 40
scalar QosShowcase.client.wlan[0].mac.dcf packetSentToPeerWithRetry:count 191
scalar QosShowcase.client.wlan[0].mac.dcf packetSentToPeerWithRetry:sum(packetBytes) 178499
scalar QosShowcase.client.wlan[0].mac.dcf packetSentToPeerWithoutRetry:count 5980
scalar QosShowcase.client.wlan[0].mac.dcf packetSentToPeerWithoutRetry:sum(packetBytes) 5564533
scalar QosShowcase.client.wlan[0].mac.dcf packetDrop:count 48047
scalar QosShowcase.client.wlan[0].mac.dcf packetDrop:sum(packetBytes) 38802782
scalar QosShowcase.client.wlan[0].mac.dcf packetDropNotAddressedToUs:count 11835
scalar QosShowcase.client.wlan[0].mac.dcf packetDropNotAddressedToUs:sum(packetBytes) 5591089
scalar QosShowcase.client.wlan[0].mac.dcf packetDropQueueOverflow:count 36212
scalar QosShowcase.client.wlan[0].mac.dcf packetDropQueueOverflow:sum(packetBytes) 33211693
scalar QosShowcase.client.wlan[0].mac.dcf packetDropRetryLimitReached:count 0
scalar QosShowcase.client.wlan[0].mac.dcf packetDropRetryLimitReached:sum(packetBytes) 0
scalar QosShowcase.client.wlan[0].mac.dcf linkBroken:count 0
scalar QosShowcase.client.wlan[0].mac packetReceivedFromLower:count 17914
scalar QosShowcase.client.wlan[0].mac packetReceivedFromLower:sum(packetBytes) 5680541
scalar QosShowcase.client.wlan[0].mac packetSentToLower:count 6171
scalar QosShowcase.client.wlan[0].mac packetSentToLower:sum(packetBytes) 5743032
scalar QosShowcase.client.wlan[0].mac packetReceivedFromUpper:count 42183
scalar QosShowcase.client.wlan[0].mac packetReceivedFromUpper:sum(packetBytes) 37594888
scalar QosShowcase.client.wlan[0].mac packetSentToUpper:count 1
scalar QosShowcase.client.wlan[0].mac packetSentToUpper:sum(packetBytes) 36
scalar QosShowcase.client.wlan[0].mac packetDrop:count 48047
scalar QosShowcase.client.wlan[0].mac packetDrop:sum(packetBytes) 38802782
scalar QosShowcase.client.wlan[0].mac packetDropIncorrectlyReceived:count 0
scalar QosShowcase.client.wlan[0].mac packetDropIncorrectlyReceived:sum(packetBytes) 0
scalar QosShowcase.client.wlan[0].mac packetDropNotAddressedToUs:count 11835
scalar QosShowcase.client.wlan[0].mac packetDropNotAddressedToUs:sum(packetBytes) 5591089
scalar QosShowcase.client.wlan[0].mac packetDropQueueOverflow:count 36212
scalar QosShowcase.client.wlan[0].mac packetDropQueueOverflow:sum(packetBytes) 33211693
scalar QosShowcase.client.wlan[0].mac packetDropRetryLimitReached:count 0
scalar QosShowcase.client.wlan[0].mac packetDropRetryLimitReached:sum(packetBytes) 0
scalar QosShowcase.client.wlan[0].mac packetDropDuplicateDetected:count 0
scalar QosShowcase.client.wlan[0].mac packetDropDuplicateDetected:sum(packetBytes) 0
scalar QosShowcase.client.wlan[0].mac packetDropOther:count 0
scalar QosShowcase.client.wlan[0].mac packetDropOther:sum(packetBytes) 0
scalar QosShowcase.client.wlan[0].mac linkBroken:count 0
scalar QosShowcase.client.wlan[0].radio radioMode:count 12345
scalar QosShowcase.client.wlan[0].radio receptionState:count 48348
scalar QosShowcase.client.wlan[0].radio transmissionState:count 24684
scalar QosShowcase.client.wlan[0] packetDropInterfaceDown:count 0
scalar QosShowcase.client.wlan[0] packetDropInterfaceDown:sum(packetBytes) 0
scalar QosShowcase.client.wlan[0] packetDropNoCarrier:count 0
scalar QosShowcase.client.wlan[0] packetDropNoCarrier:sum(packetBytes) 0
scalar QosShowcase.client.ipv4.ip packetDropAddressResolutionFailed:count 0
scalar QosShowcase.client.ipv4.ip packetDropAddressResolutionFailed:sum(packetBytes) 0
scalar QosShowcase.client.ipv4.ip packetDropHopLimitReached:count 0
scalar QosShowcase.client.ipv4.ip packetDropHopLimitReached:sum(packetBytes) 0
scalar QosShowcase.client.ipv4.ip packetDropForwardingDisabled:count 0
scalar QosShowcase.client.ipv4.ip packetDropForwardingDisabled:sum(packetBytes) 0
scalar QosShowcase.client.ipv4.ip packetDropLifetimeExpired:count 0
scalar QosShowcase.client.ipv4.ip packetDropLifetimeExpired:sum(packetBytes) 0
scalar QosShowcase.client.ipv4.ip packetDropNoInterfaceFound:count 0
scalar QosShowcase.client.ipv4.ip packetDropNoInterfaceFound:sum(packetBytes) 0
scalar QosShowcase.client.ipv4.ip packetDropNoRouteFound:count 0
scalar QosShowcase.client.ipv4.ip packetDropNoRouteFound:sum(packetBytes) 0
scalar QosShowcase.client.ipv4.ip packetDropUndefined:count 0
scalar QosShowcase.client.ipv4.ip packetDropUndefined:sum(packetBytes) 0
scalar QosShowcase.client.ipv4.arp arpResolutionFailed:count 0
scalar QosShowcase.client.ipv4.arp arpResolutionCompleted:count 1
scalar QosShowcase.client.ipv4.arp arpResolutionInitiated:count 1
scalar QosShowcase.client.ipv4.arp arpReplySent:count 0
scalar QosShowcase.client.ipv4.arp arpReplySent:sum(packetBytes) 0
scalar QosShowcase.client.ipv4.arp arpRequestSent:count 1
scalar QosShowcase.client.ipv4.arp arpRequestSent:sum(packetBytes) 28
scalar QosShowcase.client.udp packetReceived:count 0
scalar QosShowcase.client.udp packetReceived:sum(packetBytes) 0
scalar QosShowcase.client.udp packetSent:count 42182
scalar QosShowcase.client.udp packetSent:sum(packetBytes) 36413756
scalar QosShowcase.client.udp passedUpPk:count 0
scalar QosShowcase.client.udp droppedPkWrongPort:count 0
scalar QosShowcase.client.udp droppedPkBadChecksum:count 0
scalar QosShowcase.client.app[0] "packets sent" 16667
scalar QosShowcase.client.app[0] "packets received" 0
scalar QosShowcase.client.app[0] packetReceived:count 0
scalar QosShowcase.client.app[0] packetReceived:sum(packetBytes) 0
scalar QosShowcase.client.app[0] packetSent:count 16667
scalar QosShowcase.client.app[0] packetSent:sum(packetBytes) 15000300
scalar QosShowcase.client.app[1] "packets sent" 20015
scalar QosShowcase.client.app[1] "packets received" 0
scalar QosShowcase.client.app[1] packetReceived:count 0
scalar QosShowcase.client.app[1] packetReceived:sum(packetBytes) 0
scalar QosShowcase.client.app[1] packetSent:count 20015
scalar QosShowcase.client.app[1] packetSent:sum(packetBytes) 18013500
scalar QosShowcase.client.app[2] "packets sent" 5000
scalar QosShowcase.client.app[2] "packets received" 0
scalar QosShowcase.client.app[2] packetReceived:count 0
scalar QosShowcase.client.app[2] packetReceived:sum(packetBytes) 0
scalar QosShowcase.client.app[2] packetSent:count 5000
scalar QosShowcase.client.app[2] packetSent:sum(packetBytes) 3000000
scalar QosShowcase.client.app[3] "packets sent" 500
scalar QosShowcase.client.app[3] "packets received" 0
scalar QosShowcase.client.app[3] packetReceived:count 0
scalar QosShowcase.client.app[3] packetReceived:sum(packetBytes) 0
scalar QosShowcase.client.app[3] packetSent:count 500
scalar QosShowcase.client.app[3] packetSent:sum(packetBytes) 62500
scalar QosShowcase.radioMedium.propagation "Arrival computation count" 48552
scalar QosShowcase.radioMedium "transmission count" 24276
scalar QosShowcase.radioMedium "signal send count" 48552
scalar QosShowcase.radioMedium "reception computation count" 48552
scalar QosShowcase.radioMedium "interference computation count" 168943
scalar QosShowcase.radioMedium "reception decision computation count" 47979
scalar QosShowcase.radioMedium "listening decision computation count" 72794
scalar QosShowcase.radioMedium "reception cache hit" 85.631847156377
scalar QosShowcase.radioMedium "interference cache hit" 66.666666666667
scalar QosShowcase.radioMedium "noise cache hit" 0
scalar QosShowcase.radioMedium "snir cache hit" 50
scalar QosShowcase.radioMedium "reception decision cache hit" 50
scalar QosShowcase.radioMedium "reception result cache hit" 0
scalar QosShowcase.client.app[0] rcvdPkLifetime:stats:count 0
scalar QosShowcase.client.app[0] rcvdPkLifetime:stats:sumweights 0
scalar QosShowcase.client.app[0] rcvdPkLifetime:stats:mean -nan
scalar QosShowcase.client.app[0] rcvdPkLifetime:stats:stddev nan
scalar QosShowcase.client.app[0] rcvdPkLifetime:stats:min nan
scalar QosShowcase.client.app[0] rcvdPkLifetime:stats:max nan
scalar QosShowcase.client.app[0] rcvdPkLifetime:stats:numbins 0
scalar QosShowcase.client.app[1] rcvdPkLifetime:stats:count 0
scalar QosShowcase.client.app[1] rcvdPkLifetime:stats:sumweights 0
scalar QosShowcase.client.app[1] rcvdPkLifetime:stats:mean -nan
scalar QosShowcase.client.app[1] rcvdPkLifetime:stats:stddev nan
scalar QosShowcase.client.app[1] rcvdPkLifetime:stats:min nan
scalar QosShowcase.client.app[1] rcvdPkLifetime:stats:max nan
scalar QosShowcase.client.app[1] rcvdPkLifetime:stats:numbins 0
scalar QosShowcase.client.app[2] rcvdPkLifetime:stats:count 0
scalar QosShowcase.client.app[2] rcvdPkLifetime:stats:sumweights 0
scalar QosShowcase.client.app[2] rcvdPkLifetime:stats:mean -nan
scalar QosShowcase.client.app[2] rcvdPkLifetime:stats:stddev nan
scalar QosShowcase.client.app[2] rcvdPkLifetime:stats:min nan
scalar QosShowcase.client.app[2] rcvdPkLifetime:stats:max nan
scalar QosShowcase.client.app[2] rcvdPkLifetime:stats:numbins 0
scalar QosShowcase.client.app[3] rcvdPkLifetime:stats:count 0
scalar QosShowcase.client.app[3] rcvdPkLifetime:stats:sumweights 0
scalar QosShowcase.client.app[3] rcvdPkLifetime:stats:mean -nan
scalar QosShowcase.client.app[3] rcvdPkLifetime:stats:stddev nan
scalar QosShowcase.client.app[3] rcvdPkLifetime:stats:min nan
scalar QosShowcase.client.app[3] rcvdPkLifetime:stats:max nan
scalar QosShowcase.client.app[3] rcvdPkLifetime:stats:numbins 0
scalar QosShowcase.ap.wlan[0].mac.dcf.channelAccess.pendingQueue queueingTime:histogram:count 6019
scalar QosShowcase.ap.wlan[0].mac.dcf.channelAccess.pendingQueue queueingTime:histogram:sumweights 6019
scalar QosShowcase.ap.wlan[0].mac.dcf.channelAccess.pendingQueue queueingTime:histogram:mean 3.5072803560337
scalar QosShowcase.ap.wlan[0].mac.dcf.channelAccess.pendingQueue queueingTime:histogram:stddev 1.5457737621437
scalar QosShowcase.ap.wlan[0].mac.dcf.channelAccess.pendingQueue queueingTime:histogram:min 0
scalar QosShowcase.ap.wlan[0].mac.dcf.channelAccess.pendingQueue queueingTime:histogram:max 6.133403956833
scalar QosShowcase.ap.wlan[0].mac.dcf.channelAccess.pendingQueue queueingTime:histogram:numbins 62
scalar QosShowcase.ap.wlan[0].mac.dcf.channelAccess.pendingQueue queueingTime:histogram:rangemin 0
scalar QosShowcase.ap.wlan[0].mac.dcf.channelAccess.pendingQueue queueingTime:histogram:rangemax 6.2
scalar QosShowcase.ap.wlan[0].mac.dcf.channelAccess.pendingQueue queueingTime:histogram:underflows 0
scalar QosShowcase.ap.wlan[0].mac.dcf.channelAccess.pendingQueue queueingTime:histogram:overflows 0
scalar QosShowcase.ap.wlan[0].mac.dcf.channelAccess.pendingQueue outgoingPacketLengths:histogram:count 6019
scalar QosShowcase.ap.wlan[0].mac.dcf.channelAccess.pendingQueue outgoingPacketLengths:histogram:sumweights 6019
scalar QosShowcase.ap.wlan[0].mac.dcf.channelAccess.pendingQueue outgoingPacketLengths:histogram:mean 7328.6791825885
scalar QosShowcase.ap.wlan[0].mac.dcf.channelAccess.pendingQueue outgoingPacketLengths:histogram:stddev 1260.5140231044
scalar QosShowcase.ap.wlan[0].mac.dcf.channelAccess.pendingQueue outgoingPacketLengths:histogram:min 272
scalar QosShowcase.ap.wlan[0].mac.dcf.channelAccess.pendingQueue outgoingPacketLengths:histogram:max 7712
scalar QosShowcase.ap.wlan[0].mac.dcf.channelAccess.pendingQueue outgoingPacketLengths:histogram:numbins 48
scalar QosShowcase.ap.wlan[0].mac.dcf.channelAccess.pendingQueue outgoingPacketLengths:histogram:rangemin 0
scalar QosShowcase.ap.wlan[0].mac.dcf.channelAccess.pendingQueue outgoingPacketLengths:histogram:rangemax 9600
scalar QosShowcase.ap.wlan[0].mac.dcf.channelAccess.pendingQueue outgoingPacketLengths:histogram:underflows 0
scalar QosShowcase.ap.wlan[0].mac.dcf.channelAccess.pendingQueue outgoingPacketLengths:histogram:overflows 0
scalar QosShowcase.ap.wlan[0].mac.dcf.channelAccess.pendingQueue flowQueueingTime:histogram:count 0
scalar QosShowcase.ap.wlan[0].mac.dcf.channelAccess.pendingQueue flowQueueingTime:histogram:sumweights 0
scalar QosShowcase.ap.wlan[0].mac.dcf.channelAccess.pendingQueue flowQueueingTime:histogram:mean -nan
scalar QosShowcase.ap.wlan[0].mac.dcf.channelAccess.pendingQueue flowQueueingTime:histogram:stddev nan
scalar QosShowcase.ap.wlan[0].mac.dcf.channelAccess.pendingQueue flowQueueingTime:histogram:min nan
scalar QosShowcase.ap.wlan[0].mac.dcf.channelAccess.pendingQueue flowQueueingTime:histogram:max nan
scalar QosShowcase.ap.wlan[0].mac.dcf.channelAccess.pendingQueue flowQueueingTime:histogram:numbins 1
scalar QosShowcase.ap.wlan[0].mac.dcf.channelAccess.pendingQueue flowQueueingTime:histogram:rangemin 0
scalar QosShowcase.ap.wlan[0].mac.dcf.channelAccess.pendingQueue flowQueueingTime:histogram:rangemax 1
scalar QosShowcase.ap.wlan[0].mac.dcf.channelAccess.pendingQueue flowQueueingTime:histogram:underflows 0
scalar QosShowcase.ap.wlan[0].mac.dcf.channelAccess.pendingQueue flowQueueingTime:histogram:overflows 0
scalar QosShowcase.ap.wlan[0].mac.dcf.channelAccess.pendingQueue incomingPacketLengths:histogram:count 6080
scalar QosShowcase.ap.wlan[0].mac.dcf.channelAccess.pendingQueue incomingPacketLengths:histogram:sumweights 6080
scalar QosShowcase.ap.wlan[0].mac.dcf.channelAccess.pendingQueue incomingPacketLengths:histogram:mean 7329.3671052632
scalar QosShowcase.ap.wlan[0].mac.dcf.channelAccess.pendingQueue incomingPacketLengths:histogram:stddev 1256.8152334813
scalar QosShowcase.ap.wlan[0].mac.dcf.channelAccess.pendingQueue incomingPacketLengths:histogram:min 272
scalar QosShowcase.ap.wlan[0].mac.dcf.channelAccess.pendingQueue incomingPacketLengths:histogram:max 7712
scalar QosShowcase.ap.wlan[0].mac.dcf.channelAccess.pendingQueue incomingPacketLengths:histogram:numbins 48
scalar QosShowcase.ap.wlan[0].mac.dcf.channelAccess.pendingQueue incomingPacketLengths:histogram:rangemin 0
scalar QosShowcase.ap.wlan[0].mac.dcf.channelAccess.pendingQueue incomingPacketLengths:histogram:rangemax 9600
scalar QosShowcase.ap.wlan[0].mac.dcf.channelAccess.pendingQueue incomingPacketLengths:histogram:underflows 0
scalar QosShowcase.ap.wlan[0].mac.dcf.channelAccess.pendingQueue incomingPacketLengths:histogram:overflows 0
scalar QosShowcase.ap.wlan[0].mac.dcf.channelAccess.inProgressFrames queueingTime:histogram:count 6019
scalar QosShowcase.ap.wlan[0].mac.dcf.channelAccess.inProgressFrames queueingTime:histogram:sumweights 6019
scalar QosShowcase.ap.wlan[0].mac.dcf.channelAccess.inProgressFrames queueingTime:histogram:mean 0.0010880956819611
scalar QosShowcase.ap.wlan[0].mac.dcf.channelAccess.inProgressFrames queueingTime:histogram:stddev 0.00051732320277271
scalar QosShowcase.ap.wlan[0].mac.dcf.channelAccess.inProgressFrames queueingTime:histogram:min 3.8e-05
scalar QosShowcase.ap.wlan[0].mac.dcf.channelAccess.inProgressFrames queueingTime:histogram:max 0.00630193849
scalar QosShowcase.ap.wlan[0].mac.dcf.channelAccess.inProgressFrames queueingTime:histogram:numbins 64
scalar QosShowcase.ap.wlan[0].mac.dcf.channelAccess.inProgressFrames queueingTime:histogram:rangemin 0
scalar QosShowcase.ap.wlan[0].mac.dcf.channelAccess.inProgressFrames queueingTime:histogram:rangemax 0.0064
scalar QosShowcase.ap.wlan[0].mac.dcf.channelAccess.inProgressFrames queueingTime:histogram:underflows 0
scalar QosShowcase.ap.wlan[0].mac.dcf.channelAccess.inProgressFrames queueingTime:histogram:overflows 0
scalar QosShowcase.ap.wlan[0].mac.dcf frameSequenceDuration:histogram:count 6209
scalar QosShowcase.ap.wlan[0].mac.dcf frameSequenceDuration:histogram:sumweights 6209
scalar QosShowcase.ap.wlan[0].mac.dcf frameSequenceDuration:histogram:mean 0.00020775252184186
scalar QosShowcase.ap.wlan[0].mac.dcf frameSequenceDuration:histogram:stddev 2.6354471159871e-05
scalar QosShowcase.ap.wlan[0].mac.dcf frameSequenceDuration:histogram:min 3.8e-05
scalar QosShowcase.ap.wlan[0].mac.dcf frameSequenceDuration:histogram:max 0.000225
scalar QosShowcase.ap.wlan[0].mac.dcf frameSequenceDuration:histogram:numbins 55
scalar QosShowcase.ap.wlan[0].mac.dcf frameSequenceDuration:histogram:rangemin 0
scalar QosShowcase.ap.wlan[0].mac.dcf frameSequenceDuration:histogram:rangemax 0.000275
scalar QosShowcase.ap.wlan[0].mac.dcf frameSequenceDuration:histogram:underflows 0
scalar QosShowcase.ap.wlan[0].mac.dcf frameSequenceDuration:histogram:overflows 0
scalar QosShowcase.ap.wlan[0].mac.dcf frameSequenceNumPackets:histogram:count 6209
scalar QosShowcase.ap.wlan[0].mac.dcf frameSequenceNumPackets:histogram:sumweights 6209
scalar QosShowcase.ap.wlan[0].mac.dcf frameSequenceNumPackets:histogram:mean 1.9837332903849
scalar QosShowcase.ap.wlan[0].mac.dcf frameSequenceNumPackets:histogram:stddev 0.12650961003751
scalar QosShowcase.ap.wlan[0].mac.dcf frameSequenceNumPackets:histogram:min 1
scalar QosShowcase.ap.wlan[0].mac.dcf frameSequenceNumPackets:histogram:max 2
scalar QosShowcase.ap.wlan[0].mac.dcf frameSequenceNumPackets:histogram:numbins 3
scalar QosShowcase.ap.wlan[0].mac.dcf frameSequenceNumPackets:histogram:rangemin 0
scalar QosShowcase.ap.wlan[0].mac.dcf frameSequenceNumPackets:histogram:rangemax 3
scalar QosShowcase.ap.wlan[0].mac.dcf frameSequenceNumPackets:histogram:underflows 0
scalar QosShowcase.ap.wlan[0].mac.dcf frameSequenceNumPackets:histogram:overflows 0
scalar QosShowcase.ap.wlan[0].radio radioChannel:histogram:count 1
scalar QosShowcase.ap.wlan[0].radio radioChannel:histogram:sumweights 1
scalar QosShowcase.ap.wlan[0].radio radioChannel:histogram:mean 0
scalar QosShowcase.ap.wlan[0].radio radioChannel:histogram:stddev nan
scalar QosShowcase.ap.wlan[0].radio radioChannel:histogram:min 0
scalar QosShowcase.ap.wlan[0].radio radioChannel:histogram:max 0
scalar QosShowcase.ap.wlan[0].radio radioChannel:histogram:numbins 50
scalar QosShowcase.ap.wlan[0].radio radioChannel:histogram:rangemin -0.5
scalar QosShowcase.ap.wlan[0].radio radioChannel:histogram:rangemax 0.5
scalar QosShowcase.ap.wlan[0].radio radioChannel:histogram:underflows 0
scalar QosShowcase.ap.wlan[0].radio radioChannel:histogram:overflows 0
scalar QosShowcase.ap.wlan[0].radio minSnir:histogram:count 11898
scalar QosShowcase.ap.wlan[0].radio minSnir:histogram:sumweights 11898
scalar QosShowcase.ap.wlan[0].radio minSnir:histogram:mean 9782.8877605203
scalar QosShowcase.ap.wlan[0].radio minSnir:histogram:stddev 0
scalar QosShowcase.ap.wlan[0].radio minSnir:histogram:min 9782.8877605193
scalar QosShowcase.ap.wlan[0].radio minSnir:histogram:max 9782.8877605193
scalar QosShowcase.ap.wlan[0].radio minSnir:histogram:numbins 51
scalar QosShowcase.ap.wlan[0].radio minSnir:histogram:rangemin 9782.38
scalar QosShowcase.ap.wlan[0].radio minSnir:histogram:rangemax 9783.4
scalar QosShowcase.ap.wlan[0].radio minSnir:histogram:underflows 0
scalar QosShowcase.ap.wlan[0].radio minSnir:histogram:overflows 0
scalar QosShowcase.ap.wlan[0].radio packetErrorRate:histogram:count 11898
scalar QosShowcase.ap.wlan[0].radio packetErrorRate:histogram:sumweights 11898
scalar QosShowcase.ap.wlan[0].radio packetErrorRate:histogram:mean 0
scalar QosShowcase.ap.wlan[0].radio packetErrorRate:histogram:stddev 0
scalar QosShowcase.ap.wlan[0].radio packetErrorRate:histogram:min 0
scalar QosShowcase.ap.wlan[0].radio packetErrorRate:histogram:max 0
scalar QosShowcase.ap.wlan[0].radio packetErrorRate:histogram:numbins 50
scalar QosShowcase.ap.wlan[0].radio packetErrorRate:histogram:rangemin -0.5
scalar QosShowcase.ap.wlan[0].radio packetErrorRate:histogram:rangemax 0.5
scalar QosShowcase.ap.wlan[0].radio packetErrorRate:histogram:underflows 0
scalar QosShowcase.ap.wlan[0].radio packetErrorRate:histogram:overflows 0
scalar QosShowcase.ap.wlan[0].radio bitErrorRate:histogram:count 0
scalar QosShowcase.ap.wlan[0].radio bitErrorRate:histogram:sumweights 0
scalar QosShowcase.ap.wlan[0].radio bitErrorRate:histogram:mean -nan
scalar QosShowcase.ap.wlan[0].radio bitErrorRate:histogram:stddev nan
scalar QosShowcase.ap.wlan[0].radio bitErrorRate:histogram:min nan
scalar QosShowcase.ap.wlan[0].radio bitErrorRate:histogram:max nan
scalar QosShowcase.ap.wlan[0].radio bitErrorRate:histogram:numbins 1
scalar QosShowcase.ap.wlan[0].radio bitErrorRate:histogram:rangemin 0
scalar QosShowcase.ap.wlan[0].radio bitErrorRate:histogram:rangemax 1
scalar QosShowcase.ap.wlan[0].radio bitErrorRate:histogram:underflows 0
scalar QosShowcase.ap.wlan[0].radio bitErrorRate:histogram:overflows 0
scalar QosShowcase.ap.wlan[0].radio symbolErrorRate:histogram:count 0
scalar QosShowcase.ap.wlan[0].radio symbolErrorRate:histogram:sumweights 0
scalar QosShowcase.ap.wlan[0].radio symbolErrorRate:histogram:mean -nan
scalar QosShowcase.ap.wlan[0].radio symbolErrorRate:histogram:stddev nan
scalar QosShowcase.ap.wlan[0].radio symbolErrorRate:histogram:min nan
scalar QosShowcase.ap.wlan[0].radio symbolErrorRate:histogram:max nan
scalar QosShowcase.ap.wlan[0].radio symbolErrorRate:histogram:numbins 1
scalar QosShowcase.ap.wlan[0].radio symbolErrorRate:histogram:rangemin 0
scalar QosShowcase.ap.wlan[0].radio symbolErrorRate:histogram:rangemax 1
scalar QosShowcase.ap.wlan[0].radio symbolErrorRate:histogram:underflows 0
scalar QosShowcase.ap.wlan[0].radio symbolErrorRate:histogram:overflows 0
scalar QosShowcase.server.wlan[0].mac.dcf.channelAccess.pendingQueue queueingTime:histogram:count 5
scalar QosShowcase.server.wlan[0].mac.dcf.channelAccess.pendingQueue queueingTime:histogram:sumweights 5
scalar QosShowcase.server.wlan[0].mac.dcf.channelAccess.pendingQueue queueingTime:histogram:mean 0.0003156
scalar QosShowcase.server.wlan[0].mac.dcf.channelAccess.pendingQueue queueingTime:histogram:stddev 0.00030261989359591
scalar QosShowcase.server.wlan[0].mac.dcf.channelAccess.pendingQueue queueingTime:histogram:min 0
scalar QosShowcase.server.wlan[0].mac.dcf.channelAccess.pendingQueue queueingTime:histogram:max 0.00067
scalar QosShowcase.server.wlan[0].mac.dcf.channelAccess.pendingQueue queueingTime:histogram:numbins 84
scalar QosShowcase.server.wlan[0].mac.dcf.channelAccess.pendingQueue queueingTime:histogram:rangemin 0
scalar QosShowcase.server.wlan[0].mac.dcf.channelAccess.pendingQueue queueingTime:histogram:rangemax 0.00084
scalar QosShowcase.server.wlan[0].mac.dcf.channelAccess.pendingQueue queueingTime:histogram:underflows 0
scalar QosShowcase.server.wlan[0].mac.dcf.channelAccess.pendingQueue queueingTime:histogram:overflows 0
scalar QosShowcase.server.wlan[0].mac.dcf.channelAccess.pendingQueue outgoingPacketLengths:histogram:count 5
scalar QosShowcase.server.wlan[0].mac.dcf.channelAccess.pendingQueue outgoingPacketLengths:histogram:sumweights 5
scalar QosShowcase.server.wlan[0].mac.dcf.channelAccess.pendingQueue outgoingPacketLengths:histogram:mean 332.8
scalar QosShowcase.server.wlan[0].mac.dcf.channelAccess.pendingQueue outgoingPacketLengths:histogram:stddev 102.07448260951
scalar QosShowcase.server.wlan[0].mac.dcf.channelAccess.pendingQueue outgoingPacketLengths:histogram:min 272
scalar QosShowcase.server.wlan[0].mac.dcf.channelAccess.pendingQueue outgoingPacketLengths:histogram:max 512
scalar QosShowcase.server.wlan[0].mac.dcf.channelAccess.pendingQueue outgoingPacketLengths:histogram:numbins 73
scalar QosShowcase.server.wlan[0].mac.dcf.channelAccess.pendingQueue outgoingPacketLengths:histogram:rangemin 210
scalar QosShowcase.server.wlan[0].mac.dcf.channelAccess.pendingQueue outgoingPacketLengths:histogram:rangemax 575
scalar QosShowcase.server.wlan[0].mac.dcf.channelAccess.pendingQueue outgoingPacketLengths:histogram:underflows 0
scalar QosShowcase.server.wlan[0].mac.dcf.channelAccess.pendingQueue outgoingPacketLengths:histogram:overflows 0
scalar QosShowcase.server.wlan[0].mac.dcf.channelAccess.pendingQueue flowQueueingTime:histogram:count 0
scalar QosShowcase.server.wlan[0].mac.dcf.channelAccess.pendingQueue flowQueueingTime:histogram:sumweights 0
scalar QosShowcase.server.wlan[0].mac.dcf.channelAccess.pendingQueue flowQueueingTime:histogram:mean -nan
scalar QosShowcase.server.wlan[0].mac.dcf.channelAccess.pendingQueue flowQueueingTime:histogram:stddev nan
scalar QosShowcase.server.wlan[0].mac.dcf.channelAccess.pendingQueue flowQueueingTime:histogram:min nan
scalar QosShowcase.server.wlan[0].mac.dcf.channelAccess.pendingQueue flowQueueingTime:histogram:max nan
scalar QosShowcase.server.wlan[0].mac.dcf.channelAccess.pendingQueue flowQueueingTime:histogram:numbins 1
scalar QosShowcase.server.wlan[0].mac.dcf.channelAccess.pendingQueue flowQueueingTime:histogram:rangemin 0
scalar QosShowcase.server.wlan[0].mac.dcf.channelAccess.pendingQueue flowQueueingTime:histogram:rangemax 1
scalar QosShowcase.server.wlan[0].mac.dcf.channelAccess.pendingQueue flowQueueingTime:histogram:underflows 0
scalar QosShowcase.server.wlan[0].mac.dcf.channelAccess.pendingQueue flowQueueingTime:histogram:overflows 0
scalar QosShowcase.server.wlan[0].mac.dcf.channelAccess.pendingQueue incomingPacketLengths:histogram:count 5
scalar QosShowcase.server.wlan[0].mac.dcf.channelAccess.pendingQueue incomingPacketLengths:histogram:sumweights 5
scalar QosShowcase.server.wlan[0].mac.dcf.channelAccess.pendingQueue incomingPacketLengths:histogram:mean 332.8
scalar QosShowcase.server.wlan[0].mac.dcf.channelAccess.pendingQueue incomingPacketLengths:histogram:stddev 102.07448260951
scalar QosShowcase.server.wlan[0].mac.dcf.channelAccess.pendingQueue incomingPacketLengths:histogram:min 272
scalar QosShowcase.server.wlan[0].mac.dcf.channelAccess.pendingQueue incomingPacketLengths:histogram:max 512
scalar QosShowcase.server.wlan[0].mac.dcf.channelAccess.pendingQueue incomingPacketLengths:histogram:numbins 73
scalar QosShowcase.server.wlan[0].mac.dcf.channelAccess.pendingQueue incomingPacketLengths:histogram:rangemin 210
scalar QosShowcase.server.wlan[0].mac.dcf.channelAccess.pendingQueue incomingPacketLengths:histogram:rangemax 575
scalar QosShowcase.server.wlan[0].mac.dcf.channelAccess.pendingQueue incomingPacketLengths:histogram:underflows 0
scalar QosShowcase.server.wlan[0].mac.dcf.channelAccess.pendingQueue incomingPacketLengths:histogram:overflows 0
scalar QosShowcase.server.wlan[0].mac.dcf.channelAccess.inProgressFrames queueingTime:histogram:count 5
scalar QosShowcase.server.wlan[0].mac.dcf.channelAccess.inProgressFrames queueingTime:histogram:sumweights 5
scalar QosShowcase.server.wlan[0].mac.dcf.channelAccess.inProgressFrames queueingTime:histogram:mean 7.71547696e-05
scalar QosShowcase.server.wlan[0].mac.dcf.channelAccess.inProgressFrames queueingTime:histogram:stddev 1.9728293654271e-05
scalar QosShowcase.server.wlan[0].mac.dcf.channelAccess.inProgressFrames queueingTime:histogram:min 4.2e-05
scalar QosShowcase.server.wlan[0].mac.dcf.channelAccess.inProgressFrames queueingTime:histogram:max 8.6943462e-05
scalar QosShowcase.server.wlan[0].mac.dcf.channelAccess.inProgressFrames queueingTime:histogram:numbins 69
scalar QosShowcase.server.wlan[0].mac.dcf.channelAccess.inProgressFrames queueingTime:histogram:rangemin 3e-05
scalar QosShowcase.server.wlan[0].mac.dcf.channelAccess.inProgressFrames queueingTime:histogram:rangemax 9.9e-05
scalar QosShowcase.server.wlan[0].mac.dcf.channelAccess.inProgressFrames queueingTime:histogram:underflows 0
scalar QosShowcase.server.wlan[0].mac.dcf.channelAccess.inProgressFrames queueingTime:histogram:overflows 0
scalar QosShowcase.server.wlan[0].mac.dcf frameSequenceDuration:histogram:count 5
scalar QosShowcase.server.wlan[0].mac.dcf frameSequenceDuration:histogram:sumweights 5
scalar QosShowcase.server.wlan[0].mac.dcf frameSequenceDuration:histogram:mean 7.71547696e-05
scalar QosShowcase.server.wlan[0].mac.dcf frameSequenceDuration:histogram:stddev 1.9728293654271e-05
scalar QosShowcase.server.wlan[0].mac.dcf frameSequenceDuration:histogram:min 4.2e-05
scalar QosShowcase.server.wlan[0].mac.dcf frameSequenceDuration:histogram:max 8.6943462e-05
scalar QosShowcase.server.wlan[0].mac.dcf frameSequenceDuration:histogram:numbins 69
scalar QosShowcase.server.wlan[0].mac.dcf frameSequenceDuration:histogram:rangemin 3e-05
scalar QosShowcase.server.wlan[0].mac.dcf frameSequenceDuration:histogram:rangemax 9.9e-05
scalar QosShowcase.server.wlan[0].mac.dcf frameSequenceDuration:histogram:underflows 0
scalar QosShowcase.server.wlan[0].mac.dcf frameSequenceDuration:histogram:overflows 0
scalar QosShowcase.server.wlan[0].mac.dcf frameSequenceNumPackets:histogram:count 5
scalar QosShowcase.server.wlan[0].mac.dcf frameSequenceNumPackets:histogram:sumweights 5
scalar QosShowcase.server.wlan[0].mac.dcf frameSequenceNumPackets:histogram:mean 1.8
scalar QosShowcase.server.wlan[0].mac.dcf frameSequenceNumPackets:histogram:stddev 0.44721359549996
scalar QosShowcase.server.wlan[0].mac.dcf frameSequenceNumPackets:histogram:min 1
scalar QosShowcase.server.wlan[0].mac.dcf frameSequenceNumPackets:histogram:max 2
scalar QosShowcase.server.wlan[0].mac.dcf frameSequenceNumPackets:histogram:numbins 3
scalar QosShowcase.server.wlan[0].mac.dcf frameSequenceNumPackets:histogram:rangemin 0
scalar QosShowcase.server.wlan[0].mac.dcf frameSequenceNumPackets:histogram:rangemax 3
scalar QosShowcase.server.wlan[0].mac.dcf frameSequenceNumPackets:histogram:underflows 0
scalar QosShowcase.server.wlan[0].mac.dcf frameSequenceNumPackets:histogram:overflows 0
scalar QosShowcase.server.wlan[0].radio radioChannel:histogram:count 4
scalar QosShowcase.server.wlan[0].radio radioChannel:histogram:sumweights 4
scalar QosShowcase.server.wlan[0].radio radioChannel:histogram:mean 0
scalar QosShowcase.server.wlan[0].radio radioChannel:histogram:stddev 0
scalar QosShowcase.server.wlan[0].radio radioChannel:histogram:min 0
scalar QosShowcase.server.wlan[0].radio radioChannel:histogram:max 0
scalar QosShowcase.server.wlan[0].radio radioChannel:histogram:numbins 50
scalar QosShowcase.server.wlan[0].radio radioChannel:histogram:rangemin -0.5
scalar QosShowcase.server.wlan[0].radio radioChannel:histogram:rangemax 0.5
scalar QosShowcase.server.wlan[0].radio radioChannel:histogram:underflows 0
scalar QosShowcase.server.wlan[0].radio radioChannel:histogram:overflows 0
scalar QosShowcase.server.wlan[0].radio minSnir:histogram:count 18167
scalar QosShowcase.server.wlan[0].radio minSnir:histogram:sumweights 18167
scalar QosShowcase.server.wlan[0].radio minSnir:histogram:mean 8069.9475918462
scalar QosShowcase.server.wlan[0].radio minSnir:histogram:stddev 2438.7918314235
scalar QosShowcase.server.wlan[0].radio minSnir:histogram:min 1.9995912063482
scalar QosShowcase.server.wlan[0].radio minSnir:histogram:max 9782.8877605193
scalar QosShowcase.server.wlan[0].radio minSnir:histogram:numbins 56
scalar QosShowcase.server.wlan[0].radio minSnir:histogram:rangemin 0
scalar QosShowcase.server.wlan[0].radio minSnir:histogram:rangemax 11200
scalar QosShowcase.server.wlan[0].radio minSnir:histogram:underflows 0
scalar QosShowcase.server.wlan[0].radio minSnir:histogram:overflows 0
scalar QosShowcase.server.wlan[0].radio packetErrorRate:histogram:count 18167
scalar QosShowcase.server.wlan[0].radio packetErrorRate:histogram:sumweights 18167
scalar QosShowcase.server.wlan[0].radio packetErrorRate:histogram:mean 0.010513568558375
scalar QosShowcase.server.wlan[0].radio packetErrorRate:histogram:stddev 0.10199806909741
scalar QosShowcase.server.wlan[0].radio packetErrorRate:histogram:min 0
scalar QosShowcase.server.wlan[0].radio packetErrorRate:histogram:max 1
scalar QosShowcase.server.wlan[0].radio packetErrorRate:histogram:numbins 76
scalar QosShowcase.server.wlan[0].radio packetErrorRate:histogram:rangemin -0.5
scalar QosShowcase.server.wlan[0].radio packetErrorRate:histogram:rangemax 1.02
scalar QosShowcase.server.wlan[0].radio packetErrorRate:histogram:underflows 0
scalar QosShowcase.server.wlan[0].radio packetErrorRate:histogram:overflows 0
scalar QosShowcase.server.wlan[0].radio bitErrorRate:histogram:count 0
scalar QosShowcase.server.wlan[0].radio bitErrorRate:histogram:sumweights 0
scalar QosShowcase.server.wlan[0].radio bitErrorRate:histogram:mean -nan
scalar QosShowcase.server.wlan[0].radio bitErrorRate:histogram:stddev nan
scalar QosShowcase.server.wlan[0].radio bitErrorRate:histogram:min nan
scalar QosShowcase.server.wlan[0].radio bitErrorRate:histogram:max nan
scalar QosShowcase.server.wlan[0].radio bitErrorRate:histogram:numbins 1
scalar QosShowcase.server.wlan[0].radio bitErrorRate:histogram:rangemin 0
scalar QosShowcase.server.wlan[0].radio bitErrorRate:histogram:rangemax 1
scalar QosShowcase.server.wlan[0].radio bitErrorRate:histogram:underflows 0
scalar QosShowcase.server.wlan[0].radio bitErrorRate:histogram:overflows 0
scalar QosShowcase.server.wlan[0].radio symbolErrorRate:histogram:count 0
scalar QosShowcase.server.wlan[0].radio symbolErrorRate:histogram:sumweights 0
scalar QosShowcase.server.wlan[0].radio symbolErrorRate:histogram:mean -nan
scalar QosShowcase.server.wlan[0].radio symbolErrorRate:histogram:stddev nan
scalar QosShowcase.server.wlan[0].radio symbolErrorRate:histogram:min nan
scalar QosShowcase.server.wlan[0].radio symbolErrorRate:histogram:max nan
scalar QosShowcase.server.wlan[0].radio symbolErrorRate:histogram:numbins 1
scalar QosShowcase.server.wlan[0].radio symbolErrorRate:histogram:rangemin 0
scalar QosShowcase.server.wlan[0].radio symbolErrorRate:histogram:rangemax 1
scalar QosShowcase.server.wlan[0].radio symbolErrorRate:histogram:underflows 0
scalar QosShowcase.server.wlan[0].radio symbolErrorRate:histogram:overflows 0
scalar QosShowcase.server.app[0] endToEndDelay:histogram:count 2268
scalar QosShowcase.server.app[0] endToEndDelay:histogram:sumweights 2268
scalar QosShowcase.server.app[0] endToEndDelay:histogram:mean 0.12840969497457
scalar QosShowcase.server.app[0] endToEndDelay:histogram:stddev 0.030611539925288
scalar QosShowcase.server.app[0] endToEndDelay:histogram:min 0.002885773848
scalar QosShowcase.server.app[0] endToEndDelay:histogram:max 0.181361642271
scalar QosShowcase.server.app[0] endToEndDelay:histogram:numbins 46
scalar QosShowcase.server.app[0] endToEndDelay:histogram:rangemin 0
scalar QosShowcase.server.app[0] endToEndDelay:histogram:rangemax 0.184
scalar QosShowcase.server.app[0] endToEndDelay:histogram:underflows 0
scalar QosShowcase.server.app[0] endToEndDelay:histogram:overflows 0
scalar QosShowcase.server.app[1] endToEndDelay:histogram:count 3081
scalar QosShowcase.server.app[1] endToEndDelay:histogram:sumweights 3081
scalar QosShowcase.server.app[1] endToEndDelay:histogram:mean 0.12864404052951
scalar QosShowcase.server.app[1] endToEndDelay:histogram:stddev 0.030408264004006
scalar QosShowcase.server.app[1] endToEndDelay:histogram:min 0.003150492916
scalar QosShowcase.server.app[1] endToEndDelay:histogram:max 0.181119186554
scalar QosShowcase.server.app[1] endToEndDelay:histogram:numbins 46
scalar QosShowcase.server.app[1] endToEndDelay:histogram:rangemin 0
scalar QosShowcase.server.app[1] endToEndDelay:histogram:rangemax 0.184
scalar QosShowcase.server.app[1] endToEndDelay:histogram:underflows 0
scalar QosShowcase.server.app[1] endToEndDelay:histogram:overflows 0
scalar QosShowcase.server.app[2] endToEndDelay:histogram:count 517
scalar QosShowcase.server.app[2] endToEndDelay:histogram:sumweights 517
scalar QosShowcase.server.app[2] endToEndDelay:histogram:mean 0.12809954548831
scalar QosShowcase.server.app[2] endToEndDelay:histogram:stddev 0.031514702637562
scalar QosShowcase.server.app[2] endToEndDelay:histogram:min 0.00556828164
scalar QosShowcase.server.app[2] endToEndDelay:histogram:max 0.180708791846
scalar QosShowcase.server.app[2] endToEndDelay:histogram:numbins 46
scalar QosShowcase.server.app[2] endToEndDelay:histogram:rangemin 0
scalar QosShowcase.server.app[2] endToEndDelay:histogram:rangemax 0.184
scalar QosShowcase.server.app[2] endToEndDelay:histogram:underflows 0
scalar QosShowcase.server.app[2] endToEndDelay:histogram:overflows 0
scalar QosShowcase.server.app[3] endToEndDelay:histogram:count 43
scalar QosShowcase.server.app[3] endToEndDelay:histogram:sumweights 43
scalar QosShowcase.server.app[3] endToEndDelay:histogram:mean 0.12896988856209
scalar QosShowcase.server.app[3] endToEndDelay:histogram:stddev 0.028344450396702
scalar QosShowcase.server.app[3] endToEndDelay:histogram:min 0.051069654395
scalar QosShowcase.server.app[3] endToEndDelay:histogram:max 0.169107730839
scalar QosShowcase.server.app[3] endToEndDelay:histogram:numbins 90
scalar QosShowcase.server.app[3] endToEndDelay:histogram:rangemin 0.02
scalar QosShowcase.server.app[3] endToEndDelay:histogram:rangemax 0.2
scalar QosShowcase.server.app[3] endToEndDelay:histogram:underflows 0
scalar QosShowcase.server.app[3] endToEndDelay:histogram:overflows 0
scalar QosShowcase.client.wlan[0].mac.dcf.channelAccess.pendingQueue queueingTime:histogram:count 5975
scalar QosShowcase.client.wlan[0].mac.dcf.channelAccess.pendingQueue queueingTime:histogram:sumweights 5975
scalar QosShowcase.client.wlan[0].mac.dcf.channelAccess.pendingQueue queueingTime:histogram:mean 0.084117997203389
scalar QosShowcase.client.wlan[0].mac.dcf.channelAccess.pendingQueue queueingTime:histogram:stddev 0.0085807869560126
scalar QosShowcase.client.wlan[0].mac.dcf.channelAccess.pendingQueue queueingTime:histogram:min 0
scalar QosShowcase.client.wlan[0].mac.dcf.channelAccess.pendingQueue queueingTime:histogram:max 0.103018090323
scalar QosShowcase.client.wlan[0].mac.dcf.channelAccess.pendingQueue queueingTime:histogram:numbins 56
scalar QosShowcase.client.wlan[0].mac.dcf.channelAccess.pendingQueue queueingTime:histogram:rangemin 0
scalar QosShowcase.client.wlan[0].mac.dcf.channelAccess.pendingQueue queueingTime:histogram:rangemax 0.112
scalar QosShowcase.client.wlan[0].mac.dcf.channelAccess.pendingQueue queueingTime:histogram:underflows 0
scalar QosShowcase.client.wlan[0].mac.dcf.channelAccess.pendingQueue queueingTime:histogram:overflows 0
scalar QosShowcase.client.wlan[0].mac.dcf.channelAccess.pendingQueue outgoingPacketLengths:histogram:count 5975
scalar QosShowcase.client.wlan[0].mac.dcf.channelAccess.pendingQueue outgoingPacketLengths:histogram:sumweights 5975
scalar QosShowcase.client.wlan[0].mac.dcf.channelAccess.pendingQueue outgoingPacketLengths:histogram:mean 7450.3270292887
scalar QosShowcase.client.wlan[0].mac.dcf.channelAccess.pendingQueue outgoingPacketLengths:histogram:stddev 871.76634748697
scalar QosShowcase.client.wlan[0].mac.dcf.channelAccess.pendingQueue outgoingPacketLengths:histogram:min 272
scalar QosShowcase.client.wlan[0].mac.dcf.channelAccess.pendingQueue outgoingPacketLengths:histogram:max 7712
scalar QosShowcase.client.wlan[0].mac.dcf.channelAccess.pendingQueue outgoingPacketLengths:histogram:numbins 48
scalar QosShowcase.client.wlan[0].mac.dcf.channelAccess.pendingQueue outgoingPacketLengths:histogram:rangemin 0
scalar QosShowcase.client.wlan[0].mac.dcf.channelAccess.pendingQueue outgoingPacketLengths:histogram:rangemax 9600
scalar QosShowcase.client.wlan[0].mac.dcf.channelAccess.pendingQueue outgoingPacketLengths:histogram:underflows 0
scalar QosShowcase.client.wlan[0].mac.dcf.channelAccess.pendingQueue outgoingPacketLengths:histogram:overflows 0
scalar QosShowcase.client.wlan[0].mac.dcf.channelAccess.pendingQueue flowQueueingTime:histogram:count 0
scalar QosShowcase.client.wlan[0].mac.dcf.channelAccess.pendingQueue flowQueueingTime:histogram:sumweights 0
scalar QosShowcase.client.wlan[0].mac.dcf.channelAccess.pendingQueue flowQueueingTime:histogram:mean -nan
scalar QosShowcase.client.wlan[0].mac.dcf.channelAccess.pendingQueue flowQueueingTime:histogram:stddev nan
scalar QosShowcase.client.wlan[0].mac.dcf.channelAccess.pendingQueue flowQueueingTime:histogram:min nan
scalar QosShowcase.client.wlan[0].mac.dcf.channelAccess.pendingQueue flowQueueingTime:histogram:max nan
scalar QosShowcase.client.wlan[0].mac.dcf.channelAccess.pendingQueue flowQueueingTime:histogram:numbins 1
scalar QosShowcase.client.wlan[0].mac.dcf.channelAccess.pendingQueue flowQueueingTime:histogram:rangemin 0
scalar QosShowcase.client.wlan[0].mac.dcf.channelAccess.pendingQueue flowQueueingTime:histogram:rangemax 1
scalar QosShowcase.client.wlan[0].mac.dcf.channelAccess.pendingQueue flowQueueingTime:histogram:underflows 0
scalar QosShowcase.client.wlan[0].mac.dcf.channelAccess.pendingQueue flowQueueingTime:histogram:overflows 0
scalar QosShowcase.client.wlan[0].mac.dcf.channelAccess.pendingQueue incomingPacketLengths:histogram:count 42187
scalar QosShowcase.client.wlan[0].mac.dcf.channelAccess.pendingQueue incomingPacketLengths:histogram:sumweights 42187
scalar QosShowcase.client.wlan[0].mac.dcf.channelAccess.pendingQueue incomingPacketLengths:histogram:mean 7353.1952497215
scalar QosShowcase.client.wlan[0].mac.dcf.channelAccess.pendingQueue incomingPacketLengths:histogram:stddev 1007.9698814507
scalar QosShowcase.client.wlan[0].mac.dcf.channelAccess.pendingQueue incomingPacketLengths:histogram:min 272
scalar QosShowcase.client.wlan[0].mac.dcf.channelAccess.pendingQueue incomingPacketLengths:histogram:max 7712
scalar QosShowcase.client.wlan[0].mac.dcf.channelAccess.pendingQueue incomingPacketLengths:histogram:numbins 48
scalar QosShowcase.client.wlan[0].mac.dcf.channelAccess.pendingQueue incomingPacketLengths:histogram:rangemin 0
scalar QosShowcase.client.wlan[0].mac.dcf.channelAccess.pendingQueue incomingPacketLengths:histogram:rangemax 9600
scalar QosShowcase.client.wlan[0].mac.dcf.channelAccess.pendingQueue incomingPacketLengths:histogram:underflows 0
scalar QosShowcase.client.wlan[0].mac.dcf.channelAccess.pendingQueue incomingPacketLengths:histogram:overflows 0
scalar QosShowcase.client.wlan[0].mac.dcf.channelAccess.inProgressFrames queueingTime:histogram:count 5975
scalar QosShowcase.client.wlan[0].mac.dcf.channelAccess.inProgressFrames queueingTime:histogram:sumweights 5975
scalar QosShowcase.client.wlan[0].mac.dcf.channelAccess.inProgressFrames queueingTime:histogram:mean 0.0010991142886467
scalar QosShowcase.client.wlan[0].mac.dcf.channelAccess.inProgressFrames queueingTime:histogram:stddev 0.00055457435839641
scalar QosShowcase.client.wlan[0].mac.dcf.channelAccess.inProgressFrames queueingTime:histogram:min 4.2e-05
scalar QosShowcase.client.wlan[0].mac.dcf.channelAccess.inProgressFrames queueingTime:histogram:max 0.008321988672
scalar QosShowcase.client.wlan[0].mac.dcf.channelAccess.inProgressFrames queueingTime:histogram:numbins 56
scalar QosShowcase.client.wlan[0].mac.dcf.channelAccess.inProgressFrames queueingTime:histogram:rangemin 0
scalar QosShowcase.client.wlan[0].mac.dcf.channelAccess.inProgressFrames queueingTime:histogram:rangemax 0.0084
scalar QosShowcase.client.wlan[0].mac.dcf.channelAccess.inProgressFrames queueingTime:histogram:underflows 0
scalar QosShowcase.client.wlan[0].mac.dcf.channelAccess.inProgressFrames queueingTime:histogram:overflows 0
scalar QosShowcase.client.wlan[0].mac.dcf frameSequenceDuration:histogram:count 6166
scalar QosShowcase.client.wlan[0].mac.dcf frameSequenceDuration:histogram:sumweights 6166
scalar QosShowcase.client.wlan[0].mac.dcf frameSequenceDuration:histogram:mean 0.00021048284819788
scalar QosShowcase.client.wlan[0].mac.dcf frameSequenceDuration:histogram:stddev 1.6066285731617e-05
scalar QosShowcase.client.wlan[0].mac.dcf frameSequenceDuration:histogram:min 4.2e-05
scalar QosShowcase.client.wlan[0].mac.dcf frameSequenceDuration:histogram:max 0.000225
scalar QosShowcase.client.wlan[0].mac.dcf frameSequenceDuration:histogram:numbins 55
scalar QosShowcase.client.wlan[0].mac.dcf frameSequenceDuration:histogram:rangemin 0
scalar QosShowcase.client.wlan[0].mac.dcf frameSequenceDuration:histogram:rangemax 0.000275
scalar QosShowcase.client.wlan[0].mac.dcf frameSequenceDuration:histogram:underflows 0
scalar QosShowcase.client.wlan[0].mac.dcf frameSequenceDuration:histogram:overflows 0
scalar QosShowcase.client.wlan[0].mac.dcf frameSequenceNumPackets:histogram:count 6166
scalar QosShowcase.client.wlan[0].mac.dcf frameSequenceNumPackets:histogram:sumweights 6166
scalar QosShowcase.client.wlan[0].mac.dcf frameSequenceNumPackets:histogram:mean 1.9998378203049
scalar QosShowcase.client.wlan[0].mac.dcf frameSequenceNumPackets:histogram:stddev 0.012734979195203
scalar QosShowcase.client.wlan[0].mac.dcf frameSequenceNumPackets:histogram:min 1
scalar QosShowcase.client.wlan[0].mac.dcf frameSequenceNumPackets:histogram:max 2
scalar QosShowcase.client.wlan[0].mac.dcf frameSequenceNumPackets:histogram:numbins 3
scalar QosShowcase.client.wlan[0].mac.dcf frameSequenceNumPackets:histogram:rangemin 0
scalar QosShowcase.client.wlan[0].mac.dcf frameSequenceNumPackets:histogram:rangemax 3
scalar QosShowcase.client.wlan[0].mac.dcf frameSequenceNumPackets:histogram:underflows 0
scalar QosShowcase.client.wlan[0].mac.dcf frameSequenceNumPackets:histogram:overflows 0
scalar QosShowcase.client.wlan[0].radio radioChannel:histogram:count 4
scalar QosShowcase.client.wlan[0].radio radioChannel:histogram:sumweights 4
scalar QosShowcase.client.wlan[0].radio radioChannel:histogram:mean 0
scalar QosShowcase.client.wlan[0].radio radioChannel:histogram:stddev 0
scalar QosShowcase.client.wlan[0].radio radioChannel:histogram:min 0
scalar QosShowcase.client.wlan[0].radio radioChannel:histogram:max 0
scalar QosShowcase.client.wlan[0].radio radioChannel:histogram:numbins 50
scalar QosShowcase.client.wlan[0].radio radioChannel:histogram:rangemin -0.5
scalar QosShowcase.client.wlan[0].radio radioChannel:histogram:rangemax 0.5
scalar QosShowcase.client.wlan[0].radio radioChannel:histogram:underflows 0
scalar QosShowcase.client.wlan[0].radio radioChannel:histogram:overflows 0
scalar QosShowcase.client.wlan[0].radio minSnir:histogram:count 17914
scalar QosShowcase.client.wlan[0].radio minSnir:histogram:sumweights 17914
scalar QosShowcase.client.wlan[0].radio minSnir:histogram:mean 8166.9692117104
scalar QosShowcase.client.wlan[0].radio minSnir:histogram:stddev 2300.7124163828
scalar QosShowcase.client.wlan[0].radio minSnir:histogram:min 4891.4438802596
scalar QosShowcase.client.wlan[0].radio minSnir:histogram:max 9782.8877605193
scalar QosShowcase.client.wlan[0].radio minSnir:histogram:numbins 75
scalar QosShowcase.client.wlan[0].radio minSnir:histogram:rangemin 3600
scalar QosShowcase.client.wlan[0].radio minSnir:histogram:rangemax 11100
scalar QosShowcase.client.wlan[0].radio minSnir:histogram:underflows 0
scalar QosShowcase.client.wlan[0].radio minSnir:histogram:overflows 0
scalar QosShowcase.client.wlan[0].radio packetErrorRate:histogram:count 17914
scalar QosShowcase.client.wlan[0].radio packetErrorRate:histogram:sumweights 17914
scalar QosShowcase.client.wlan[0].radio packetErrorRate:histogram:mean 0
scalar QosShowcase.client.wlan[0].radio packetErrorRate:histogram:stddev 0
scalar QosShowcase.client.wlan[0].radio packetErrorRate:histogram:min 0
scalar QosShowcase.client.wlan[0].radio packetErrorRate:histogram:max 0
scalar QosShowcase.client.wlan[0].radio packetErrorRate:histogram:numbins 50
scalar QosShowcase.client.wlan[0].radio packetErrorRate:histogram:rangemin -0.5
scalar QosShowcase.client.wlan[0].radio packetErrorRate:histogram:rangemax 0.5
scalar QosShowcase.client.wlan[0].radio packetErrorRate:histogram:underflows 0
scalar QosShowcase.client.wlan[0].radio packetErrorRate:histogram:overflows 0
scalar QosShowcase.client.wlan[0].radio bitErrorRate:histogram:count 0
scalar QosShowcase.client.wlan[0].radio bitErrorRate:histogram:sumweights 0
scalar QosShowcase.client.wlan[0].radio bitErrorRate:histogram:mean -nan
scalar QosShowcase.client.wlan[0].radio bitErrorRate:histogram:stddev nan
scalar QosShowcase.client.wlan[0].radio bitErrorRate:histogram:min nan
scalar QosShowcase.client.wlan[0].radio bitErrorRate:histogram:max nan
scalar QosShowcase.client.wlan[0].radio bitErrorRate:histogram:numbins 1
scalar QosShowcase.client.wlan[0].radio bitErrorRate:histogram:rangemin 0
scalar QosShowcase.client.wlan[0].radio bitErrorRate:histogram:rangemax 1
scalar QosShowcase.client.wlan[0].radio bitErrorRate:histogram:underflows 0
scalar QosShowcase.client.wlan[0].radio bitErrorRate:histogram:overflows 0
scalar QosShowcase.client.wlan[0].radio symbolErrorRate:histogram:count 0
scalar QosShowcase.client.wlan[0].radio symbolErrorRate:histogram:sumweights 0
scalar QosShowcase.client.wlan[0].radio symbolErrorRate:histogram:mean -nan
scalar QosShowcase.client.wlan[0].radio symbolErrorRate:histogram:stddev nan
scalar QosShowcase.client.wlan[0].radio symbolErrorRate:histogram:min nan
scalar QosShowcase.client.wlan[0].radio symbolErrorRate:histogram:max nan
scalar QosShowcase.client.wlan[0].radio symbolErrorRate:histogram:numbins 1
scalar QosShowcase.client.wlan[0].radio symbolErrorRate:histogram:rangemin 0
scalar QosShowcase.client.wlan[0].radio symbolErrorRate:histogram:rangemax 1
scalar QosShowcase.client.wlan[0].radio symbolErrorRate:histogram:underflows 0
scalar QosShowcase.client.wlan[0].radio symbolErrorRate:histogram:overflows 0
statistic QosShowcase.client.app[0] rcvdPkLifetime:stats
field count 0
field mean -nan
field stddev nan
field min nan
field max nan
field sum 0
field sqrsum 0
statistic QosShowcase.client.app[1] rcvdPkLifetime:stats
field count 0
field mean -nan
field stddev nan
field min nan
field max nan
field sum 0
field sqrsum 0
statistic QosShowcase.client.app[2] rcvdPkLifetime:stats
field count 0
field mean -nan
field stddev nan
field min nan
field max nan
field sum 0
field sqrsum 0
statistic QosShowcase.client.app[3] rcvdPkLifetime:stats
field count 0
field mean -nan
field stddev nan
field min nan
field max nan
field sum 0
field sqrsum 0
statistic QosShowcase.ap.wlan[0].mac.dcf.channelAccess.pendingQueue queueingTime:histogram
field count 6019
field mean 3.5072803560337
field stddev 1.5457737621437
field min 0
field max 6.133403956833
field sum 21110.320462967
field sqrsum 88419.32090916
bin	-inf	0
bin	0	108
bin	0.1	0
bin	0.2	0
bin	0.3	0
bin	0.4	0
bin	0.5	0
bin	0.6	0
bin	0.7	0
bin	0.8	0
bin	0.9	0
bin	1	114
bin	1.1	111
bin	1.2	117
bin	1.3	115
bin	1.4	119
bin	1.5	114
bin	1.6	114
bin	1.7	108
bin	1.8	122
bin	1.9	105
bin	2	109
bin	2.1	118
bin	2.2	122
bin	2.3	116
bin	2.4	113
bin	2.5	118
bin	2.6	123
bin	2.7	115
bin	2.8	120
bin	2.9	116
bin	3	122
bin	3.1	109
bin	3.2	109
bin	3.3	119
bin	3.4	115
bin	3.5	116
bin	3.6	112
bin	3.7	115
bin	3.8	111
bin	3.9	124
bin	4	108
bin	4.1	111
bin	4.2	118
bin	4.3	109
bin	4.4	110
bin	4.5	117
bin	4.6	115
bin	4.7	118
bin	4.8	114
bin	4.9	112
bin	5	121
bin	5.1	115
bin	5.2	121
bin	5.3	111
bin	5.4	107
bin	5.5	118
bin	5.6	110
bin	5.7	116
bin	5.8	113
bin	5.9	105
bin	6	124
bin	6.1	57
bin	6.2	0
statistic QosShowcase.ap.wlan[0].mac.dcf.channelAccess.pendingQueue outgoingPacketLengths:histogram
field count 6019
field mean 7328.6791825885
field stddev 1260.5140231044
field min 272
field max 7712
field sum 44111320
field sqrsum 332839686336
bin	-inf	0
bin	0	0
bin	200	6
bin	400	104
bin	600	0
bin	800	0
bin	1000	0
bin	1200	0
bin	1400	43
bin	1600	0
bin	1800	0
bin	2000	0
bin	2200	0
bin	2400	0
bin	2600	0
bin	2800	0
bin	3000	0
bin	3200	0
bin	3400	0
bin	3600	0
bin	3800	0
bin	4000	0
bin	4200	0
bin	4400	0
bin	4600	0
bin	4800	0
bin	5000	0
bin	5200	517
bin	5400	0
bin	5600	0
bin	5800	0
bin	6000	0
bin	6200	0
bin	6400	0
bin	6600	0
bin	6800	0
bin	7000	0
bin	7200	0
bin	7400	0
bin	7600	5349
bin	7800	0
bin	8000	0
bin	8200	0
bin	8400	0
bin	8600	0
bin	8800	0
bin	9000	0
bin	9200	0
bin	9400	0
bin	9600	0
statistic QosShowcase.ap.wlan[0].mac.dcf.channelAccess.pendingQueue flowQueueingTime:histogram
field count 0
field mean -nan
field stddev nan
field min nan
field max nan
field sum 0
field sqrsum 0
bin	-inf	0
bin	0	0
bin	1	0
statistic QosShowcase.ap.wlan[0].mac.dcf.channelAccess.pendingQueue incomingPacketLengths:histogram
field count 6080
field mean 7329.3671052632
field stddev 1256.8152334813
field min 272
field max 7712
field sum 44562552
field sqrsum 336217597120
bin	-inf	0
bin	0	0
bin	200	6
bin	400	104
bin	600	0
bin	800	0
bin	1000	0
bin	1200	0
bin	1400	43
bin	1600	0
bin	1800	0
bin	2000	0
bin	2200	0
bin	2400	0
bin	2600	0
bin	2800	0
bin	3000	0
bin	3200	0
bin	3400	0
bin	3600	0
bin	3800	0
bin	4000	0
bin	4200	0
bin	4400	0
bin	4600	0
bin	4800	0
bin	5000	0
bin	5200	525
bin	5400	0
bin	5600	0
bin	5800	0
bin	6000	0
bin	6200	0
bin	6400	0
bin	6600	0
bin	6800	0
bin	7000	0
bin	7200	0
bin	7400	0
bin	7600	5402
bin	7800	0
bin	8000	0
bin	8200	0
bin	8400	0
bin	8600	0
bin	8800	0
bin	9000	0
bin	9200	0
bin	9400	0
bin	9600	0
statistic QosShowcase.ap.wlan[0].mac.dcf.channelAccess.inProgressFrames queueingTime:histogram
field count 6019
field mean 0.0010880956819611
field stddev 0.00051732320277271
field min 3.8e-05
field max 0.00630193849
field sum 6.549247909724
field sqrsum 0.008736765366756
bin	-inf	0
bin	0	60
bin	0.0001	6
bin	0.0002	45
bin	0.0003	13
bin	0.0004	369
bin	0.0005	634
bin	0.0006	419
bin	0.0007	298
bin	0.0008	424
bin	0.0009	462
bin	0.001	484
bin	0.0011	567
bin	0.0012	518
bin	0.0013	416
bin	0.0014	322
bin	0.0015	333
bin	0.0016	141
bin	0.0017	87
bin	0.0018	128
bin	0.0019	35
bin	0.002	47
bin	0.0021	37
bin	0.0022	25
bin	0.0023	20
bin	0.0024	18
bin	0.0025	11
bin	0.0026	7
bin	0.0027	12
bin	0.0028	12
bin	0.0029	9
bin	0.003	9
bin	0.0031	4
bin	0.0032	10
bin	0.0033	8
bin	0.0034	7
bin	0.0035	6
bin	0.0036	4
bin	0.0037	3
bin	0.0038	2
bin	0.0039	3
bin	0.004	1
bin	0.0041	0
bin	0.0042	0
bin	0.0043	0
bin	0.0044	0
bin	0.0045	0
bin	0.0046	1
bin	0.0047	0
bin	0.0048	0
bin	0.0049	0
bin	0.005	0
bin	0.0051	0
bin	0.0052	0
bin	0.0053	0
bin	0.0054	0
bin	0.0055	0
bin	0.0056	0
bin	0.0057	1
bin	0.0058	0
bin	0.0059	0
bin	0.006	0
bin	0.0061	0
bin	0.0062	0
bin	0.0063	1
bin	0.0064	0
statistic QosShowcase.ap.wlan[0].mac.dcf frameSequenceDuration:histogram
field count 6209
field mean 0.00020775252184186
field stddev 2.6354471159871e-05
field min 3.8e-05
field max 0.000225
field sum 1.2899354081161
field sqrsum 0.00027229915104515
bin	-inf	0
bin	0	0
bin	5e-06	0
bin	1e-05	0
bin	1.5e-05	0
bin	2e-05	0
bin	2.5e-05	0
bin	3e-05	0
bin	3.5e-05	1
bin	4e-05	0
bin	4.5e-05	100
bin	5e-05	0
bin	5.5e-05	0
bin	6e-05	0
bin	6.5e-05	0
bin	7e-05	0
bin	7.5e-05	0
bin	8e-05	1
bin	8.5e-05	6
bin	9e-05	2
bin	9.5e-05	0
bin	0.0001	43
bin	0.000105	0
bin	0.00011	3
bin	0.000115	0
bin	0.00012	0
bin	0.000125	0
bin	0.00013	0
bin	0.000135	0
bin	0.00014	0
bin	0.000145	0
bin	0.00015	0
bin	0.000155	0
bin	0.00016	0
bin	0.000165	0
bin	0.00017	517
bin	0.000175	0
bin	0.00018	10
bin	0.000185	0
bin	0.00019	0
bin	0.000195	0
bin	0.0002	0
bin	0.000205	0
bin	0.00021	5349
bin	0.000215	0
bin	0.00022	177
bin	0.000225	0
bin	0.00023	0
bin	0.000235	0
bin	0.00024	0
bin	0.000245	0
bin	0.00025	0
bin	0.000255	0
bin	0.00026	0
bin	0.000265	0
bin	0.00027	0
bin	0.000275	0
statistic QosShowcase.ap.wlan[0].mac.dcf frameSequenceNumPackets:histogram
field count 6209
field mean 1.9837332903849
field stddev 0.12650961003751
field min 1
field max 2
field sum 12317
field sqrsum 24533
bin	-inf	0
bin	0	0
bin	1	101
bin	2	6108
bin	3	0
statistic QosShowcase.ap.wlan[0].radio radioChannel:histogram
field count 1
field mean 0
field stddev nan
field min 0
field max 0
field sum 0
field sqrsum 0
bin	-inf	0
bin	-0.5	0
bin	-0.48	0
bin	-0.46	0
bin	-0.44	0
bin	-0.42	0
bin	-0.4	0
bin	-0.38	0
bin	-0.36	0
bin	-0.34	0
bin	-0.32	0
bin	-0.3	0
bin	-0.28	0
bin	-0.26	0
bin	-0.24	0
bin	-0.22	0
bin	-0.2	0
bin	-0.18	0
bin	-0.16	0
bin	-0.14	0
bin	-0.12	0
bin	-0.1	0
bin	-0.08	0
bin	-0.06	0
bin	-0.04	0
bin	-0.02	0
bin	0	1
bin	0.02	0
bin	0.04	0
bin	0.06	0
bin	0.08	0
bin	0.1	0
bin	0.12	0
bin	0.14	0
bin	0.16	0
bin	0.18	0
bin	0.2	0
bin	0.22	0
bin	0.24	0
bin	0.26	0
bin	0.28	0
bin	0.3	0
bin	0.32	0
bin	0.34	0
bin	0.36	0
bin	0.38	0
bin	0.4	0
bin	0.42	0
bin	0.44	0
bin	0.46	0
bin	0.48	0
bin	0.5	0
statistic QosShowcase.ap.wlan[0].radio minSnir:histogram
field count 11898
field mean 9782.8877605203
field stddev 0
field min 9782.8877605193
field max 9782.8877605193
field sum 116396798.57467
field sqrsum 1138696816139.8
bin	-inf	0
bin	9782.38	0
bin	9782.4	0
bin	9782.42	0
bin	9782.44	0
bin	9782.46	0
bin	9782.48	0
bin	9782.5	0
bin	9782.52	0
bin	9782.54	0
bin	9782.56	0
bin	9782.58	0
bin	9782.6	0
bin	9782.62	0
bin	9782.64	0
bin	9782.66	0
bin	9782.68	0
bin	9782.7	0
bin	9782.72	0
bin	9782.74	0
bin	9782.76	0
bin	9782.78	0
bin	9782.8	0
bin	9782.82	0
bin	9782.84	0
bin	9782.86	0
bin	9782.88	11898
bin	9782.9	0
bin	9782.92	0
bin	9782.94	0
bin	9782.96	0
bin	9782.98	0
bin	9783	0
bin	9783.02	0
bin	9783.04	0
bin	9783.06	0
bin	9783.08	0
bin	9783.1	0
bin	9783.12	0
[...]
scalar QosShowcase.client.ipv4.ip packetDropLifetimeExpired:vector(packetBytes):mean -nan
scalar QosShowcase.client.ipv4.ip packetDropLifetimeExpired:vector(packetBytes):stddev nan
scalar QosShowcase.client.ipv4.ip packetDropLifetimeExpired:vector(packetBytes):min inf
scalar QosShowcase.client.ipv4.ip packetDropLifetimeExpired:vector(packetBytes):max -inf
scalar QosShowcase.client.ipv4.ip packetDropLifetimeExpired:vector(packetBytes):starttime nan
scalar QosShowcase.client.ipv4.ip packetDropLifetimeExpired:vector(packetBytes):endtime nan
scalar QosShowcase.client.ipv4.ip packetDropNoInterfaceFound:vector(packetBytes):count 0
scalar QosShowcase.client.ipv4.ip packetDropNoInterfaceFound:vector(packetBytes):sum 0
scalar QosShowcase.client.ipv4.ip packetDropNoInterfaceFound:vector(packetBytes):sumweights 0
scalar QosShowcase.client.ipv4.ip packetDropNoInterfaceFound:vector(packetBytes):mean -nan
scalar QosShowcase.client.ipv4.ip packetDropNoInterfaceFound:vector(packetBytes):stddev nan
scalar QosShowcase.client.ipv4.ip packetDropNoInterfaceFound:vector(packetBytes):min inf
scalar QosShowcase.client.ipv4.ip packetDropNoInterfaceFound:vector(packetBytes):max -inf
scalar QosShowcase.client.ipv4.ip packetDropNoInterfaceFound:vector(packetBytes):starttime nan
scalar QosShowcase.client.ipv4.ip packetDropNoInterfaceFound:vector(packetBytes):endtime nan
scalar QosShowcase.client.ipv4.ip packetDropNoRouteFound:vector(packetBytes):count 0
scalar QosShowcase.client.ipv4.ip packetDropNoRouteFound:vector(packetBytes):sum 0
scalar QosShowcase.client.ipv4.ip packetDropNoRouteFound:vector(packetBytes):sumweights 0
scalar QosShowcase.client.ipv4.ip packetDropNoRouteFound:vector(packetBytes):mean -nan
scalar QosShowcase.client.ipv4.ip packetDropNoRouteFound:vector(packetBytes):stddev nan
scalar QosShowcase.client.ipv4.ip packetDropNoRouteFound:vector(packetBytes):min inf
scalar QosShowcase.client.ipv4.ip packetDropNoRouteFound:vector(packetBytes):max -inf
scalar QosShowcase.client.ipv4.ip packetDropNoRouteFound:vector(packetBytes):starttime nan
scalar QosShowcase.client.ipv4.ip packetDropNoRouteFound:vector(packetBytes):endtime nan
scalar QosShowcase.client.ipv4.ip packetDropUndefined:vector(packetBytes):count 0
scalar QosShowcase.client.ipv4.ip packetDropUndefined:vector(packetBytes):sum 0
scalar QosShowcase.client.ipv4.ip packetDropUndefined:vector(packetBytes):sumweights 0
scalar QosShowcase.client.ipv4.ip packetDropUndefined:vector(packetBytes):mean -nan
scalar QosShowcase.client.ipv4.ip packetDropUndefined:vector(packetBytes):stddev nan
scalar QosShowcase.client.ipv4.ip packetDropUndefined:vector(packetBytes):min inf
scalar QosShowcase.client.ipv4.ip packetDropUndefined:vector(packetBytes):max -inf
scalar QosShowcase.client.ipv4.ip packetDropUndefined:vector(packetBytes):starttime nan
scalar QosShowcase.client.ipv4.ip packetDropUndefined:vector(packetBytes):endtime nan
scalar QosShowcase.client.ipv4.arp arpRequestSent:vector(packetBytes):count 1
scalar QosShowcase.client.ipv4.arp arpRequestSent:vector(packetBytes):sum 28
scalar QosShowcase.client.ipv4.arp arpRequestSent:vector(packetBytes):sumweights 1
scalar QosShowcase.client.ipv4.arp arpRequestSent:vector(packetBytes):mean 28
scalar QosShowcase.client.ipv4.arp arpRequestSent:vector(packetBytes):stddev nan
scalar QosShowcase.client.ipv4.arp arpRequestSent:vector(packetBytes):min 28
scalar QosShowcase.client.ipv4.arp arpRequestSent:vector(packetBytes):max 28
scalar QosShowcase.client.ipv4.arp arpRequestSent:vector(packetBytes):starttime 1
scalar QosShowcase.client.ipv4.arp arpRequestSent:vector(packetBytes):endtime 1
scalar QosShowcase.client.ipv4.arp arpReplySent:vector(packetBytes):count 0
scalar QosShowcase.client.ipv4.arp arpReplySent:vector(packetBytes):sum 0
scalar QosShowcase.client.ipv4.arp arpReplySent:vector(packetBytes):sumweights 0
scalar QosShowcase.client.ipv4.arp arpReplySent:vector(packetBytes):mean -nan
scalar QosShowcase.client.ipv4.arp arpReplySent:vector(packetBytes):stddev nan
scalar QosShowcase.client.ipv4.arp arpReplySent:vector(packetBytes):min inf
scalar QosShowcase.client.ipv4.arp arpReplySent:vector(packetBytes):max -inf
scalar QosShowcase.client.ipv4.arp arpReplySent:vector(packetBytes):starttime nan
scalar QosShowcase.client.ipv4.arp arpReplySent:vector(packetBytes):endtime nan
scalar QosShowcase.client.udp packetSent:vector(packetBytes):count 42182
scalar QosShowcase.client.udp packetSent:vector(packetBytes):sum 36413756
scalar QosShowcase.client.udp packetSent:vector(packetBytes):sumweights 42182
scalar QosShowcase.client.udp packetSent:vector(packetBytes):mean 863.25342563179
scalar QosShowcase.client.udp packetSent:vector(packetBytes):stddev 125.64084709005
scalar QosShowcase.client.udp packetSent:vector(packetBytes):min 133
scalar QosShowcase.client.udp packetSent:vector(packetBytes):max 908
scalar QosShowcase.client.udp packetSent:vector(packetBytes):starttime 1
scalar QosShowcase.client.udp packetSent:vector(packetBytes):endtime 5.999882588852
scalar QosShowcase.client.udp packetReceived:vector(packetBytes):count 0
scalar QosShowcase.client.udp packetReceived:vector(packetBytes):sum 0
scalar QosShowcase.client.udp packetReceived:vector(packetBytes):sumweights 0
scalar QosShowcase.client.udp packetReceived:vector(packetBytes):mean -nan
scalar QosShowcase.client.udp packetReceived:vector(packetBytes):stddev nan
scalar QosShowcase.client.udp packetReceived:vector(packetBytes):min inf
scalar QosShowcase.client.udp packetReceived:vector(packetBytes):max -inf
scalar QosShowcase.client.udp packetReceived:vector(packetBytes):starttime nan
scalar QosShowcase.client.udp packetReceived:vector(packetBytes):endtime nan
scalar QosShowcase.client.udp passedUpPk:vector(count):count 1
scalar QosShowcase.client.udp passedUpPk:vector(count):sum 0
scalar QosShowcase.client.udp passedUpPk:vector(count):sumweights 1
scalar QosShowcase.client.udp passedUpPk:vector(count):mean 0
scalar QosShowcase.client.udp passedUpPk:vector(count):stddev nan
scalar QosShowcase.client.udp passedUpPk:vector(count):min 0
scalar QosShowcase.client.udp passedUpPk:vector(count):max 0
scalar QosShowcase.client.udp passedUpPk:vector(count):starttime 0
scalar QosShowcase.client.udp passedUpPk:vector(count):endtime 0
scalar QosShowcase.client.udp droppedPkWrongPort:vector(count):count 1
scalar QosShowcase.client.udp droppedPkWrongPort:vector(count):sum 0
scalar QosShowcase.client.udp droppedPkWrongPort:vector(count):sumweights 1
scalar QosShowcase.client.udp droppedPkWrongPort:vector(count):mean 0
scalar QosShowcase.client.udp droppedPkWrongPort:vector(count):stddev nan
scalar QosShowcase.client.udp droppedPkWrongPort:vector(count):min 0
scalar QosShowcase.client.udp droppedPkWrongPort:vector(count):max 0
scalar QosShowcase.client.udp droppedPkWrongPort:vector(count):starttime 0
scalar QosShowcase.client.udp droppedPkWrongPort:vector(count):endtime 0
scalar QosShowcase.client.udp droppedPkBadChecksum:vector(count):count 1
scalar QosShowcase.client.udp droppedPkBadChecksum:vector(count):sum 0
scalar QosShowcase.client.udp droppedPkBadChecksum:vector(count):sumweights 1
scalar QosShowcase.client.udp droppedPkBadChecksum:vector(count):mean 0
scalar QosShowcase.client.udp droppedPkBadChecksum:vector(count):stddev nan
scalar QosShowcase.client.udp droppedPkBadChecksum:vector(count):min 0
scalar QosShowcase.client.udp droppedPkBadChecksum:vector(count):max 0
scalar QosShowcase.client.udp droppedPkBadChecksum:vector(count):starttime 0
scalar QosShowcase.client.udp droppedPkBadChecksum:vector(count):endtime 0
scalar QosShowcase.client.app[0] packetReceived:vector(packetBytes):count 0
scalar QosShowcase.client.app[0] packetReceived:vector(packetBytes):sum 0
scalar QosShowcase.client.app[0] packetReceived:vector(packetBytes):sumweights 0
scalar QosShowcase.client.app[0] packetReceived:vector(packetBytes):mean -nan
scalar QosShowcase.client.app[0] packetReceived:vector(packetBytes):stddev nan
scalar QosShowcase.client.app[0] packetReceived:vector(packetBytes):min inf
scalar QosShowcase.client.app[0] packetReceived:vector(packetBytes):max -inf
scalar QosShowcase.client.app[0] packetReceived:vector(packetBytes):starttime nan
scalar QosShowcase.client.app[0] packetReceived:vector(packetBytes):endtime nan
scalar QosShowcase.client.app[0] throughput:vector:count 100
scalar QosShowcase.client.app[0] throughput:vector:sum 0
scalar QosShowcase.client.app[0] throughput:vector:sumweights 100
scalar QosShowcase.client.app[0] throughput:vector:mean 0
scalar QosShowcase.client.app[0] throughput:vector:stddev 0
scalar QosShowcase.client.app[0] throughput:vector:min 0
scalar QosShowcase.client.app[0] throughput:vector:max 0
scalar QosShowcase.client.app[0] throughput:vector:starttime 0.1
scalar QosShowcase.client.app[0] throughput:vector:endtime 10
scalar QosShowcase.client.app[0] packetSent:vector(packetBytes):count 16667
scalar QosShowcase.client.app[0] packetSent:vector(packetBytes):sum 15000300
scalar QosShowcase.client.app[0] packetSent:vector(packetBytes):sumweights 16667
scalar QosShowcase.client.app[0] packetSent:vector(packetBytes):mean 900
scalar QosShowcase.client.app[0] packetSent:vector(packetBytes):stddev 0
scalar QosShowcase.client.app[0] packetSent:vector(packetBytes):min 900
scalar QosShowcase.client.app[0] packetSent:vector(packetBytes):max 900
scalar QosShowcase.client.app[0] packetSent:vector(packetBytes):starttime 1
scalar QosShowcase.client.app[0] packetSent:vector(packetBytes):endtime 5.999872494872
scalar QosShowcase.client.app[0] rcvdPkLifetime:vector:count 0
scalar QosShowcase.client.app[0] rcvdPkLifetime:vector:sum 0
scalar QosShowcase.client.app[0] rcvdPkLifetime:vector:sumweights 0
scalar QosShowcase.client.app[0] rcvdPkLifetime:vector:mean -nan
scalar QosShowcase.client.app[0] rcvdPkLifetime:vector:stddev nan
scalar QosShowcase.client.app[0] rcvdPkLifetime:vector:min inf
scalar QosShowcase.client.app[0] rcvdPkLifetime:vector:max -inf
scalar QosShowcase.client.app[0] rcvdPkLifetime:vector:starttime nan
scalar QosShowcase.client.app[0] rcvdPkLifetime:vector:endtime nan
scalar QosShowcase.client.app[0] rcvdPkSeqNo:vector:count 0
scalar QosShowcase.client.app[0] rcvdPkSeqNo:vector:sum 0
scalar QosShowcase.client.app[0] rcvdPkSeqNo:vector:sumweights 0
scalar QosShowcase.client.app[0] rcvdPkSeqNo:vector:mean -nan
scalar QosShowcase.client.app[0] rcvdPkSeqNo:vector:stddev nan
scalar QosShowcase.client.app[0] rcvdPkSeqNo:vector:min inf
scalar QosShowcase.client.app[0] rcvdPkSeqNo:vector:max -inf
scalar QosShowcase.client.app[0] rcvdPkSeqNo:vector:starttime nan
scalar QosShowcase.client.app[0] rcvdPkSeqNo:vector:endtime nan
scalar QosShowcase.client.app[1] packetReceived:vector(packetBytes):count 0
scalar QosShowcase.client.app[1] packetReceived:vector(packetBytes):sum 0
scalar QosShowcase.client.app[1] packetReceived:vector(packetBytes):sumweights 0
scalar QosShowcase.client.app[1] packetReceived:vector(packetBytes):mean -nan
scalar QosShowcase.client.app[1] packetReceived:vector(packetBytes):stddev nan
scalar QosShowcase.client.app[1] packetReceived:vector(packetBytes):min inf
scalar QosShowcase.client.app[1] packetReceived:vector(packetBytes):max -inf
scalar QosShowcase.client.app[1] packetReceived:vector(packetBytes):starttime nan
scalar QosShowcase.client.app[1] packetReceived:vector(packetBytes):endtime nan
scalar QosShowcase.client.app[1] throughput:vector:count 100
scalar QosShowcase.client.app[1] throughput:vector:sum 0
scalar QosShowcase.client.app[1] throughput:vector:sumweights 100
scalar QosShowcase.client.app[1] throughput:vector:mean 0
scalar QosShowcase.client.app[1] throughput:vector:stddev 0
scalar QosShowcase.client.app[1] throughput:vector:min 0
scalar QosShowcase.client.app[1] throughput:vector:max 0
scalar QosShowcase.client.app[1] throughput:vector:starttime 0.1
scalar QosShowcase.client.app[1] throughput:vector:endtime 10
scalar QosShowcase.client.app[1] packetSent:vector(packetBytes):count 20015
scalar QosShowcase.client.app[1] packetSent:vector(packetBytes):sum 18013500
scalar QosShowcase.client.app[1] packetSent:vector(packetBytes):sumweights 20015
scalar QosShowcase.client.app[1] packetSent:vector(packetBytes):mean 900
scalar QosShowcase.client.app[1] packetSent:vector(packetBytes):stddev 0
scalar QosShowcase.client.app[1] packetSent:vector(packetBytes):min 900
scalar QosShowcase.client.app[1] packetSent:vector(packetBytes):max 900
scalar QosShowcase.client.app[1] packetSent:vector(packetBytes):starttime 1.000060224394
scalar QosShowcase.client.app[1] packetSent:vector(packetBytes):endtime 5.999882588852
scalar QosShowcase.client.app[1] rcvdPkLifetime:vector:count 0
scalar QosShowcase.client.app[1] rcvdPkLifetime:vector:sum 0
scalar QosShowcase.client.app[1] rcvdPkLifetime:vector:sumweights 0
scalar QosShowcase.client.app[1] rcvdPkLifetime:vector:mean -nan
scalar QosShowcase.client.app[1] rcvdPkLifetime:vector:stddev nan
scalar QosShowcase.client.app[1] rcvdPkLifetime:vector:min inf
scalar QosShowcase.client.app[1] rcvdPkLifetime:vector:max -inf
scalar QosShowcase.client.app[1] rcvdPkLifetime:vector:starttime nan
scalar QosShowcase.client.app[1] rcvdPkLifetime:vector:endtime nan
scalar QosShowcase.client.app[1] rcvdPkSeqNo:vector:count 0
scalar QosShowcase.client.app[1] rcvdPkSeqNo:vector:sum 0
scalar QosShowcase.client.app[1] rcvdPkSeqNo:vector:sumweights 0
scalar QosShowcase.client.app[1] rcvdPkSeqNo:vector:mean -nan
scalar QosShowcase.client.app[1] rcvdPkSeqNo:vector:stddev nan
scalar QosShowcase.client.app[1] rcvdPkSeqNo:vector:min inf
scalar QosShowcase.client.app[1] rcvdPkSeqNo:vector:max -inf
scalar QosShowcase.client.app[1] rcvdPkSeqNo:vector:starttime nan
scalar QosShowcase.client.app[1] rcvdPkSeqNo:vector:endtime nan
scalar QosShowcase.client.app[2] packetReceived:vector(packetBytes):count 0
scalar QosShowcase.client.app[2] packetReceived:vector(packetBytes):sum 0
scalar QosShowcase.client.app[2] packetReceived:vector(packetBytes):sumweights 0
scalar QosShowcase.client.app[2] packetReceived:vector(packetBytes):mean -nan
scalar QosShowcase.client.app[2] packetReceived:vector(packetBytes):stddev nan
scalar QosShowcase.client.app[2] packetReceived:vector(packetBytes):min inf
scalar QosShowcase.client.app[2] packetReceived:vector(packetBytes):max -inf
scalar QosShowcase.client.app[2] packetReceived:vector(packetBytes):starttime nan
scalar QosShowcase.client.app[2] packetReceived:vector(packetBytes):endtime nan
scalar QosShowcase.client.app[2] throughput:vector:count 100
scalar QosShowcase.client.app[2] throughput:vector:sum 0
scalar QosShowcase.client.app[2] throughput:vector:sumweights 100
scalar QosShowcase.client.app[2] throughput:vector:mean 0
scalar QosShowcase.client.app[2] throughput:vector:stddev 0
scalar QosShowcase.client.app[2] throughput:vector:min 0
scalar QosShowcase.client.app[2] throughput:vector:max 0
scalar QosShowcase.client.app[2] throughput:vector:starttime 0.1
scalar QosShowcase.client.app[2] throughput:vector:endtime 10
scalar QosShowcase.client.app[2] packetSent:vector(packetBytes):count 5000
scalar QosShowcase.client.app[2] packetSent:vector(packetBytes):sum 3000000
scalar QosShowcase.client.app[2] packetSent:vector(packetBytes):sumweights 5000
scalar QosShowcase.client.app[2] packetSent:vector(packetBytes):mean 600
scalar QosShowcase.client.app[2] packetSent:vector(packetBytes):stddev 0
scalar QosShowcase.client.app[2] packetSent:vector(packetBytes):min 600
scalar QosShowcase.client.app[2] packetSent:vector(packetBytes):max 600
scalar QosShowcase.client.app[2] packetSent:vector(packetBytes):starttime 1.00050326744
scalar QosShowcase.client.app[2] packetSent:vector(packetBytes):endtime 5.999500226943
scalar QosShowcase.client.app[2] rcvdPkLifetime:vector:count 0
scalar QosShowcase.client.app[2] rcvdPkLifetime:vector:sum 0
scalar QosShowcase.client.app[2] rcvdPkLifetime:vector:sumweights 0
scalar QosShowcase.client.app[2] rcvdPkLifetime:vector:mean -nan
scalar QosShowcase.client.app[2] rcvdPkLifetime:vector:stddev nan
scalar QosShowcase.client.app[2] rcvdPkLifetime:vector:min inf
scalar QosShowcase.client.app[2] rcvdPkLifetime:vector:max -inf
scalar QosShowcase.client.app[2] rcvdPkLifetime:vector:starttime nan
scalar QosShowcase.client.app[2] rcvdPkLifetime:vector:endtime nan
scalar QosShowcase.client.app[2] rcvdPkSeqNo:vector:count 0
scalar QosShowcase.client.app[2] rcvdPkSeqNo:vector:sum 0
scalar QosShowcase.client.app[2] rcvdPkSeqNo:vector:sumweights 0
scalar QosShowcase.client.app[2] rcvdPkSeqNo:vector:mean -nan
scalar QosShowcase.client.app[2] rcvdPkSeqNo:vector:stddev nan
scalar QosShowcase.client.app[2] rcvdPkSeqNo:vector:min inf
scalar QosShowcase.client.app[2] rcvdPkSeqNo:vector:max -inf
scalar QosShowcase.client.app[2] rcvdPkSeqNo:vector:starttime nan
scalar QosShowcase.client.app[2] rcvdPkSeqNo:vector:endtime nan
scalar QosShowcase.client.app[3] packetReceived:vector(packetBytes):count 0
scalar QosShowcase.client.app[3] packetReceived:vector(packetBytes):sum 0
scalar QosShowcase.client.app[3] packetReceived:vector(packetBytes):sumweights 0
scalar QosShowcase.client.app[3] packetReceived:vector(packetBytes):mean -nan
scalar QosShowcase.client.app[3] packetReceived:vector(packetBytes):stddev nan
scalar QosShowcase.client.app[3] packetReceived:vector(packetBytes):min inf
scalar QosShowcase.client.app[3] packetReceived:vector(packetBytes):max -inf
scalar QosShowcase.client.app[3] packetReceived:vector(packetBytes):starttime nan
scalar QosShowcase.client.app[3] packetReceived:vector(packetBytes):endtime nan
scalar QosShowcase.client.app[3] throughput:vector:count 100
scalar QosShowcase.client.app[3] throughput:vector:sum 0
scalar QosShowcase.client.app[3] throughput:vector:sumweights 100
scalar QosShowcase.client.app[3] throughput:vector:mean 0
scalar QosShowcase.client.app[3] throughput:vector:stddev 0
scalar QosShowcase.client.app[3] throughput:vector:min 0
scalar QosShowcase.client.app[3] throughput:vector:max 0
scalar QosShowcase.client.app[3] throughput:vector:starttime 0.1
scalar QosShowcase.client.app[3] throughput:vector:endtime 10
scalar QosShowcase.client.app[3] packetSent:vector(packetBytes):count 500
scalar QosShowcase.client.app[3] packetSent:vector(packetBytes):sum 62500
scalar QosShowcase.client.app[3] packetSent:vector(packetBytes):sumweights 500
scalar QosShowcase.client.app[3] packetSent:vector(packetBytes):mean 125
scalar QosShowcase.client.app[3] packetSent:vector(packetBytes):stddev 0
scalar QosShowcase.client.app[3] packetSent:vector(packetBytes):min 125
scalar QosShowcase.client.app[3] packetSent:vector(packetBytes):max 125
scalar QosShowcase.client.app[3] packetSent:vector(packetBytes):starttime 1.007502496357
scalar QosShowcase.client.app[3] packetSent:vector(packetBytes):endtime 5.997506692935
scalar QosShowcase.client.app[3] rcvdPkLifetime:vector:count 0
scalar QosShowcase.client.app[3] rcvdPkLifetime:vector:sum 0
scalar QosShowcase.client.app[3] rcvdPkLifetime:vector:sumweights 0
scalar QosShowcase.client.app[3] rcvdPkLifetime:vector:mean -nan
scalar QosShowcase.client.app[3] rcvdPkLifetime:vector:stddev nan
scalar QosShowcase.client.app[3] rcvdPkLifetime:vector:min inf
scalar QosShowcase.client.app[3] rcvdPkLifetime:vector:max -inf
scalar QosShowcase.client.app[3] rcvdPkLifetime:vector:starttime nan
scalar QosShowcase.client.app[3] rcvdPkLifetime:vector:endtime nan
scalar QosShowcase.client.app[3] rcvdPkSeqNo:vector:count 0
scalar QosShowcase.client.app[3] rcvdPkSeqNo:vector:sum 0
scalar QosShowcase.client.app[3] rcvdPkSeqNo:vector:sumweights 0
scalar QosShowcase.client.app[3] rcvdPkSeqNo:vector:mean -nan
scalar QosShowcase.client.app[3] rcvdPkSeqNo:vector:stddev nan
scalar QosShowcase.client.app[3] rcvdPkSeqNo:vector:min inf
scalar QosShowcase.client.app[3] rcvdPkSeqNo:vector:max -inf
scalar QosShowcase.client.app[3] rcvdPkSeqNo:vector:starttime nan
scalar QosShowcase.client.app[3] rcvdPkSeqNo:vector:endtime nan

