version 3
run General-0-20230411-10:32:53-42832
attr configname General
attr datetime 20230411-10:32:53
attr datetimef 20230411-103253
attr experiment General
attr inifile omnetpp.ini
attr iterationvars ""
attr iterationvarsd ""
attr iterationvarsf ""
attr measurement ""
attr network TimingExample
attr processid 42832
attr repetition 0
attr replication #0
attr resultdir results
attr runnumber 0
attr seedset 0
config **.param-recording false
config image-path /home/levy/workspace/inet/images
config sim-time-limit 0.1s
config network TimingExample
config sim-time-limit 0.1s
config **.crcMode "\"computed\""
config **.fcsMode "\"computed\""
config **.arp.typename GlobalArp
config *.macForwardingTableConfigurator.typename ""
config *.*.ethernet.typename EthernetLayer
config *.client*.numApps 2
config *.client*.app[*].typename UdpApp
config *.client*.app[0].source.packetNameFormat "\"background-%c\""
config *.client*.app[1].source.packetNameFormat "\"video-%c\""
config *.client*.app[0].io.destAddress "\"server1\""
config *.client*.app[1].io.destAddress "\"server2\""
config *.client*.app[*].io.destPort 1000
config *.client*.app[0].source.packetLength 1000B
config *.client*.app[0].source.productionInterval truncnormal(200us,100us)
config *.client*.app[1].source.packetLength 500B
config *.client*.app[1].source.productionInterval truncnormal(2ms,1ms)
config *.server*.numApps 1
config *.server*.app[0].typename UdpApp
config *.server*.app[0].source.typename EmptyPacketSource
config *.server*.app[0].io.destPort -1
config *.server*.app[0].io.localPort 1000
config *.*.eth[*].typename LayeredEthernetInterface
config *.*.eth[*].bitrate 100Mbps
config *.switch*.eth[*].measurementLayer.typename MeasurementLayer
config *.switch1.eth[*].measurementLayer.measurementRecorder.typename ""
config *.switch2.eth[*].measurementLayer.measurementStarter.typename ""
config *.*.eth[*].phyLayer.*Emitter.typename ""
config *.*.eth[*].macLayer.server.serveSchedulingPriority -1
config *.client1.app[*].measurementStarter.typename FlowMeasurementStarter
config *.client1.app[*].measurementStarter.flowName "\"client1\""
config *.client1.app[*].measurementStarter.measure "\"elapsedTime or queueingTime\""
config *.client2.app[*].measurementStarter.typename FlowMeasurementStarter
config *.client2.app[*].measurementStarter.flowName "\"client2\""
config *.client2.app[*].measurementStarter.measure "\"elapsedTime or queueingTime\""
config *.server1.app[*].measurementRecorder.typename FlowMeasurementRecorder
config *.server1.app[*].measurementRecorder.flowName "\"client1 or client2\""
config *.server1.app[*].measurementRecorder.measure "\"elapsedTime or queueingTime\""
config *.server2.app[*].measurementRecorder.typename FlowMeasurementRecorder
config *.server2.app[*].measurementRecorder.flowName "\"client1 or client2\""
config *.server2.app[*].measurementRecorder.measure "\"elapsedTime or queueingTime\""
config *.switch1.eth[*].measurementLayer.measurementStarter.flowName "\"switch1\""
config *.switch1.eth[*].measurementLayer.measurementStarter.measure "\"elapsedTime or queueingTime\""
config *.switch2.eth[*].measurementLayer.measurementRecorder.flowName "\"switch1\""
config *.switch2.eth[*].measurementLayer.measurementRecorder.measure "\"elapsedTime or queueingTime\""
config *.visualizer.packetFlowVisualizer.displayRoutes true

scalar TimingExample.client1.ethernet.macHeaderInserter outgoingPackets:count 542
attr recordingmode count
attr source "merge(packetPushedOut, packetPulledOut)"
attr title "outgoing packets, count"
attr unit pk
scalar TimingExample.client1.ethernet.macHeaderInserter outgoingPacketLengths:sum 4282112
attr interpolationmode none
attr recordingmode sum
attr source "packetLength(merge(packetPushedOut, packetPulledOut))"
attr title "outgoing packet lengths, sum"
attr unit b
statistic TimingExample.client1.ethernet.macHeaderInserter outgoingPacketLengths:histogram
field count 542
field mean 7900.5756457565
field stddev 1246.9851646017
field min 4336
field max 8336
field sum 4282112
field sqrsum 34672389632
attr interpolationmode none
attr recordingmode histogram
attr source "packetLength(merge(packetPushedOut, packetPulledOut))"
attr title "outgoing packet lengths"
attr unit b
bin	-inf	0
bin	3300	0
bin	3400	0
bin	3500	0
bin	3600	0
bin	3700	0
bin	3800	0
bin	3900	0
bin	4000	0
bin	4100	0
bin	4200	0
bin	4300	59
bin	4400	0
bin	4500	0
bin	4600	0
bin	4700	0
bin	4800	0
bin	4900	0
bin	5000	0
bin	5100	0
bin	5200	0
bin	5300	0
bin	5400	0
bin	5500	0
bin	5600	0
bin	5700	0
bin	5800	0
bin	5900	0
bin	6000	0
bin	6100	0
bin	6200	0
bin	6300	0
bin	6400	0
bin	6500	0
bin	6600	0
bin	6700	0
bin	6800	0
bin	6900	0
bin	7000	0
bin	7100	0
bin	7200	0
bin	7300	0
bin	7400	0
bin	7500	0
bin	7600	0
bin	7700	0
bin	7800	0
bin	7900	0
bin	8000	0
bin	8100	0
bin	8200	0
bin	8300	483
bin	8400	0
bin	8500	0
bin	8600	0
bin	8700	0
bin	8800	0
bin	8900	0
bin	9000	0
bin	9100	0
bin	9200	0
bin	9300	0
bin	9400	0
scalar TimingExample.client1.ethernet.macHeaderInserter flowOutgoingPacketLengths:sum 0
attr interpolationmode none
attr recordingmode sum
attr source "packetLength(demuxFlow(merge(packetPushedOut, packetPulledOut)))"
attr title "flow specific outgoing packet lengths, sum"
attr unit b
statistic TimingExample.client1.ethernet.macHeaderInserter flowOutgoingPacketLengths:histogram
field count 0
field mean -nan
field stddev nan
field min nan
field max nan
field sum 0
field sqrsum 0
attr interpolationmode none
attr recordingmode histogram
attr source "packetLength(demuxFlow(merge(packetPushedOut, packetPulledOut)))"
attr title "flow specific outgoing packet lengths"
attr unit b
bin	-inf	0
bin	0	0
bin	1	0
scalar TimingExample.client1.ethernet.macHeaderInserter client1:flowOutgoingPacketLengths:sum 4282112
attr interpolationmode none
attr recordingmode sum
attr source "packetLength(demuxFlow(merge(packetPushedOut, packetPulledOut)))"
attr title "flow specific outgoing packet lengths, sum"
attr unit b
statistic TimingExample.client1.ethernet.macHeaderInserter client1:flowOutgoingPacketLengths:histogram
field count 542
field mean 7900.5756457565
field stddev 1246.9851646017
field min 4336
field max 8336
field sum 4282112
field sqrsum 34672389632
attr interpolationmode none
attr recordingmode histogram
attr source "packetLength(demuxFlow(merge(packetPushedOut, packetPulledOut)))"
attr title "flow specific outgoing packet lengths"
attr unit b
bin	-inf	0
bin	3300	0
bin	3400	0
bin	3500	0
bin	3600	0
bin	3700	0
bin	3800	0
bin	3900	0
bin	4000	0
bin	4100	0
bin	4200	0
bin	4300	59
bin	4400	0
bin	4500	0
bin	4600	0
bin	4700	0
bin	4800	0
bin	4900	0
bin	5000	0
bin	5100	0
bin	5200	0
bin	5300	0
bin	5400	0
bin	5500	0
bin	5600	0
bin	5700	0
bin	5800	0
bin	5900	0
bin	6000	0
bin	6100	0
bin	6200	0
bin	6300	0
bin	6400	0
bin	6500	0
bin	6600	0
bin	6700	0
bin	6800	0
bin	6900	0
bin	7000	0
bin	7100	0
bin	7200	0
bin	7300	0
bin	7400	0
bin	7500	0
bin	7600	0
bin	7700	0
bin	7800	0
bin	7900	0
bin	8000	0
bin	8100	0
bin	8200	0
bin	8300	483
bin	8400	0
bin	8500	0
bin	8600	0
bin	8700	0
bin	8800	0
bin	8900	0
bin	9000	0
bin	9100	0
bin	9200	0
bin	9300	0
bin	9400	0
scalar TimingExample.client1.ethernet.macHeaderInserter incomingPackets:count 542
attr recordingmode count
attr source "merge(packetPushedIn, packetPulledIn)"
attr title "incoming packets, count"
attr unit pk
scalar TimingExample.client1.ethernet.macHeaderInserter incomingPacketLengths:sum 4221408
attr interpolationmode none
attr recordingmode sum
attr source "packetLength(merge(packetPushedIn, packetPulledIn))"
attr title "incoming packet lengths, sum"
attr unit b
statistic TimingExample.client1.ethernet.macHeaderInserter incomingPacketLengths:histogram
field count 542
field mean 7788.5756457565
field stddev 1246.9851646017
field min 4224
field max 8224
field sum 4221408
field sqrsum 33719995392
attr interpolationmode none
attr recordingmode histogram
attr source "packetLength(merge(packetPushedIn, packetPulledIn))"
attr title "incoming packet lengths"
attr unit b
bin	-inf	0
bin	3200	0
bin	3300	0
bin	3400	0
bin	3500	0
bin	3600	0
bin	3700	0
bin	3800	0
bin	3900	0
bin	4000	0
bin	4100	0
bin	4200	59
bin	4300	0
bin	4400	0
bin	4500	0
bin	4600	0
bin	4700	0
bin	4800	0
bin	4900	0
bin	5000	0
bin	5100	0
bin	5200	0
bin	5300	0
bin	5400	0
bin	5500	0
bin	5600	0
bin	5700	0
bin	5800	0
bin	5900	0
bin	6000	0
bin	6100	0
bin	6200	0
bin	6300	0
bin	6400	0
bin	6500	0
bin	6600	0
bin	6700	0
bin	6800	0
bin	6900	0
bin	7000	0
bin	7100	0
bin	7200	0
bin	7300	0
bin	7400	0
bin	7500	0
bin	7600	0
bin	7700	0
bin	7800	0
bin	7900	0
bin	8000	0
bin	8100	0
bin	8200	483
bin	8300	0
bin	8400	0
bin	8500	0
bin	8600	0
bin	8700	0
bin	8800	0
bin	8900	0
bin	9000	0
bin	9100	0
bin	9200	0
bin	9300	0
scalar TimingExample.client1.ethernet.macHeaderInserter flowIncomingPacketLengths:sum 0
attr interpolationmode none
attr recordingmode sum
attr source "packetLength(demuxFlow(merge(packetPushedIn, packetPulledIn)))"
attr title "flow specific incoming packet lengths, sum"
attr unit b
statistic TimingExample.client1.ethernet.macHeaderInserter flowIncomingPacketLengths:histogram
field count 0
field mean -nan
field stddev nan
field min nan
field max nan
field sum 0
field sqrsum 0
attr interpolationmode none
attr recordingmode histogram
attr source "packetLength(demuxFlow(merge(packetPushedIn, packetPulledIn)))"
attr title "flow specific incoming packet lengths"
attr unit b
bin	-inf	0
bin	0	0
bin	1	0
scalar TimingExample.client1.ethernet.macHeaderInserter client1:flowIncomingPacketLengths:sum 4221408
attr interpolationmode none
attr recordingmode sum
attr source "packetLength(demuxFlow(merge(packetPushedIn, packetPulledIn)))"
attr title "flow specific incoming packet lengths, sum"
attr unit b
statistic TimingExample.client1.ethernet.macHeaderInserter client1:flowIncomingPacketLengths:histogram
field count 542
field mean 7788.5756457565
field stddev 1246.9851646017
field min 4224
field max 8224
field sum 4221408
field sqrsum 33719995392
attr interpolationmode none
attr recordingmode histogram
attr source "packetLength(demuxFlow(merge(packetPushedIn, packetPulledIn)))"
attr title "flow specific incoming packet lengths"
attr unit b
bin	-inf	0
bin	3200	0
bin	3300	0
bin	3400	0
bin	3500	0
bin	3600	0
bin	3700	0
bin	3800	0
bin	3900	0
bin	4000	0
bin	4100	0
bin	4200	59
bin	4300	0
bin	4400	0
bin	4500	0
bin	4600	0
bin	4700	0
bin	4800	0
bin	4900	0
bin	5000	0
bin	5100	0
bin	5200	0
bin	5300	0
bin	5400	0
bin	5500	0
bin	5600	0
bin	5700	0
bin	5800	0
bin	5900	0
bin	6000	0
bin	6100	0
bin	6200	0
bin	6300	0
bin	6400	0
bin	6500	0
bin	6600	0
bin	6700	0
bin	6800	0
bin	6900	0
bin	7000	0
bin	7100	0
bin	7200	0
bin	7300	0
bin	7400	0
bin	7500	0
bin	7600	0
bin	7700	0
bin	7800	0
bin	7900	0
bin	8000	0
bin	8100	0
bin	8200	483
bin	8300	0
bin	8400	0
bin	8500	0
bin	8600	0
bin	8700	0
bin	8800	0
bin	8900	0
bin	9000	0
bin	9100	0
bin	9200	0
bin	9300	0
scalar TimingExample.client1.ethernet.paddingInserter outgoingPackets:count 542
attr recordingmode count
attr source "merge(packetPushedOut, packetPulledOut)"
attr title "outgoing packets, count"
attr unit pk
scalar TimingExample.client1.ethernet.paddingInserter outgoingPacketLengths:sum 4282112
attr interpolationmode none
attr recordingmode sum
attr source "packetLength(merge(packetPushedOut, packetPulledOut))"
attr title "outgoing packet lengths, sum"
attr unit b
statistic TimingExample.client1.ethernet.paddingInserter outgoingPacketLengths:histogram
field count 542
field mean 7900.5756457565
field stddev 1246.9851646017
field min 4336
field max 8336
field sum 4282112
field sqrsum 34672389632
attr interpolationmode none
attr recordingmode histogram
attr source "packetLength(merge(packetPushedOut, packetPulledOut))"
attr title "outgoing packet lengths"
attr unit b
bin	-inf	0
bin	3300	0
bin	3400	0
bin	3500	0
bin	3600	0
bin	3700	0
bin	3800	0
bin	3900	0
bin	4000	0
bin	4100	0
bin	4200	0
bin	4300	59
bin	4400	0
bin	4500	0
bin	4600	0
bin	4700	0
bin	4800	0
bin	4900	0
bin	5000	0
bin	5100	0
bin	5200	0
bin	5300	0
bin	5400	0
bin	5500	0
bin	5600	0
bin	5700	0
bin	5800	0
bin	5900	0
bin	6000	0
bin	6100	0
bin	6200	0
bin	6300	0
bin	6400	0
bin	6500	0
bin	6600	0
bin	6700	0
bin	6800	0
bin	6900	0
bin	7000	0
bin	7100	0
bin	7200	0
bin	7300	0
bin	7400	0
bin	7500	0
bin	7600	0
bin	7700	0
bin	7800	0
bin	7900	0
bin	8000	0
bin	8100	0
bin	8200	0
bin	8300	483
bin	8400	0
bin	8500	0
bin	8600	0
bin	8700	0
bin	8800	0
bin	8900	0
bin	9000	0
bin	9100	0
bin	9200	0
bin	9300	0
bin	9400	0
scalar TimingExample.client1.ethernet.paddingInserter flowOutgoingPacketLengths:sum 0
attr interpolationmode none
attr recordingmode sum
attr source "packetLength(demuxFlow(merge(packetPushedOut, packetPulledOut)))"
attr title "flow specific outgoing packet lengths, sum"
attr unit b
statistic TimingExample.client1.ethernet.paddingInserter flowOutgoingPacketLengths:histogram
field count 0
field mean -nan
field stddev nan
field min nan
field max nan
field sum 0
field sqrsum 0
attr interpolationmode none
attr recordingmode histogram
attr source "packetLength(demuxFlow(merge(packetPushedOut, packetPulledOut)))"
attr title "flow specific outgoing packet lengths"
attr unit b
bin	-inf	0
bin	0	0
bin	1	0
scalar TimingExample.client1.ethernet.paddingInserter client1:flowOutgoingPacketLengths:sum 4282112
attr interpolationmode none
attr recordingmode sum
attr source "packetLength(demuxFlow(merge(packetPushedOut, packetPulledOut)))"
attr title "flow specific outgoing packet lengths, sum"
attr unit b
statistic TimingExample.client1.ethernet.paddingInserter client1:flowOutgoingPacketLengths:histogram
field count 542
field mean 7900.5756457565
field stddev 1246.9851646017
field min 4336
field max 8336
field sum 4282112
field sqrsum 34672389632
attr interpolationmode none
attr recordingmode histogram
attr source "packetLength(demuxFlow(merge(packetPushedOut, packetPulledOut)))"
attr title "flow specific outgoing packet lengths"
attr unit b
bin	-inf	0
bin	3300	0
bin	3400	0
bin	3500	0
bin	3600	0
bin	3700	0
bin	3800	0
bin	3900	0
bin	4000	0
bin	4100	0
bin	4200	0
bin	4300	59
bin	4400	0
bin	4500	0
bin	4600	0
bin	4700	0
bin	4800	0
bin	4900	0
bin	5000	0
bin	5100	0
bin	5200	0
bin	5300	0
bin	5400	0
bin	5500	0
bin	5600	0
bin	5700	0
bin	5800	0
bin	5900	0
bin	6000	0
bin	6100	0
bin	6200	0
bin	6300	0
bin	6400	0
bin	6500	0
bin	6600	0
bin	6700	0
bin	6800	0
bin	6900	0
bin	7000	0
bin	7100	0
bin	7200	0
bin	7300	0
bin	7400	0
bin	7500	0
bin	7600	0
bin	7700	0
bin	7800	0
bin	7900	0
bin	8000	0
bin	8100	0
bin	8200	0
bin	8300	483
bin	8400	0
bin	8500	0
bin	8600	0
bin	8700	0
bin	8800	0
bin	8900	0
bin	9000	0
bin	9100	0
bin	9200	0
bin	9300	0
bin	9400	0
scalar TimingExample.client1.ethernet.paddingInserter incomingPackets:count 542
attr recordingmode count
attr source "merge(packetPushedIn, packetPulledIn)"
attr title "incoming packets, count"
attr unit pk
scalar TimingExample.client1.ethernet.paddingInserter incomingPacketLengths:sum 4282112
attr interpolationmode none
attr recordingmode sum
attr source "packetLength(merge(packetPushedIn, packetPulledIn))"
attr title "incoming packet lengths, sum"
attr unit b
statistic TimingExample.client1.ethernet.paddingInserter incomingPacketLengths:histogram
field count 542
field mean 7900.5756457565
field stddev 1246.9851646017
field min 4336
field max 8336
field sum 4282112
field sqrsum 34672389632
attr interpolationmode none
attr recordingmode histogram
attr source "packetLength(merge(packetPushedIn, packetPulledIn))"
attr title "incoming packet lengths"
attr unit b
bin	-inf	0
bin	3300	0
bin	3400	0
bin	3500	0
bin	3600	0
bin	3700	0
bin	3800	0
bin	3900	0
bin	4000	0
bin	4100	0
bin	4200	0
bin	4300	59
bin	4400	0
bin	4500	0
bin	4600	0
bin	4700	0
bin	4800	0
bin	4900	0
bin	5000	0
bin	5100	0
bin	5200	0
bin	5300	0
bin	5400	0
bin	5500	0
bin	5600	0
bin	5700	0
bin	5800	0
bin	5900	0
bin	6000	0
bin	6100	0
bin	6200	0
bin	6300	0
bin	6400	0
bin	6500	0
bin	6600	0
bin	6700	0
bin	6800	0
bin	6900	0
bin	7000	0
bin	7100	0
bin	7200	0
bin	7300	0
bin	7400	0
bin	7500	0
bin	7600	0
bin	7700	0
bin	7800	0
bin	7900	0
bin	8000	0
bin	8100	0
bin	8200	0
bin	8300	483
bin	8400	0
bin	8500	0
bin	8600	0
bin	8700	0
bin	8800	0
bin	8900	0
bin	9000	0
bin	9100	0
bin	9200	0
bin	9300	0
bin	9400	0
scalar TimingExample.client1.ethernet.paddingInserter flowIncomingPacketLengths:sum 0
attr interpolationmode none
attr recordingmode sum
attr source "packetLength(demuxFlow(merge(packetPushedIn, packetPulledIn)))"
attr title "flow specific incoming packet lengths, sum"
attr unit b
statistic TimingExample.client1.ethernet.paddingInserter flowIncomingPacketLengths:histogram
field count 0
field mean -nan
field stddev nan
field min nan
field max nan
field sum 0
field sqrsum 0
attr interpolationmode none
attr recordingmode histogram
attr source "packetLength(demuxFlow(merge(packetPushedIn, packetPulledIn)))"
attr title "flow specific incoming packet lengths"
attr unit b
bin	-inf	0
bin	0	0
bin	1	0
scalar TimingExample.client1.ethernet.paddingInserter client1:flowIncomingPacketLengths:sum 4282112
attr interpolationmode none
attr recordingmode sum
attr source "packetLength(demuxFlow(merge(packetPushedIn, packetPulledIn)))"
attr title "flow specific incoming packet lengths, sum"
attr unit b
statistic TimingExample.client1.ethernet.paddingInserter client1:flowIncomingPacketLengths:histogram
field count 542
field mean 7900.5756457565
field stddev 1246.9851646017
field min 4336
field max 8336
field sum 4282112
field sqrsum 34672389632
attr interpolationmode none
attr recordingmode histogram
attr source "packetLength(demuxFlow(merge(packetPushedIn, packetPulledIn)))"
attr title "flow specific incoming packet lengths"
attr unit b
bin	-inf	0
bin	3300	0
bin	3400	0
bin	3500	0
bin	3600	0
bin	3700	0
bin	3800	0
bin	3900	0
bin	4000	0
bin	4100	0
bin	4200	0
bin	4300	59
bin	4400	0
bin	4500	0
bin	4600	0
bin	4700	0
bin	4800	0
bin	4900	0
bin	5000	0
bin	5100	0
bin	5200	0
bin	5300	0
bin	5400	0
bin	5500	0
bin	5600	0
bin	5700	0
bin	5800	0
bin	5900	0
bin	6000	0
bin	6100	0
bin	6200	0
bin	6300	0
bin	6400	0
bin	6500	0
bin	6600	0
bin	6700	0
bin	6800	0
bin	6900	0
bin	7000	0
bin	7100	0
bin	7200	0
bin	7300	0
bin	7400	0
bin	7500	0
bin	7600	0
bin	7700	0
bin	7800	0
bin	7900	0
bin	8000	0
bin	8100	0
bin	8200	0
bin	8300	483
bin	8400	0
bin	8500	0
bin	8600	0
bin	8700	0
bin	8800	0
bin	8900	0
bin	9000	0
bin	9100	0
bin	9200	0
bin	9300	0
bin	9400	0
scalar TimingExample.client1.ethernet.fcsInserter outgoingPackets:count 542
attr recordingmode count
attr source "merge(packetPushedOut, packetPulledOut)"
attr title "outgoing packets, count"
attr unit pk
scalar TimingExample.client1.ethernet.fcsInserter outgoingPacketLengths:sum 4299456
attr interpolationmode none
attr recordingmode sum
attr source "packetLength(merge(packetPushedOut, packetPulledOut))"
attr title "outgoing packet lengths, sum"
attr unit b
statistic TimingExample.client1.ethernet.fcsInserter outgoingPacketLengths:histogram
field count 542
field mean 7932.5756457565
field stddev 1246.9851646017
field min 4368
field max 8368
field sum 4299456
field sqrsum 34946999808
attr interpolationmode none
attr recordingmode histogram
attr source "packetLength(merge(packetPushedOut, packetPulledOut))"
attr title "outgoing packet lengths"
attr unit b
bin	-inf	0
bin	3300	0
bin	3400	0
bin	3500	0
bin	3600	0
bin	3700	0
bin	3800	0
bin	3900	0
bin	4000	0
bin	4100	0
bin	4200	0
bin	4300	59
bin	4400	0
bin	4500	0
bin	4600	0
bin	4700	0
bin	4800	0
bin	4900	0
bin	5000	0
bin	5100	0
bin	5200	0
bin	5300	0
bin	5400	0
bin	5500	0
bin	5600	0
bin	5700	0
bin	5800	0
bin	5900	0
bin	6000	0
bin	6100	0
bin	6200	0
bin	6300	0
bin	6400	0
bin	6500	0
bin	6600	0
bin	6700	0
bin	6800	0
bin	6900	0
bin	7000	0
bin	7100	0
bin	7200	0
bin	7300	0
bin	7400	0
bin	7500	0
bin	7600	0
bin	7700	0
bin	7800	0
bin	7900	0
bin	8000	0
bin	8100	0
bin	8200	0
bin	8300	483
bin	8400	0
bin	8500	0
bin	8600	0
bin	8700	0
bin	8800	0
bin	8900	0
bin	9000	0
bin	9100	0
bin	9200	0
bin	9300	0
bin	9400	0
scalar TimingExample.client1.ethernet.fcsInserter flowOutgoingPacketLengths:sum 0
attr interpolationmode none
attr recordingmode sum
attr source "packetLength(demuxFlow(merge(packetPushedOut, packetPulledOut)))"
attr title "flow specific outgoing packet lengths, sum"
attr unit b
statistic TimingExample.client1.ethernet.fcsInserter flowOutgoingPacketLengths:histogram
field count 0
field mean -nan
field stddev nan
field min nan
field max nan
field sum 0
field sqrsum 0
attr interpolationmode none
attr recordingmode histogram
attr source "packetLength(demuxFlow(merge(packetPushedOut, packetPulledOut)))"
attr title "flow specific outgoing packet lengths"
attr unit b
bin	-inf	0
bin	0	0
bin	1	0
scalar TimingExample.client1.ethernet.fcsInserter client1:flowOutgoingPacketLengths:sum 4299456
attr interpolationmode none
attr recordingmode sum
attr source "packetLength(demuxFlow(merge(packetPushedOut, packetPulledOut)))"
attr title "flow specific outgoing packet lengths, sum"
attr unit b
statistic TimingExample.client1.ethernet.fcsInserter client1:flowOutgoingPacketLengths:histogram
field count 542
field mean 7932.5756457565
field stddev 1246.9851646017
field min 4368
field max 8368
field sum 4299456
field sqrsum 34946999808
attr interpolationmode none
attr recordingmode histogram
attr source "packetLength(demuxFlow(merge(packetPushedOut, packetPulledOut)))"
attr title "flow specific outgoing packet lengths"
attr unit b
bin	-inf	0
bin	3300	0
bin	3400	0
bin	3500	0
bin	3600	0
bin	3700	0
bin	3800	0
bin	3900	0
bin	4000	0
bin	4100	0
bin	4200	0
bin	4300	59
bin	4400	0
bin	4500	0
bin	4600	0
bin	4700	0
bin	4800	0
bin	4900	0
bin	5000	0
bin	5100	0
bin	5200	0
bin	5300	0
bin	5400	0
bin	5500	0
bin	5600	0
bin	5700	0
bin	5800	0
bin	5900	0
bin	6000	0
bin	6100	0
bin	6200	0
bin	6300	0
bin	6400	0
bin	6500	0
bin	6600	0
bin	6700	0
bin	6800	0
bin	6900	0
bin	7000	0
bin	7100	0
bin	7200	0
bin	7300	0
bin	7400	0
bin	7500	0
bin	7600	0
bin	7700	0
bin	7800	0
bin	7900	0
bin	8000	0
bin	8100	0
bin	8200	0
bin	8300	483
bin	8400	0
bin	8500	0
bin	8600	0
bin	8700	0
bin	8800	0
bin	8900	0
bin	9000	0
bin	9100	0
bin	9200	0
bin	9300	0
bin	9400	0
scalar TimingExample.client1.ethernet.fcsInserter incomingPackets:count 542
attr recordingmode count
attr source "merge(packetPushedIn, packetPulledIn)"
attr title "incoming packets, count"
attr unit pk
scalar TimingExample.client1.ethernet.fcsInserter incomingPacketLengths:sum 4282112
attr interpolationmode none
attr recordingmode sum
attr source "packetLength(merge(packetPushedIn, packetPulledIn))"
attr title "incoming packet lengths, sum"
attr unit b
statistic TimingExample.client1.ethernet.fcsInserter incomingPacketLengths:histogram
field count 542
field mean 7900.5756457565
field stddev 1246.9851646017
field min 4336
field max 8336
field sum 4282112
field sqrsum 34672389632
attr interpolationmode none
attr recordingmode histogram
attr source "packetLength(merge(packetPushedIn, packetPulledIn))"
attr title "incoming packet lengths"
attr unit b
bin	-inf	0
bin	3300	0
bin	3400	0
bin	3500	0
bin	3600	0
bin	3700	0
bin	3800	0
bin	3900	0
bin	4000	0
bin	4100	0
bin	4200	0
bin	4300	59
bin	4400	0
bin	4500	0
bin	4600	0
bin	4700	0
bin	4800	0
bin	4900	0
bin	5000	0
bin	5100	0
bin	5200	0
bin	5300	0
bin	5400	0
bin	5500	0
bin	5600	0
bin	5700	0
bin	5800	0
bin	5900	0
bin	6000	0
bin	6100	0
bin	6200	0
bin	6300	0
bin	6400	0
bin	6500	0
bin	6600	0
bin	6700	0
bin	6800	0
bin	6900	0
bin	7000	0
bin	7100	0
bin	7200	0
bin	7300	0
bin	7400	0
bin	7500	0
bin	7600	0
bin	7700	0
bin	7800	0
bin	7900	0
bin	8000	0
bin	8100	0
bin	8200	0
bin	8300	483
bin	8400	0
bin	8500	0
bin	8600	0
bin	8700	0
bin	8800	0
bin	8900	0
bin	9000	0
bin	9100	0
bin	9200	0
bin	9300	0
bin	9400	0
scalar TimingExample.client1.ethernet.fcsInserter flowIncomingPacketLengths:sum 0
attr interpolationmode none
attr recordingmode sum
attr source "packetLength(demuxFlow(merge(packetPushedIn, packetPulledIn)))"
attr title "flow specific incoming packet lengths, sum"
attr unit b
statistic TimingExample.client1.ethernet.fcsInserter flowIncomingPacketLengths:histogram
field count 0
field mean -nan
field stddev nan
field min nan
field max nan
field sum 0
field sqrsum 0
attr interpolationmode none
attr recordingmode histogram
attr source "packetLength(demuxFlow(merge(packetPushedIn, packetPulledIn)))"
attr title "flow specific incoming packet lengths"
attr unit b
bin	-inf	0
bin	0	0
bin	1	0
scalar TimingExample.client1.ethernet.fcsInserter client1:flowIncomingPacketLengths:sum 4282112
attr interpolationmode none
attr recordingmode sum
attr source "packetLength(demuxFlow(merge(packetPushedIn, packetPulledIn)))"
attr title "flow specific incoming packet lengths, sum"
attr unit b
statistic TimingExample.client1.ethernet.fcsInserter client1:flowIncomingPacketLengths:histogram
field count 542
field mean 7900.5756457565
field stddev 1246.9851646017
field min 4336
field max 8336
field sum 4282112
field sqrsum 34672389632
attr interpolationmode none
attr recordingmode histogram
attr source "packetLength(demuxFlow(merge(packetPushedIn, packetPulledIn)))"
attr title "flow specific incoming packet lengths"
attr unit b
bin	-inf	0
bin	3300	0
bin	3400	0
bin	3500	0
bin	3600	0
bin	3700	0
bin	3800	0
bin	3900	0
bin	4000	0
bin	4100	0
bin	4200	0
bin	4300	59
bin	4400	0
bin	4500	0
bin	4600	0
bin	4700	0
bin	4800	0
bin	4900	0
bin	5000	0
bin	5100	0
bin	5200	0
bin	5300	0
bin	5400	0
bin	5500	0
bin	5600	0
bin	5700	0
bin	5800	0
bin	5900	0
bin	6000	0
bin	6100	0
bin	6200	0
bin	6300	0
bin	6400	0
bin	6500	0
bin	6600	0
bin	6700	0
bin	6800	0
bin	6900	0
bin	7000	0
bin	7100	0
bin	7200	0
bin	7300	0
bin	7400	0
bin	7500	0
bin	7600	0
bin	7700	0
bin	7800	0
bin	7900	0
bin	8000	0
bin	8100	0
bin	8200	0
bin	8300	483
bin	8400	0
bin	8500	0
bin	8600	0
bin	8700	0
bin	8800	0
bin	8900	0
bin	9000	0
bin	9100	0
bin	9200	0
bin	9300	0
bin	9400	0
scalar TimingExample.client1.ethernet.macHeaderChecker outgoingPackets:count 0
attr recordingmode count
attr source "merge(packetPushedOut, packetPulledOut)"
attr title "outgoing packets, count"
attr unit pk
scalar TimingExample.client1.ethernet.macHeaderChecker outgoingPacketLengths:sum 0
attr interpolationmode none
attr recordingmode sum
attr source "packetLength(merge(packetPushedOut, packetPulledOut))"
attr title "outgoing packet lengths, sum"
attr unit b
statistic TimingExample.client1.ethernet.macHeaderChecker outgoingPacketLengths:histogram
field count 0
field mean -nan
field stddev nan
field min nan
field max nan
field sum 0
field sqrsum 0
attr interpolationmode none
attr recordingmode histogram
attr source "packetLength(merge(packetPushedOut, packetPulledOut))"
attr title "outgoing packet lengths"
attr unit b
bin	-inf	0
bin	0	0
bin	1	0
scalar TimingExample.client1.ethernet.macHeaderChecker flowOutgoingPacketLengths:sum 0
attr interpolationmode none
attr recordingmode sum
attr source "packetLength(demuxFlow(merge(packetPushedOut, packetPulledOut)))"
attr title "flow specific outgoing packet lengths, sum"
attr unit b
statistic TimingExample.client1.ethernet.macHeaderChecker flowOutgoingPacketLengths:histogram
field count 0
field mean -nan
field stddev nan
field min nan
field max nan
field sum 0
field sqrsum 0
attr interpolationmode none
attr recordingmode histogram
attr source "packetLength(demuxFlow(merge(packetPushedOut, packetPulledOut)))"
attr title "flow specific outgoing packet lengths"
attr unit b
bin	-inf	0
bin	0	0
bin	1	0
scalar TimingExample.client1.ethernet.macHeaderChecker incomingPackets:count 532
attr recordingmode count
attr source "merge(packetPushedIn, packetPulledIn)"
attr title "incoming packets, count"
attr unit pk
scalar TimingExample.client1.ethernet.macHeaderChecker incomingPacketLengths:sum 4246752
attr interpolationmode none
attr recordingmode sum
attr source "packetLength(merge(packetPushedIn, packetPulledIn))"
attr title "incoming packet lengths, sum"
attr unit b
statistic TimingExample.client1.ethernet.macHeaderChecker incomingPacketLengths:histogram
field count 532
field mean 7982.6165413534
field stddev 1136.257369335
field min 4336
field max 8336
field sum 4246752
field sqrsum 34585756672
attr interpolationmode none
attr recordingmode histogram
attr source "packetLength(merge(packetPushedIn, packetPulledIn))"
attr title "incoming packet lengths"
attr unit b
bin	-inf	0
bin	3300	0
bin	3400	0
bin	3500	0
bin	3600	0
bin	3700	0
bin	3800	0
bin	3900	0
bin	4000	0
bin	4100	0
bin	4200	0
bin	4300	47
bin	4400	0
bin	4500	0
bin	4600	0
bin	4700	0
bin	4800	0
bin	4900	0
bin	5000	0
bin	5100	0
bin	5200	0
bin	5300	0
bin	5400	0
bin	5500	0
bin	5600	0
bin	5700	0
bin	5800	0
bin	5900	0
bin	6000	0
bin	6100	0
bin	6200	0
bin	6300	0
bin	6400	0
bin	6500	0
bin	6600	0
bin	6700	0
bin	6800	0
bin	6900	0
bin	7000	0
bin	7100	0
bin	7200	0
bin	7300	0
bin	7400	0
bin	7500	0
bin	7600	0
bin	7700	0
bin	7800	0
bin	7900	0
bin	8000	0
bin	8100	0
bin	8200	0
bin	8300	485
bin	8400	0
bin	8500	0
bin	8600	0
bin	8700	0
bin	8800	0
bin	8900	0
bin	9000	0
bin	9100	0
bin	9200	0
bin	9300	0
bin	9400	0
scalar TimingExample.client1.ethernet.macHeaderChecker flowIncomingPacketLengths:sum 0
attr interpolationmode none
attr recordingmode sum
attr source "packetLength(demuxFlow(merge(packetPushedIn, packetPulledIn)))"
attr title "flow specific incoming packet lengths, sum"
attr unit b
statistic TimingExample.client1.ethernet.macHeaderChecker flowIncomingPacketLengths:histogram
field count 0
field mean -nan
field stddev nan
field min nan
field max nan
field sum 0
field sqrsum 0
attr interpolationmode none
attr recordingmode histogram
attr source "packetLength(demuxFlow(merge(packetPushedIn, packetPulledIn)))"
attr title "flow specific incoming packet lengths"
attr unit b
bin	-inf	0
bin	0	0
bin	1	0
scalar TimingExample.client1.ethernet.macHeaderChecker switch1:flowIncomingPacketLengths:sum 4246752
attr interpolationmode none
attr recordingmode sum
attr source "packetLength(demuxFlow(merge(packetPushedIn, packetPulledIn)))"
attr title "flow specific incoming packet lengths, sum"
attr unit b
statistic TimingExample.client1.ethernet.macHeaderChecker switch1:flowIncomingPacketLengths:histogram
field count 532
field mean 7982.6165413534
field stddev 1136.257369335
field min 4336
field max 8336
field sum 4246752
field sqrsum 34585756672
attr interpolationmode none
attr recordingmode histogram
attr source "packetLength(demuxFlow(merge(packetPushedIn, packetPulledIn)))"
attr title "flow specific incoming packet lengths"
attr unit b
bin	-inf	0
bin	3300	0
bin	3400	0
bin	3500	0
bin	3600	0
bin	3700	0
bin	3800	0
bin	3900	0
bin	4000	0
bin	4100	0
bin	4200	0
bin	4300	47
bin	4400	0
bin	4500	0
bin	4600	0
bin	4700	0
bin	4800	0
bin	4900	0
bin	5000	0
bin	5100	0
bin	5200	0
bin	5300	0
bin	5400	0
bin	5500	0
bin	5600	0
bin	5700	0
bin	5800	0
bin	5900	0
bin	6000	0
bin	6100	0
bin	6200	0
bin	6300	0
bin	6400	0
bin	6500	0
bin	6600	0
bin	6700	0
bin	6800	0
bin	6900	0
bin	7000	0
bin	7100	0
bin	7200	0
bin	7300	0
bin	7400	0
bin	7500	0
bin	7600	0
bin	7700	0
bin	7800	0
bin	7900	0
bin	8000	0
bin	8100	0
bin	8200	0
bin	8300	485
bin	8400	0
bin	8500	0
bin	8600	0
bin	8700	0
bin	8800	0
bin	8900	0
bin	9000	0
bin	9100	0
bin	9200	0
bin	9300	0
bin	9400	0
scalar TimingExample.client1.ethernet.macHeaderChecker client2:flowIncomingPacketLengths:sum 4246752
attr interpolationmode none
attr recordingmode sum
attr source "packetLength(demuxFlow(merge(packetPushedIn, packetPulledIn)))"
attr title "flow specific incoming packet lengths, sum"
attr unit b
statistic TimingExample.client1.ethernet.macHeaderChecker client2:flowIncomingPacketLengths:histogram
field count 532
field mean 7982.6165413534
field stddev 1136.257369335
field min 4336
field max 8336
field sum 4246752
field sqrsum 34585756672
attr interpolationmode none
attr recordingmode histogram
attr source "packetLength(demuxFlow(merge(packetPushedIn, packetPulledIn)))"
attr title "flow specific incoming packet lengths"
attr unit b
bin	-inf	0
bin	3300	0
bin	3400	0
bin	3500	0
bin	3600	0
bin	3700	0
bin	3800	0
bin	3900	0
bin	4000	0
bin	4100	0
bin	4200	0
bin	4300	47
bin	4400	0
bin	4500	0
bin	4600	0
bin	4700	0
bin	4800	0
bin	4900	0
bin	5000	0
bin	5100	0
bin	5200	0
bin	5300	0
bin	5400	0
bin	5500	0
bin	5600	0
bin	5700	0
bin	5800	0
bin	5900	0
bin	6000	0
bin	6100	0
bin	6200	0
bin	6300	0
bin	6400	0
bin	6500	0
bin	6600	0
bin	6700	0
bin	6800	0
bin	6900	0
bin	7000	0
bin	7100	0
bin	7200	0
bin	7300	0
bin	7400	0
bin	7500	0
bin	7600	0
bin	7700	0
bin	7800	0
bin	7900	0
bin	8000	0
bin	8100	0
bin	8200	0
bin	8300	485
bin	8400	0
bin	8500	0
bin	8600	0
bin	8700	0
bin	8800	0
bin	8900	0
bin	9000	0
bin	9100	0
bin	9200	0
bin	9300	0
bin	9400	0
scalar TimingExample.client1.ethernet.macHeaderChecker droppedPackets:count 532
attr recordingmode count
attr source packetDropped
attr title "dropped packets, count"
attr unit pk
scalar TimingExample.client1.ethernet.macHeaderChecker droppedPacketLengths:sum 4246752
attr interpolationmode none
attr recordingmode sum
attr source packetLength(packetDropped)
attr title "dropped packet lengths, sum"
attr unit b
statistic TimingExample.client1.ethernet.macHeaderChecker droppedPacketLengths:histogram
field count 532
field mean 7982.6165413534
field stddev 1136.257369335
field min 4336
field max 8336
field sum 4246752
field sqrsum 34585756672
attr interpolationmode none
attr recordingmode histogram
attr source packetLength(packetDropped)
attr title "dropped packet lengths"
attr unit b
bin	-inf	0
bin	3300	0
bin	3400	0
bin	3500	0
bin	3600	0
bin	3700	0
bin	3800	0
bin	3900	0
bin	4000	0
bin	4100	0
bin	4200	0
bin	4300	47
bin	4400	0
bin	4500	0
bin	4600	0
bin	4700	0
bin	4800	0
bin	4900	0
bin	5000	0
bin	5100	0
bin	5200	0
bin	5300	0
bin	5400	0
bin	5500	0
bin	5600	0
bin	5700	0
bin	5800	0
bin	5900	0
bin	6000	0
bin	6100	0
bin	6200	0
bin	6300	0
bin	6400	0
bin	6500	0
bin	6600	0
bin	6700	0
bin	6800	0
bin	6900	0
bin	7000	0
bin	7100	0
bin	7200	0
bin	7300	0
bin	7400	0
bin	7500	0
bin	7600	0
bin	7700	0
bin	7800	0
bin	7900	0
bin	8000	0
bin	8100	0
bin	8200	0
bin	8300	485
bin	8400	0
bin	8500	0
bin	8600	0
bin	8700	0
bin	8800	0
bin	8900	0
bin	9000	0
bin	9100	0
bin	9200	0
bin	9300	0
bin	9400	0
scalar TimingExample.client1.ethernet.macHeaderChecker flowDroppedPacketLengths:sum 0
attr interpolationmode none
attr recordingmode sum
attr source packetLength(demuxFlow(packetDropped))
attr title "flow specific dropped packet lengths, sum"
attr unit b
statistic TimingExample.client1.ethernet.macHeaderChecker flowDroppedPacketLengths:histogram
field count 0
field mean -nan
field stddev nan
field min nan
field max nan
field sum 0
field sqrsum 0
attr interpolationmode none
attr recordingmode histogram
attr source packetLength(demuxFlow(packetDropped))
attr title "flow specific dropped packet lengths"
attr unit b
bin	-inf	0
bin	0	0
bin	1	0
scalar TimingExample.client1.ethernet.macHeaderChecker switch1:flowDroppedPacketLengths:sum 4246752
attr interpolationmode none
attr recordingmode sum
attr source packetLength(demuxFlow(packetDropped))
attr title "flow specific dropped packet lengths, sum"
attr unit b
statistic TimingExample.client1.ethernet.macHeaderChecker switch1:flowDroppedPacketLengths:histogram
field count 532
field mean 7982.6165413534
field stddev 1136.257369335
field min 4336
field max 8336
field sum 4246752
field sqrsum 34585756672
attr interpolationmode none
attr recordingmode histogram
attr source packetLength(demuxFlow(packetDropped))
attr title "flow specific dropped packet lengths"
attr unit b
bin	-inf	0
bin	3300	0
bin	3400	0
bin	3500	0
bin	3600	0
bin	3700	0
bin	3800	0
bin	3900	0
bin	4000	0
bin	4100	0
bin	4200	0
bin	4300	47
bin	4400	0
bin	4500	0
bin	4600	0
bin	4700	0
bin	4800	0
bin	4900	0
bin	5000	0
bin	5100	0
bin	5200	0
bin	5300	0
bin	5400	0
bin	5500	0
bin	5600	0
bin	5700	0
bin	5800	0
bin	5900	0
bin	6000	0
bin	6100	0
bin	6200	0
bin	6300	0
bin	6400	0
bin	6500	0
bin	6600	0
bin	6700	0
bin	6800	0
bin	6900	0
bin	7000	0
bin	7100	0
bin	7200	0
bin	7300	0
bin	7400	0
bin	7500	0
bin	7600	0
bin	7700	0
bin	7800	0
bin	7900	0
bin	8000	0
bin	8100	0
bin	8200	0
bin	8300	485
bin	8400	0
bin	8500	0
bin	8600	0
bin	8700	0
bin	8800	0
bin	8900	0
bin	9000	0
bin	9100	0
bin	9200	0
bin	9300	0
bin	9400	0
scalar TimingExample.client1.ethernet.macHeaderChecker client2:flowDroppedPacketLengths:sum 4246752
attr interpolationmode none
attr recordingmode sum
attr source packetLength(demuxFlow(packetDropped))
attr title "flow specific dropped packet lengths, sum"
attr unit b
statistic TimingExample.client1.ethernet.macHeaderChecker client2:flowDroppedPacketLengths:histogram
field count 532
field mean 7982.6165413534
field stddev 1136.257369335
field min 4336
field max 8336
field sum 4246752
field sqrsum 34585756672
attr interpolationmode none
attr recordingmode histogram
attr source packetLength(demuxFlow(packetDropped))
attr title "flow specific dropped packet lengths"
attr unit b
bin	-inf	0
bin	3300	0
bin	3400	0
bin	3500	0
bin	3600	0
bin	3700	0
bin	3800	0
bin	3900	0
bin	4000	0
bin	4100	0
bin	4200	0
bin	4300	47
bin	4400	0
bin	4500	0
bin	4600	0
bin	4700	0
bin	4800	0
bin	4900	0
bin	5000	0
bin	5100	0
bin	5200	0
bin	5300	0
bin	5400	0
bin	5500	0
bin	5600	0
bin	5700	0
bin	5800	0
bin	5900	0
bin	6000	0
bin	6100	0
bin	6200	0
bin	6300	0
bin	6400	0
bin	6500	0
bin	6600	0
bin	6700	0
bin	6800	0
bin	6900	0
bin	7000	0
bin	7100	0
bin	7200	0
bin	7300	0
bin	7400	0
bin	7500	0
bin	7600	0
bin	7700	0
bin	7800	0
bin	7900	0
bin	8000	0
bin	8100	0
bin	8200	0
bin	8300	485
bin	8400	0
bin	8500	0
bin	8600	0
bin	8700	0
bin	8800	0
bin	8900	0
bin	9000	0
bin	9100	0
bin	9200	0
bin	9300	0
bin	9400	0
scalar TimingExample.client1.ethernet.fcsChecker outgoingPackets:count 532
attr recordingmode count
attr source "merge(packetPushedOut, packetPulledOut)"
attr title "outgoing packets, count"
attr unit pk
scalar TimingExample.client1.ethernet.fcsChecker outgoingPacketLengths:sum 4246752
attr interpolationmode none
attr recordingmode sum
attr source "packetLength(merge(packetPushedOut, packetPulledOut))"
attr title "outgoing packet lengths, sum"
attr unit b
statistic TimingExample.client1.ethernet.fcsChecker outgoingPacketLengths:histogram
field count 532
field mean 7982.6165413534
field stddev 1136.257369335
field min 4336
field max 8336
field sum 4246752
field sqrsum 34585756672
attr interpolationmode none
attr recordingmode histogram
attr source "packetLength(merge(packetPushedOut, packetPulledOut))"
attr title "outgoing packet lengths"
attr unit b
bin	-inf	0
bin	3300	0
bin	3400	0
bin	3500	0
bin	3600	0
bin	3700	0
bin	3800	0
bin	3900	0
bin	4000	0
bin	4100	0
bin	4200	0
bin	4300	47
bin	4400	0
bin	4500	0
bin	4600	0
bin	4700	0
bin	4800	0
bin	4900	0
bin	5000	0
bin	5100	0
bin	5200	0
bin	5300	0
bin	5400	0
bin	5500	0
bin	5600	0
bin	5700	0
bin	5800	0
bin	5900	0
bin	6000	0
bin	6100	0
bin	6200	0
bin	6300	0
bin	6400	0
bin	6500	0
bin	6600	0
bin	6700	0
bin	6800	0
bin	6900	0
bin	7000	0
bin	7100	0
bin	7200	0
bin	7300	0
bin	7400	0
bin	7500	0
bin	7600	0
bin	7700	0
bin	7800	0
bin	7900	0
bin	8000	0
bin	8100	0
bin	8200	0
bin	8300	485
bin	8400	0
bin	8500	0
bin	8600	0
bin	8700	0
bin	8800	0
bin	8900	0
bin	9000	0
bin	9100	0
bin	9200	0
bin	9300	0
bin	9400	0
scalar TimingExample.client1.ethernet.fcsChecker flowOutgoingPacketLengths:sum 0
attr interpolationmode none
attr recordingmode sum
attr source "packetLength(demuxFlow(merge(packetPushedOut, packetPulledOut)))"
attr title "flow specific outgoing packet lengths, sum"
attr unit b
statistic TimingExample.client1.ethernet.fcsChecker flowOutgoingPacketLengths:histogram
field count 0
field mean -nan
field stddev nan
field min nan
field max nan
field sum 0
field sqrsum 0
attr interpolationmode none
attr recordingmode histogram
attr source "packetLength(demuxFlow(merge(packetPushedOut, packetPulledOut)))"
attr title "flow specific outgoing packet lengths"
attr unit b
bin	-inf	0
bin	0	0
bin	1	0
scalar TimingExample.client1.ethernet.fcsChecker switch1:flowOutgoingPacketLengths:sum 4246752
attr interpolationmode none
attr recordingmode sum
attr source "packetLength(demuxFlow(merge(packetPushedOut, packetPulledOut)))"
attr title "flow specific outgoing packet lengths, sum"
attr unit b
statistic TimingExample.client1.ethernet.fcsChecker switch1:flowOutgoingPacketLengths:histogram
field count 532
field mean 7982.6165413534
field stddev 1136.257369335
field min 4336
field max 8336
field sum 4246752
field sqrsum 34585756672
attr interpolationmode none
attr recordingmode histogram
attr source "packetLength(demuxFlow(merge(packetPushedOut, packetPulledOut)))"
attr title "flow specific outgoing packet lengths"
attr unit b
bin	-inf	0
bin	3300	0
bin	3400	0
bin	3500	0
bin	3600	0
bin	3700	0
bin	3800	0
bin	3900	0
bin	4000	0
bin	4100	0
bin	4200	0
bin	4300	47
bin	4400	0
bin	4500	0
bin	4600	0
bin	4700	0
bin	4800	0
bin	4900	0
bin	5000	0
bin	5100	0
bin	5200	0
bin	5300	0
bin	5400	0
bin	5500	0
bin	5600	0
bin	5700	0
bin	5800	0
bin	5900	0
bin	6000	0
bin	6100	0
bin	6200	0
bin	6300	0
bin	6400	0
bin	6500	0
bin	6600	0
bin	6700	0
bin	6800	0
bin	6900	0
bin	7000	0
bin	7100	0
bin	7200	0
bin	7300	0
bin	7400	0
bin	7500	0
bin	7600	0
bin	7700	0
bin	7800	0
bin	7900	0
bin	8000	0
bin	8100	0
bin	8200	0
bin	8300	485
bin	8400	0
bin	8500	0
bin	8600	0
bin	8700	0
bin	8800	0
bin	8900	0
bin	9000	0
bin	9100	0
bin	9200	0
bin	9300	0
bin	9400	0
scalar TimingExample.client1.ethernet.fcsChecker client2:flowOutgoingPacketLengths:sum 4246752
attr interpolationmode none
attr recordingmode sum
attr source "packetLength(demuxFlow(merge(packetPushedOut, packetPulledOut)))"
attr title "flow specific outgoing packet lengths, sum"
attr unit b
statistic TimingExample.client1.ethernet.fcsChecker client2:flowOutgoingPacketLengths:histogram
field count 532
field mean 7982.6165413534
field stddev 1136.257369335
field min 4336
field max 8336
field sum 4246752
field sqrsum 34585756672
attr interpolationmode none
attr recordingmode histogram
attr source "packetLength(demuxFlow(merge(packetPushedOut, packetPulledOut)))"
attr title "flow specific outgoing packet lengths"
attr unit b
bin	-inf	0
bin	3300	0
bin	3400	0
bin	3500	0
bin	3600	0
bin	3700	0
bin	3800	0
bin	3900	0
bin	4000	0
bin	4100	0
bin	4200	0
bin	4300	47
bin	4400	0
bin	4500	0
bin	4600	0
bin	4700	0
bin	4800	0
bin	4900	0
bin	5000	0
bin	5100	0
bin	5200	0
bin	5300	0
bin	5400	0
bin	5500	0
bin	5600	0
bin	5700	0
bin	5800	0
bin	5900	0
bin	6000	0
bin	6100	0
bin	6200	0
bin	6300	0
bin	6400	0
bin	6500	0
bin	6600	0
bin	6700	0
bin	6800	0
bin	6900	0
bin	7000	0
bin	7100	0
bin	7200	0
bin	7300	0
bin	7400	0
bin	7500	0
bin	7600	0
bin	7700	0
bin	7800	0
bin	7900	0
bin	8000	0
bin	8100	0
bin	8200	0
bin	8300	485
bin	8400	0
bin	8500	0
bin	8600	0
bin	8700	0
bin	8800	0
bin	8900	0
bin	9000	0
bin	9100	0
bin	9200	0
bin	9300	0
bin	9400	0
scalar TimingExample.client1.ethernet.fcsChecker incomingPackets:count 532
attr recordingmode count
attr source "merge(packetPushedIn, packetPulledIn)"
attr title "incoming packets, count"
attr unit pk
scalar TimingExample.client1.ethernet.fcsChecker incomingPacketLengths:sum 4263776
attr interpolationmode none
attr recordingmode sum
attr source "packetLength(merge(packetPushedIn, packetPulledIn))"
attr title "incoming packet lengths, sum"
attr unit b
statistic TimingExample.client1.ethernet.fcsChecker incomingPacketLengths:histogram
field count 532
field mean 8014.6165413534
field stddev 1136.257369335
field min 4368
field max 8368
field sum 4263776
field sqrsum 34858093568
attr interpolationmode none
attr recordingmode histogram
attr source "packetLength(merge(packetPushedIn, packetPulledIn))"
attr title "incoming packet lengths"
attr unit b
bin	-inf	0
bin	3300	0
bin	3400	0
bin	3500	0
bin	3600	0
bin	3700	0
bin	3800	0
bin	3900	0
bin	4000	0
bin	4100	0
bin	4200	0
bin	4300	47
bin	4400	0
bin	4500	0
bin	4600	0
bin	4700	0
bin	4800	0
bin	4900	0
bin	5000	0
bin	5100	0
bin	5200	0
bin	5300	0
bin	5400	0
bin	5500	0
bin	5600	0
bin	5700	0
bin	5800	0
bin	5900	0
bin	6000	0
bin	6100	0
bin	6200	0
bin	6300	0
bin	6400	0
bin	6500	0
bin	6600	0
bin	6700	0
bin	6800	0
bin	6900	0
bin	7000	0
bin	7100	0
bin	7200	0
bin	7300	0
bin	7400	0
bin	7500	0
bin	7600	0
bin	7700	0
bin	7800	0
bin	7900	0
bin	8000	0
bin	8100	0
bin	8200	0
bin	8300	485
bin	8400	0
bin	8500	0
bin	8600	0
bin	8700	0
bin	8800	0
bin	8900	0
bin	9000	0
bin	9100	0
bin	9200	0
bin	9300	0
bin	9400	0
scalar TimingExample.client1.ethernet.fcsChecker flowIncomingPacketLengths:sum 0
attr interpolationmode none
attr recordingmode sum
attr source "packetLength(demuxFlow(merge(packetPushedIn, packetPulledIn)))"
attr title "flow specific incoming packet lengths, sum"
attr unit b
statistic TimingExample.client1.ethernet.fcsChecker flowIncomingPacketLengths:histogram
field count 0
field mean -nan
field stddev nan
field min nan
field max nan
field sum 0
field sqrsum 0
attr interpolationmode none
attr recordingmode histogram
attr source "packetLength(demuxFlow(merge(packetPushedIn, packetPulledIn)))"
attr title "flow specific incoming packet lengths"
attr unit b
bin	-inf	0
bin	0	0
bin	1	0
scalar TimingExample.client1.ethernet.fcsChecker switch1:flowIncomingPacketLengths:sum 4263776
attr interpolationmode none
attr recordingmode sum
attr source "packetLength(demuxFlow(merge(packetPushedIn, packetPulledIn)))"
attr title "flow specific incoming packet lengths, sum"
attr unit b
statistic TimingExample.client1.ethernet.fcsChecker switch1:flowIncomingPacketLengths:histogram
field count 532
field mean 8014.6165413534
field stddev 1136.257369335
field min 4368
field max 8368
field sum 4263776
field sqrsum 34858093568
attr interpolationmode none
attr recordingmode histogram
attr source "packetLength(demuxFlow(merge(packetPushedIn, packetPulledIn)))"
attr title "flow specific incoming packet lengths"
attr unit b
bin	-inf	0
bin	3300	0
bin	3400	0
bin	3500	0
bin	3600	0
bin	3700	0
bin	3800	0
bin	3900	0
bin	4000	0
bin	4100	0
bin	4200	0
bin	4300	47
bin	4400	0
bin	4500	0
bin	4600	0
bin	4700	0
bin	4800	0
bin	4900	0
bin	5000	0
bin	5100	0
bin	5200	0
bin	5300	0
bin	5400	0
bin	5500	0
bin	5600	0
bin	5700	0
bin	5800	0
bin	5900	0
bin	6000	0
bin	6100	0
bin	6200	0
bin	6300	0
bin	6400	0
bin	6500	0
bin	6600	0
bin	6700	0
bin	6800	0
bin	6900	0
bin	7000	0
bin	7100	0
bin	7200	0
bin	7300	0
bin	7400	0
bin	7500	0
bin	7600	0
bin	7700	0
bin	7800	0
bin	7900	0
bin	8000	0
bin	8100	0
bin	8200	0
bin	8300	485
bin	8400	0
bin	8500	0
bin	8600	0
bin	8700	0
bin	8800	0
bin	8900	0
bin	9000	0
bin	9100	0
bin	9200	0
bin	9300	0
bin	9400	0
scalar TimingExample.client1.ethernet.fcsChecker client2:flowIncomingPacketLengths:sum 4263776
attr interpolationmode none
attr recordingmode sum
attr source "packetLength(demuxFlow(merge(packetPushedIn, packetPulledIn)))"
attr title "flow specific incoming packet lengths, sum"
attr unit b
statistic TimingExample.client1.ethernet.fcsChecker client2:flowIncomingPacketLengths:histogram
field count 532
field mean 8014.6165413534
field stddev 1136.257369335
field min 4368
field max 8368
field sum 4263776
field sqrsum 34858093568
attr interpolationmode none
attr recordingmode histogram
attr source "packetLength(demuxFlow(merge(packetPushedIn, packetPulledIn)))"
attr title "flow specific incoming packet lengths"
attr unit b
bin	-inf	0
bin	3300	0
bin	3400	0
bin	3500	0
bin	3600	0
bin	3700	0
bin	3800	0
bin	3900	0
bin	4000	0
bin	4100	0
bin	4200	0
bin	4300	47
bin	4400	0
bin	4500	0
bin	4600	0
bin	4700	0
bin	4800	0
bin	4900	0
bin	5000	0
bin	5100	0
bin	5200	0
bin	5300	0
bin	5400	0
bin	5500	0
bin	5600	0
bin	5700	0
bin	5800	0
bin	5900	0
bin	6000	0
bin	6100	0
bin	6200	0
bin	6300	0
bin	6400	0
bin	6500	0
bin	6600	0
bin	6700	0
bin	6800	0
bin	6900	0
bin	7000	0
bin	7100	0
bin	7200	0
bin	7300	0
bin	7400	0
bin	7500	0
bin	7600	0
bin	7700	0
bin	7800	0
bin	7900	0
bin	8000	0
bin	8100	0
bin	8200	0
bin	8300	485
bin	8400	0
bin	8500	0
bin	8600	0
bin	8700	0
bin	8800	0
bin	8900	0
bin	9000	0
bin	9100	0
bin	9200	0
bin	9300	0
bin	9400	0
scalar TimingExample.client1.ethernet.fcsChecker droppedPackets:count 0
attr recordingmode count
attr source packetDropped
attr title "dropped packets, count"
attr unit pk
scalar TimingExample.client1.ethernet.fcsChecker droppedPacketLengths:sum 0
attr interpolationmode none
attr recordingmode sum
attr source packetLength(packetDropped)
attr title "dropped packet lengths, sum"
attr unit b
statistic TimingExample.client1.ethernet.fcsChecker droppedPacketLengths:histogram
field count 0
field mean -nan
field stddev nan
field min nan
field max nan
field sum 0
field sqrsum 0
attr interpolationmode none
attr recordingmode histogram
attr source packetLength(packetDropped)
attr title "dropped packet lengths"
attr unit b
bin	-inf	0
bin	0	0
bin	1	0
scalar TimingExample.client1.ethernet.fcsChecker flowDroppedPacketLengths:sum 0
attr interpolationmode none
attr recordingmode sum
attr source packetLength(demuxFlow(packetDropped))
attr title "flow specific dropped packet lengths, sum"
attr unit b
statistic TimingExample.client1.ethernet.fcsChecker flowDroppedPacketLengths:histogram
field count 0
field mean -nan
field stddev nan
field min nan
field max nan
field sum 0
field sqrsum 0
attr interpolationmode none
attr recordingmode histogram
attr source packetLength(demuxFlow(packetDropped))
attr title "flow specific dropped packet lengths"
attr unit b
bin	-inf	0
bin	0	0
bin	1	0
scalar TimingExample.client1.lo[0].lo rcvdPkFromHl:count 0
attr interpolationmode none
attr recordingmode count
attr source packetReceivedFromUpper
attr title "packets received from higher layer, count"
scalar TimingExample.client1.lo[0].lo rcvdPkFromHl:sum(packetBytes) 0
attr interpolationmode none
attr recordingmode sum(packetBytes)
attr source packetReceivedFromUpper
attr title "packets received from higher layer, sum(packetBytes)"
scalar TimingExample.client1.lo[0].lo passedUpPk:count 0
attr interpolationmode none
attr recordingmode count
attr source packetSentToUpper
attr title "packets passed to higher layer, count"
scalar TimingExample.client1.lo[0].lo passedUpPk:sum(packetBytes) 0
attr interpolationmode none
attr recordingmode sum(packetBytes)
attr source packetSentToUpper
attr title "packets passed to higher layer, sum(packetBytes)"
scalar TimingExample.client1.lo[0] packetDropInterfaceDown:count 0
attr interpolationmode none
attr recordingmode count
attr source packetDropReasonIsInterfaceDown(packetDropped)
attr title "packet drops: interface down, count"
scalar TimingExample.client1.lo[0] packetDropInterfaceDown:sum(packetBytes) 0
attr interpolationmode none
attr recordingmode sum(packetBytes)
attr source packetDropReasonIsInterfaceDown(packetDropped)
attr title "packet drops: interface down, sum(packetBytes)"
scalar TimingExample.client1.lo[0] packetDropNoCarrier:count 0
attr interpolationmode none
attr recordingmode count
attr source packetDropReasonIsNoCarrier(packetDropped)
attr title "packet drops: no carrier, count"
scalar TimingExample.client1.lo[0] packetDropNoCarrier:sum(packetBytes) 0
attr interpolationmode none
attr recordingmode sum(packetBytes)
attr source packetDropReasonIsNoCarrier(packetDropped)
attr title "packet drops: no carrier, sum(packetBytes)"
scalar TimingExample.client1.eth[0].macLayer.queue queueLength:last 0
attr autoWarmupFilter false
attr interpolationmode sample-hold
attr recordingmode last
attr source "warmup(atomic(constant0(packetPushEnded) + count(packetPushStarted) - count(packetPulled) - count(packetRemoved) - count(packetDropped)))"
attr title "queue length, last"
attr unit pk
scalar TimingExample.client1.eth[0].macLayer.queue queueLength:max 2
attr autoWarmupFilter false
attr interpolationmode sample-hold
attr recordingmode max
attr source "warmup(atomic(constant0(packetPushEnded) + count(packetPushStarted) - count(packetPulled) - count(packetRemoved) - count(packetDropped)))"
attr title "queue length, max"
attr unit pk
scalar TimingExample.client1.eth[0].macLayer.queue queueLength:timeavg 0.03136454123
attr autoWarmupFilter false
attr interpolationmode sample-hold
attr recordingmode timeavg
attr source "warmup(atomic(constant0(packetPushEnded) + count(packetPushStarted) - count(packetPulled) - count(packetRemoved) - count(packetDropped)))"
attr title "queue length, timeavg"
attr unit pk
scalar TimingExample.client1.eth[0].macLayer.queue queueBitLength:last 0
attr autoWarmupFilter false
attr interpolationmode sample-hold
attr recordingmode last
attr source "warmup(atomic(constant0(packetPushEnded) + sum(packetLength(packetPushStarted)) - sum(packetLength(packetPulled)) - sum(packetLength(packetRemoved)) - sum(packetLength(packetDropped))))"
attr title "queue bit length, last"
attr unit b
scalar TimingExample.client1.eth[0].macLayer.queue queueBitLength:max 16736
attr autoWarmupFilter false
attr interpolationmode sample-hold
attr recordingmode max
attr source "warmup(atomic(constant0(packetPushEnded) + sum(packetLength(packetPushStarted)) - sum(packetLength(packetPulled)) - sum(packetLength(packetRemoved)) - sum(packetLength(packetDropped))))"
attr title "queue bit length, max"
attr unit b
scalar TimingExample.client1.eth[0].macLayer.queue queueBitLength:timeavg 223.11556813264
attr autoWarmupFilter false
attr interpolationmode sample-hold
attr recordingmode timeavg
attr source "warmup(atomic(constant0(packetPushEnded) + sum(packetLength(packetPushStarted)) - sum(packetLength(packetPulled)) - sum(packetLength(packetRemoved)) - sum(packetLength(packetDropped))))"
attr title "queue bit length, timeavg"
attr unit b
statistic TimingExample.client1.eth[0].macLayer.queue queueingTime:histogram
field count 542
field mean 5.7868157250923e-06
field stddev 1.5812410918146e-05
field min 0
field max 9.3473224e-05
field sum 0.003136454123
field sqrsum 1.5341757746297e-07
attr interpolationmode none
attr recordingmode histogram
attr source queueingTime(packetPulled)
attr title "queueing times"
attr unit s
bin	-inf	0
bin	0	454
bin	2e-06	3
bin	4e-06	4
bin	6e-06	0
bin	8e-06	2
bin	1e-05	2
bin	1.2e-05	3
bin	1.4e-05	4
bin	1.6e-05	6
bin	1.8e-05	3
bin	2e-05	3
bin	2.2e-05	2
bin	2.4e-05	1
bin	2.6e-05	2
bin	2.8e-05	3
bin	3e-05	3
bin	3.2e-05	3
bin	3.4e-05	4
bin	3.6e-05	3
bin	3.8e-05	4
bin	4e-05	6
bin	4.2e-05	2
bin	4.4e-05	1
bin	4.6e-05	1
bin	4.8e-05	2
bin	5e-05	1
bin	5.2e-05	2
bin	5.4e-05	3
bin	5.6e-05	1
bin	5.8e-05	0
bin	6e-05	0
bin	6.2e-05	2
bin	6.4e-05	2
bin	6.6e-05	1
bin	6.8e-05	3
bin	7e-05	0
bin	7.2e-05	0
bin	7.4e-05	1
bin	7.6e-05	0
bin	7.8e-05	0
bin	8e-05	1
bin	8.2e-05	1
bin	8.4e-05	2
bin	8.6e-05	0
bin	8.8e-05	0
bin	9e-05	0
bin	9.2e-05	1
bin	9.4e-05	0
bin	9.6e-05	0
bin	9.8e-05	0
bin	0.0001	0
bin	0.000102	0
bin	0.000104	0
bin	0.000106	0
bin	0.000108	0
scalar TimingExample.client1.eth[0].macLayer.queue outgoingPackets:count 542
attr recordingmode count
attr source packetPulled
attr title "outgoing packets, count"
attr unit pk
scalar TimingExample.client1.eth[0].macLayer.queue outgoingPacketLengths:sum 4299456
attr interpolationmode none
attr recordingmode sum
attr source packetLength(packetPulled)
attr title "outgoing packet lengths, sum"
attr unit b
statistic TimingExample.client1.eth[0].macLayer.queue outgoingPacketLengths:histogram
field count 542
field mean 7932.5756457565
field stddev 1246.9851646017
field min 4368
field max 8368
field sum 4299456
field sqrsum 34946999808
attr interpolationmode none
attr recordingmode histogram
attr source packetLength(packetPulled)
attr title "outgoing packet lengths"
attr unit b
bin	-inf	0
bin	3300	0
bin	3400	0
bin	3500	0
bin	3600	0
bin	3700	0
bin	3800	0
bin	3900	0
bin	4000	0
bin	4100	0
bin	4200	0
bin	4300	59
bin	4400	0
bin	4500	0
bin	4600	0
bin	4700	0
bin	4800	0
bin	4900	0
bin	5000	0
bin	5100	0
bin	5200	0
bin	5300	0
bin	5400	0
bin	5500	0
bin	5600	0
bin	5700	0
bin	5800	0
bin	5900	0
bin	6000	0
bin	6100	0
bin	6200	0
bin	6300	0
bin	6400	0
bin	6500	0
bin	6600	0
bin	6700	0
bin	6800	0
bin	6900	0
bin	7000	0
bin	7100	0
bin	7200	0
bin	7300	0
bin	7400	0
bin	7500	0
bin	7600	0
bin	7700	0
bin	7800	0
bin	7900	0
bin	8000	0
bin	8100	0
bin	8200	0
bin	8300	483
bin	8400	0
bin	8500	0
bin	8600	0
bin	8700	0
bin	8800	0
bin	8900	0
bin	9000	0
bin	9100	0
bin	9200	0
bin	9300	0
bin	9400	0
statistic TimingExample.client1.eth[0].macLayer.queue flowQueueingTime:histogram
field count 0
field mean -nan
field stddev nan
field min nan
field max nan
field sum 0
field sqrsum 0
attr interpolationmode none
attr recordingmode histogram
attr source queueingTime(demuxFlow(packetPulled))
attr title "flow queueing times"
attr unit s
bin	-inf	0
bin	0	0
bin	1	0
statistic TimingExample.client1.eth[0].macLayer.queue client1:flowQueueingTime:histogram
field count 542
field mean 5.7868157250923e-06
field stddev 1.5812410918146e-05
field min 0
field max 9.3473224e-05
field sum 0.003136454123
field sqrsum 1.5341757746297e-07
attr interpolationmode none
attr recordingmode histogram
attr source queueingTime(demuxFlow(packetPulled))
attr title "flow queueing times"
attr unit s
bin	-inf	0
bin	0	454
bin	2e-06	3
bin	4e-06	4
bin	6e-06	0
bin	8e-06	2
bin	1e-05	2
bin	1.2e-05	3
bin	1.4e-05	4
bin	1.6e-05	6
bin	1.8e-05	3
bin	2e-05	3
bin	2.2e-05	2
bin	2.4e-05	1
bin	2.6e-05	2
bin	2.8e-05	3
bin	3e-05	3
bin	3.2e-05	3
bin	3.4e-05	4
bin	3.6e-05	3
bin	3.8e-05	4
bin	4e-05	6
bin	4.2e-05	2
bin	4.4e-05	1
bin	4.6e-05	1
bin	4.8e-05	2
bin	5e-05	1
bin	5.2e-05	2
bin	5.4e-05	3
bin	5.6e-05	1
bin	5.8e-05	0
bin	6e-05	0
bin	6.2e-05	2
bin	6.4e-05	2
bin	6.6e-05	1
bin	6.8e-05	3
bin	7e-05	0
bin	7.2e-05	0
bin	7.4e-05	1
bin	7.6e-05	0
bin	7.8e-05	0
bin	8e-05	1
bin	8.2e-05	1
bin	8.4e-05	2
bin	8.6e-05	0
bin	8.8e-05	0
bin	9e-05	0
bin	9.2e-05	1
bin	9.4e-05	0
bin	9.6e-05	0
bin	9.8e-05	0
bin	0.0001	0
bin	0.000102	0
bin	0.000104	0
bin	0.000106	0
bin	0.000108	0
scalar TimingExample.client1.eth[0].macLayer.queue incomingPackets:count 542
attr recordingmode count
attr source packetPushStarted
attr title "incoming packets, count"
attr unit pk
scalar TimingExample.client1.eth[0].macLayer.queue incomingPacketLengths:sum 4299456
attr interpolationmode none
attr recordingmode sum
attr source packetLength(packetPushStarted)
attr title "incoming packet lengths, sum"
attr unit b
statistic TimingExample.client1.eth[0].macLayer.queue incomingPacketLengths:histogram
field count 542
field mean 7932.5756457565
field stddev 1246.9851646017
field min 4368
field max 8368
field sum 4299456
field sqrsum 34946999808
attr interpolationmode none
attr recordingmode histogram
attr source packetLength(packetPushStarted)
attr title "incoming packet lengths"
attr unit b
bin	-inf	0
bin	3300	0
bin	3400	0
bin	3500	0
bin	3600	0
bin	3700	0
bin	3800	0
bin	3900	0
bin	4000	0
bin	4100	0
bin	4200	0
bin	4300	59
bin	4400	0
bin	4500	0
bin	4600	0
bin	4700	0
bin	4800	0
bin	4900	0
bin	5000	0
bin	5100	0
bin	5200	0
bin	5300	0
bin	5400	0
bin	5500	0
bin	5600	0
bin	5700	0
bin	5800	0
bin	5900	0
bin	6000	0
bin	6100	0
bin	6200	0
bin	6300	0
bin	6400	0
bin	6500	0
bin	6600	0
bin	6700	0
bin	6800	0
bin	6900	0
bin	7000	0
bin	7100	0
bin	7200	0
bin	7300	0
bin	7400	0
bin	7500	0
bin	7600	0
bin	7700	0
bin	7800	0
bin	7900	0
bin	8000	0
bin	8100	0
bin	8200	0
bin	8300	483
bin	8400	0
bin	8500	0
bin	8600	0
bin	8700	0
bin	8800	0
bin	8900	0
bin	9000	0
bin	9100	0
bin	9200	0
bin	9300	0
bin	9400	0
scalar TimingExample.client1.eth[0].macLayer.queue droppedPacketsQueueOverflow:count 0
attr interpolationmode none
attr recordingmode count
attr source packetDropReasonIsQueueOverflow(packetDropped)
attr title "dropped packets: queue overflow, count"
attr unit pk
scalar TimingExample.client1.eth[0].macLayer.queue droppedPacketLengthsQueueOverflow:sum 0
attr interpolationmode none
attr recordingmode sum
attr source packetLength(packetDropReasonIsQueueOverflow(packetDropped))
attr title "dropped packet lengths: queue overflow, sum"
attr unit b
scalar TimingExample.client1.eth[0].macLayer.server incomingPackets:count 542
attr recordingmode count
attr source packetPulled
attr title "incoming packets, count"
attr unit pk
scalar TimingExample.client1.eth[0].macLayer.server incomingPacketLengths:sum 4299456
attr interpolationmode none
attr recordingmode sum
attr source packetLength(packetPulled)
attr title "incoming packet lengths, sum"
attr unit b
statistic TimingExample.client1.eth[0].macLayer.server incomingPacketLengths:histogram
field count 542
field mean 7932.5756457565
field stddev 1246.9851646017
field min 4368
field max 8368
field sum 4299456
field sqrsum 34946999808
attr interpolationmode none
attr recordingmode histogram
attr source packetLength(packetPulled)
attr title "incoming packet lengths"
attr unit b
bin	-inf	0
bin	3300	0
bin	3400	0
bin	3500	0
bin	3600	0
bin	3700	0
bin	3800	0
bin	3900	0
bin	4000	0
bin	4100	0
bin	4200	0
bin	4300	59
bin	4400	0
bin	4500	0
bin	4600	0
bin	4700	0
bin	4800	0
bin	4900	0
bin	5000	0
bin	5100	0
bin	5200	0
bin	5300	0
bin	5400	0
bin	5500	0
bin	5600	0
bin	5700	0
bin	5800	0
bin	5900	0
bin	6000	0
bin	6100	0
bin	6200	0
bin	6300	0
bin	6400	0
bin	6500	0
bin	6600	0
bin	6700	0
bin	6800	0
bin	6900	0
bin	7000	0
bin	7100	0
bin	7200	0
bin	7300	0
bin	7400	0
bin	7500	0
bin	7600	0
bin	7700	0
bin	7800	0
bin	7900	0
bin	8000	0
bin	8100	0
bin	8200	0
bin	8300	483
bin	8400	0
bin	8500	0
bin	8600	0
bin	8700	0
bin	8800	0
bin	8900	0
bin	9000	0
bin	9100	0
bin	9200	0
bin	9300	0
bin	9400	0
scalar TimingExample.client1.eth[0].macLayer.server outgoingPackets:count 542
attr recordingmode count
attr source packetPushed
attr title "outgoing packets, count"
attr unit pk
scalar TimingExample.client1.eth[0].macLayer.server outgoingPacketLengths:sum 4299456
attr interpolationmode none
attr recordingmode sum
attr source packetLength(packetPushed)
attr title "outgoing packet lengths, sum"
attr unit b
statistic TimingExample.client1.eth[0].macLayer.server outgoingPacketLengths:histogram
field count 542
field mean 7932.5756457565
field stddev 1246.9851646017
field min 4368
field max 8368
field sum 4299456
field sqrsum 34946999808
attr interpolationmode none
attr recordingmode histogram
attr source packetLength(packetPushed)
attr title "outgoing packet lengths"
attr unit b
bin	-inf	0
bin	3300	0
bin	3400	0
bin	3500	0
bin	3600	0
bin	3700	0
bin	3800	0
bin	3900	0
bin	4000	0
bin	4100	0
bin	4200	0
bin	4300	59
bin	4400	0
bin	4500	0
bin	4600	0
bin	4700	0
bin	4800	0
bin	4900	0
bin	5000	0
bin	5100	0
bin	5200	0
bin	5300	0
bin	5400	0
bin	5500	0
bin	5600	0
bin	5700	0
bin	5800	0
bin	5900	0
bin	6000	0
bin	6100	0
bin	6200	0
bin	6300	0
bin	6400	0
bin	6500	0
bin	6600	0
bin	6700	0
bin	6800	0
bin	6900	0
bin	7000	0
bin	7100	0
bin	7200	0
bin	7300	0
bin	7400	0
bin	7500	0
bin	7600	0
bin	7700	0
bin	7800	0
bin	7900	0
bin	8000	0
bin	8100	0
bin	8200	0
bin	8300	483
bin	8400	0
bin	8500	0
bin	8600	0
bin	8700	0
bin	8800	0
bin	8900	0
bin	9000	0
bin	9100	0
bin	9200	0
bin	9300	0
bin	9400	0
scalar TimingExample.client1.eth[0].macLayer.outboundEmitter outgoingPackets:count 542
attr recordingmode count
attr source "merge(packetPushedOut, packetPulledOut)"
attr title "outgoing packets, count"
attr unit pk
scalar TimingExample.client1.eth[0].macLayer.outboundEmitter outgoingPacketLengths:sum 4299456
attr interpolationmode none
attr recordingmode sum
attr source "packetLength(merge(packetPushedOut, packetPulledOut))"
attr title "outgoing packet lengths, sum"
attr unit b
statistic TimingExample.client1.eth[0].macLayer.outboundEmitter outgoingPacketLengths:histogram
field count 542
field mean 7932.5756457565
field stddev 1246.9851646017
field min 4368
field max 8368
field sum 4299456
field sqrsum 34946999808
attr interpolationmode none
attr recordingmode histogram
attr source "packetLength(merge(packetPushedOut, packetPulledOut))"
attr title "outgoing packet lengths"
attr unit b
bin	-inf	0
bin	3300	0
bin	3400	0
bin	3500	0
bin	3600	0
bin	3700	0
bin	3800	0
bin	3900	0
bin	4000	0
bin	4100	0
bin	4200	0
bin	4300	59
bin	4400	0
bin	4500	0
bin	4600	0
bin	4700	0
bin	4800	0
bin	4900	0
bin	5000	0
bin	5100	0
bin	5200	0
bin	5300	0
bin	5400	0
bin	5500	0
bin	5600	0
bin	5700	0
bin	5800	0
bin	5900	0
bin	6000	0
bin	6100	0
bin	6200	0
bin	6300	0
bin	6400	0
bin	6500	0
bin	6600	0
bin	6700	0
bin	6800	0
bin	6900	0
bin	7000	0
bin	7100	0
bin	7200	0
bin	7300	0
bin	7400	0
bin	7500	0
bin	7600	0
bin	7700	0
bin	7800	0
bin	7900	0
bin	8000	0
bin	8100	0
bin	8200	0
bin	8300	483
bin	8400	0
bin	8500	0
bin	8600	0
bin	8700	0
bin	8800	0
bin	8900	0
bin	9000	0
bin	9100	0
bin	9200	0
bin	9300	0
bin	9400	0
scalar TimingExample.client1.eth[0].macLayer.outboundEmitter flowOutgoingPacketLengths:sum 0
attr interpolationmode none
attr recordingmode sum
attr source "packetLength(demuxFlow(merge(packetPushedOut, packetPulledOut)))"
attr title "flow specific outgoing packet lengths, sum"
attr unit b
statistic TimingExample.client1.eth[0].macLayer.outboundEmitter flowOutgoingPacketLengths:histogram
field count 0
field mean -nan
field stddev nan
field min nan
field max nan
field sum 0
field sqrsum 0
attr interpolationmode none
attr recordingmode histogram
attr source "packetLength(demuxFlow(merge(packetPushedOut, packetPulledOut)))"
attr title "flow specific outgoing packet lengths"
attr unit b
bin	-inf	0
bin	0	0
bin	1	0
scalar TimingExample.client1.eth[0].macLayer.outboundEmitter client1:flowOutgoingPacketLengths:sum 4299456
attr interpolationmode none
attr recordingmode sum
attr source "packetLength(demuxFlow(merge(packetPushedOut, packetPulledOut)))"
attr title "flow specific outgoing packet lengths, sum"
attr unit b
statistic TimingExample.client1.eth[0].macLayer.outboundEmitter client1:flowOutgoingPacketLengths:histogram
field count 542
field mean 7932.5756457565
field stddev 1246.9851646017
field min 4368
field max 8368
field sum 4299456
field sqrsum 34946999808
attr interpolationmode none
attr recordingmode histogram
attr source "packetLength(demuxFlow(merge(packetPushedOut, packetPulledOut)))"
attr title "flow specific outgoing packet lengths"
attr unit b
bin	-inf	0
bin	3300	0
bin	3400	0
bin	3500	0
bin	3600	0
bin	3700	0
bin	3800	0
bin	3900	0
bin	4000	0
bin	4100	0
bin	4200	0
bin	4300	59
bin	4400	0
bin	4500	0
bin	4600	0
bin	4700	0
bin	4800	0
bin	4900	0
bin	5000	0
bin	5100	0
bin	5200	0
bin	5300	0
bin	5400	0
bin	5500	0
bin	5600	0
bin	5700	0
bin	5800	0
bin	5900	0
bin	6000	0
bin	6100	0
bin	6200	0
bin	6300	0
bin	6400	0
bin	6500	0
bin	6600	0
bin	6700	0
bin	6800	0
bin	6900	0
bin	7000	0
bin	7100	0
bin	7200	0
bin	7300	0
bin	7400	0
bin	7500	0
bin	7600	0
bin	7700	0
bin	7800	0
bin	7900	0
bin	8000	0
bin	8100	0
bin	8200	0
bin	8300	483
bin	8400	0
bin	8500	0
bin	8600	0
bin	8700	0
bin	8800	0
bin	8900	0
bin	9000	0
bin	9100	0
bin	9200	0
bin	9300	0
bin	9400	0
scalar TimingExample.client1.eth[0].macLayer.outboundEmitter incomingPackets:count 542
attr recordingmode count
attr source "merge(packetPushedIn, packetPulledIn)"
attr title "incoming packets, count"
attr unit pk
scalar TimingExample.client1.eth[0].macLayer.outboundEmitter incomingPacketLengths:sum 4299456
attr interpolationmode none
attr recordingmode sum
attr source "packetLength(merge(packetPushedIn, packetPulledIn))"
attr title "incoming packet lengths, sum"
attr unit b
statistic TimingExample.client1.eth[0].macLayer.outboundEmitter incomingPacketLengths:histogram
field count 542
field mean 7932.5756457565
field stddev 1246.9851646017
field min 4368
field max 8368
field sum 4299456
field sqrsum 34946999808
attr interpolationmode none
attr recordingmode histogram
attr source "packetLength(merge(packetPushedIn, packetPulledIn))"
attr title "incoming packet lengths"
attr unit b
bin	-inf	0
bin	3300	0
bin	3400	0
bin	3500	0
bin	3600	0
bin	3700	0
bin	3800	0
bin	3900	0
bin	4000	0
bin	4100	0
bin	4200	0
bin	4300	59
bin	4400	0
bin	4500	0
bin	4600	0
bin	4700	0
bin	4800	0
bin	4900	0
bin	5000	0
bin	5100	0
bin	5200	0
bin	5300	0
bin	5400	0
bin	5500	0
bin	5600	0
bin	5700	0
bin	5800	0
bin	5900	0
bin	6000	0
bin	6100	0
bin	6200	0
bin	6300	0
bin	6400	0
bin	6500	0
bin	6600	0
bin	6700	0
bin	6800	0
bin	6900	0
bin	7000	0
bin	7100	0
bin	7200	0
bin	7300	0
bin	7400	0
bin	7500	0
bin	7600	0
bin	7700	0
bin	7800	0
bin	7900	0
bin	8000	0
bin	8100	0
bin	8200	0
bin	8300	483
bin	8400	0
bin	8500	0
bin	8600	0
bin	8700	0
bin	8800	0
bin	8900	0
bin	9000	0
bin	9100	0
bin	9200	0
bin	9300	0
bin	9400	0
scalar TimingExample.client1.eth[0].macLayer.outboundEmitter flowIncomingPacketLengths:sum 0
attr interpolationmode none
attr recordingmode sum
attr source "packetLength(demuxFlow(merge(packetPushedIn, packetPulledIn)))"
attr title "flow specific incoming packet lengths, sum"
attr unit b
statistic TimingExample.client1.eth[0].macLayer.outboundEmitter flowIncomingPacketLengths:histogram
field count 0
field mean -nan
field stddev nan
field min nan
field max nan
field sum 0
field sqrsum 0
attr interpolationmode none
attr recordingmode histogram
attr source "packetLength(demuxFlow(merge(packetPushedIn, packetPulledIn)))"
attr title "flow specific incoming packet lengths"
attr unit b
bin	-inf	0
bin	0	0
bin	1	0
scalar TimingExample.client1.eth[0].macLayer.outboundEmitter client1:flowIncomingPacketLengths:sum 4299456
attr interpolationmode none
attr recordingmode sum
attr source "packetLength(demuxFlow(merge(packetPushedIn, packetPulledIn)))"
attr title "flow specific incoming packet lengths, sum"
attr unit b
statistic TimingExample.client1.eth[0].macLayer.outboundEmitter client1:flowIncomingPacketLengths:histogram
field count 542
field mean 7932.5756457565
field stddev 1246.9851646017
field min 4368
field max 8368
field sum 4299456
field sqrsum 34946999808
attr interpolationmode none
attr recordingmode histogram
attr source "packetLength(demuxFlow(merge(packetPushedIn, packetPulledIn)))"
attr title "flow specific incoming packet lengths"
attr unit b
bin	-inf	0
bin	3300	0
bin	3400	0
bin	3500	0
bin	3600	0
bin	3700	0
bin	3800	0
bin	3900	0
bin	4000	0
bin	4100	0
bin	4200	0
bin	4300	59
bin	4400	0
bin	4500	0
bin	4600	0
bin	4700	0
bin	4800	0
bin	4900	0
bin	5000	0
bin	5100	0
bin	5200	0
bin	5300	0
bin	5400	0
bin	5500	0
bin	5600	0
bin	5700	0
bin	5800	0
bin	5900	0
bin	6000	0
bin	6100	0
bin	6200	0
bin	6300	0
bin	6400	0
bin	6500	0
bin	6600	0
bin	6700	0
bin	6800	0
bin	6900	0
bin	7000	0
bin	7100	0
bin	7200	0
bin	7300	0
bin	7400	0
bin	7500	0
bin	7600	0
bin	7700	0
bin	7800	0
bin	7900	0
bin	8000	0
bin	8100	0
bin	8200	0
bin	8300	483
bin	8400	0
bin	8500	0
bin	8600	0
bin	8700	0
bin	8800	0
bin	8900	0
bin	9000	0
bin	9100	0
bin	9200	0
bin	9300	0
bin	9400	0
scalar TimingExample.client1.eth[0].macLayer.fcsChecker outgoingPackets:count 532
attr recordingmode count
attr source "merge(packetPushedOut, packetPulledOut)"
attr title "outgoing packets, count"
attr unit pk
scalar TimingExample.client1.eth[0].macLayer.fcsChecker outgoingPacketLengths:sum 4263776
attr interpolationmode none
attr recordingmode sum
attr source "packetLength(merge(packetPushedOut, packetPulledOut))"
attr title "outgoing packet lengths, sum"
attr unit b
statistic TimingExample.client1.eth[0].macLayer.fcsChecker outgoingPacketLengths:histogram
field count 532
field mean 8014.6165413534
field stddev 1136.257369335
field min 4368
field max 8368
field sum 4263776
field sqrsum 34858093568
attr interpolationmode none
attr recordingmode histogram
attr source "packetLength(merge(packetPushedOut, packetPulledOut))"
attr title "outgoing packet lengths"
attr unit b
bin	-inf	0
bin	3300	0
bin	3400	0
bin	3500	0
bin	3600	0
bin	3700	0
bin	3800	0
bin	3900	0
bin	4000	0
bin	4100	0
bin	4200	0
bin	4300	47
bin	4400	0
bin	4500	0
bin	4600	0
bin	4700	0
bin	4800	0
bin	4900	0
bin	5000	0
bin	5100	0
bin	5200	0
bin	5300	0
bin	5400	0
bin	5500	0
bin	5600	0
bin	5700	0
bin	5800	0
bin	5900	0
bin	6000	0
bin	6100	0
bin	6200	0
bin	6300	0
bin	6400	0
bin	6500	0
bin	6600	0
bin	6700	0
bin	6800	0
bin	6900	0
bin	7000	0
bin	7100	0
bin	7200	0
bin	7300	0
bin	7400	0
bin	7500	0
bin	7600	0
bin	7700	0
bin	7800	0
bin	7900	0
bin	8000	0
bin	8100	0
bin	8200	0
bin	8300	485
bin	8400	0
bin	8500	0
bin	8600	0
bin	8700	0
bin	8800	0
bin	8900	0
bin	9000	0
bin	9100	0
bin	9200	0
bin	9300	0
bin	9400	0
scalar TimingExample.client1.eth[0].macLayer.fcsChecker flowOutgoingPacketLengths:sum 0
attr interpolationmode none
attr recordingmode sum
attr source "packetLength(demuxFlow(merge(packetPushedOut, packetPulledOut)))"
attr title "flow specific outgoing packet lengths, sum"
attr unit b
statistic TimingExample.client1.eth[0].macLayer.fcsChecker flowOutgoingPacketLengths:histogram
field count 0
field mean -nan
field stddev nan
field min nan
field max nan
field sum 0
field sqrsum 0
attr interpolationmode none
attr recordingmode histogram
attr source "packetLength(demuxFlow(merge(packetPushedOut, packetPulledOut)))"
attr title "flow specific outgoing packet lengths"
attr unit b
bin	-inf	0
bin	0	0
bin	1	0
scalar TimingExample.client1.eth[0].macLayer.fcsChecker switch1:flowOutgoingPacketLengths:sum 4263776
attr interpolationmode none
attr recordingmode sum
attr source "packetLength(demuxFlow(merge(packetPushedOut, packetPulledOut)))"
attr title "flow specific outgoing packet lengths, sum"
attr unit b
statistic TimingExample.client1.eth[0].macLayer.fcsChecker switch1:flowOutgoingPacketLengths:histogram
field count 532
field mean 8014.6165413534
field stddev 1136.257369335
field min 4368
field max 8368
field sum 4263776
field sqrsum 34858093568
attr interpolationmode none
attr recordingmode histogram
attr source "packetLength(demuxFlow(merge(packetPushedOut, packetPulledOut)))"
attr title "flow specific outgoing packet lengths"
attr unit b
bin	-inf	0
bin	3300	0
bin	3400	0
bin	3500	0
bin	3600	0
bin	3700	0
bin	3800	0
bin	3900	0
bin	4000	0
bin	4100	0
bin	4200	0
bin	4300	47
bin	4400	0
bin	4500	0
bin	4600	0
bin	4700	0
bin	4800	0
bin	4900	0
bin	5000	0
bin	5100	0
bin	5200	0
bin	5300	0
bin	5400	0
bin	5500	0
bin	5600	0
bin	5700	0
bin	5800	0
bin	5900	0
bin	6000	0
bin	6100	0
bin	6200	0
bin	6300	0
bin	6400	0
bin	6500	0
bin	6600	0
bin	6700	0
bin	6800	0
bin	6900	0
bin	7000	0
bin	7100	0
bin	7200	0
bin	7300	0
bin	7400	0
bin	7500	0
bin	7600	0
bin	7700	0
bin	7800	0
bin	7900	0
bin	8000	0
bin	8100	0
bin	8200	0
bin	8300	485
bin	8400	0
bin	8500	0
bin	8600	0
bin	8700	0
bin	8800	0
bin	8900	0
bin	9000	0
bin	9100	0
bin	9200	0
bin	9300	0
bin	9400	0
scalar TimingExample.client1.eth[0].macLayer.fcsChecker client2:flowOutgoingPacketLengths:sum 4263776
attr interpolationmode none
attr recordingmode sum
attr source "packetLength(demuxFlow(merge(packetPushedOut, packetPulledOut)))"
attr title "flow specific outgoing packet lengths, sum"
attr unit b
statistic TimingExample.client1.eth[0].macLayer.fcsChecker client2:flowOutgoingPacketLengths:histogram
field count 532
field mean 8014.6165413534
field stddev 1136.257369335
field min 4368
field max 8368
field sum 4263776
field sqrsum 34858093568
attr interpolationmode none
attr recordingmode histogram
attr source "packetLength(demuxFlow(merge(packetPushedOut, packetPulledOut)))"
attr title "flow specific outgoing packet lengths"
attr unit b
bin	-inf	0
bin	3300	0
bin	3400	0
bin	3500	0
bin	3600	0
bin	3700	0
bin	3800	0
bin	3900	0
bin	4000	0
bin	4100	0
bin	4200	0
bin	4300	47
bin	4400	0
bin	4500	0
bin	4600	0
bin	4700	0
bin	4800	0
bin	4900	0
bin	5000	0
bin	5100	0
bin	5200	0
bin	5300	0
bin	5400	0
bin	5500	0
bin	5600	0
bin	5700	0
bin	5800	0
bin	5900	0
bin	6000	0
bin	6100	0
bin	6200	0
bin	6300	0
bin	6400	0
bin	6500	0
bin	6600	0
bin	6700	0
bin	6800	0
bin	6900	0
bin	7000	0
bin	7100	0
bin	7200	0
bin	7300	0
bin	7400	0
bin	7500	0
bin	7600	0
bin	7700	0
bin	7800	0
bin	7900	0
bin	8000	0
bin	8100	0
bin	8200	0
bin	8300	485
bin	8400	0
bin	8500	0
bin	8600	0
bin	8700	0
bin	8800	0
bin	8900	0
bin	9000	0
bin	9100	0
bin	9200	0
bin	9300	0
bin	9400	0
scalar TimingExample.client1.eth[0].macLayer.fcsChecker incomingPackets:count 532
attr recordingmode count
attr source "merge(packetPushedIn, packetPulledIn)"
attr title "incoming packets, count"
attr unit pk
scalar TimingExample.client1.eth[0].macLayer.fcsChecker incomingPacketLengths:sum 4263776
attr interpolationmode none
attr recordingmode sum
attr source "packetLength(merge(packetPushedIn, packetPulledIn))"
attr title "incoming packet lengths, sum"
attr unit b
statistic TimingExample.client1.eth[0].macLayer.fcsChecker incomingPacketLengths:histogram
field count 532
field mean 8014.6165413534
field stddev 1136.257369335
field min 4368
field max 8368
field sum 4263776
field sqrsum 34858093568
attr interpolationmode none
attr recordingmode histogram
attr source "packetLength(merge(packetPushedIn, packetPulledIn))"
attr title "incoming packet lengths"
attr unit b
bin	-inf	0
bin	3300	0
bin	3400	0
bin	3500	0
bin	3600	0
bin	3700	0
bin	3800	0
bin	3900	0
bin	4000	0
bin	4100	0
bin	4200	0
bin	4300	47
bin	4400	0
bin	4500	0
bin	4600	0
bin	4700	0
bin	4800	0
bin	4900	0
bin	5000	0
bin	5100	0
bin	5200	0
bin	5300	0
bin	5400	0
bin	5500	0
bin	5600	0
bin	5700	0
bin	5800	0
bin	5900	0
bin	6000	0
bin	6100	0
bin	6200	0
bin	6300	0
bin	6400	0
bin	6500	0
bin	6600	0
bin	6700	0
bin	6800	0
bin	6900	0
bin	7000	0
bin	7100	0
bin	7200	0
bin	7300	0
bin	7400	0
bin	7500	0
bin	7600	0
bin	7700	0
bin	7800	0
bin	7900	0
bin	8000	0
bin	8100	0
bin	8200	0
bin	8300	485
bin	8400	0
bin	8500	0
bin	8600	0
bin	8700	0
bin	8800	0
bin	8900	0
bin	9000	0
bin	9100	0
bin	9200	0
bin	9300	0
bin	9400	0
scalar TimingExample.client1.eth[0].macLayer.fcsChecker flowIncomingPacketLengths:sum 0
attr interpolationmode none
attr recordingmode sum
attr source "packetLength(demuxFlow(merge(packetPushedIn, packetPulledIn)))"
attr title "flow specific incoming packet lengths, sum"
attr unit b
statistic TimingExample.client1.eth[0].macLayer.fcsChecker flowIncomingPacketLengths:histogram
field count 0
field mean -nan
field stddev nan
field min nan
field max nan
field sum 0
field sqrsum 0
attr interpolationmode none
attr recordingmode histogram
attr source "packetLength(demuxFlow(merge(packetPushedIn, packetPulledIn)))"
attr title "flow specific incoming packet lengths"
attr unit b
bin	-inf	0
bin	0	0
bin	1	0
scalar TimingExample.client1.eth[0].macLayer.fcsChecker switch1:flowIncomingPacketLengths:sum 4263776
attr interpolationmode none
attr recordingmode sum
attr source "packetLength(demuxFlow(merge(packetPushedIn, packetPulledIn)))"
attr title "flow specific incoming packet lengths, sum"
attr unit b
statistic TimingExample.client1.eth[0].macLayer.fcsChecker switch1:flowIncomingPacketLengths:histogram
field count 532
field mean 8014.6165413534
field stddev 1136.257369335
field min 4368
field max 8368
field sum 4263776
field sqrsum 34858093568
attr interpolationmode none
attr recordingmode histogram
attr source "packetLength(demuxFlow(merge(packetPushedIn, packetPulledIn)))"
attr title "flow specific incoming packet lengths"
attr unit b
bin	-inf	0
bin	3300	0
bin	3400	0
bin	3500	0
bin	3600	0
bin	3700	0
bin	3800	0
bin	3900	0
bin	4000	0
bin	4100	0
bin	4200	0
bin	4300	47
bin	4400	0
bin	4500	0
bin	4600	0
bin	4700	0
bin	4800	0
bin	4900	0
bin	5000	0
bin	5100	0
bin	5200	0
bin	5300	0
bin	5400	0
bin	5500	0
bin	5600	0
bin	5700	0
bin	5800	0
bin	5900	0
bin	6000	0
bin	6100	0
bin	6200	0
bin	6300	0
bin	6400	0
bin	6500	0
bin	6600	0
bin	6700	0
bin	6800	0
bin	6900	0
bin	7000	0
bin	7100	0
bin	7200	0
bin	7300	0
bin	7400	0
bin	7500	0
bin	7600	0
bin	7700	0
bin	7800	0
bin	7900	0
bin	8000	0
bin	8100	0
bin	8200	0
bin	8300	485
bin	8400	0
bin	8500	0
bin	8600	0
bin	8700	0
bin	8800	0
bin	8900	0
bin	9000	0
bin	9100	0
bin	9200	0
bin	9300	0
bin	9400	0
scalar TimingExample.client1.eth[0].macLayer.fcsChecker client2:flowIncomingPacketLengths:sum 4263776
attr interpolationmode none
attr recordingmode sum
attr source "packetLength(demuxFlow(merge(packetPushedIn, packetPulledIn)))"
attr title "flow specific incoming packet lengths, sum"
attr unit b
statistic TimingExample.client1.eth[0].macLayer.fcsChecker client2:flowIncomingPacketLengths:histogram
field count 532
field mean 8014.6165413534
field stddev 1136.257369335
field min 4368
field max 8368
field sum 4263776
field sqrsum 34858093568
attr interpolationmode none
attr recordingmode histogram
attr source "packetLength(demuxFlow(merge(packetPushedIn, packetPulledIn)))"
attr title "flow specific incoming packet lengths"
attr unit b
bin	-inf	0
bin	3300	0
bin	3400	0
bin	3500	0
bin	3600	0
bin	3700	0
bin	3800	0
bin	3900	0
bin	4000	0
bin	4100	0
bin	4200	0
bin	4300	47
bin	4400	0
bin	4500	0
bin	4600	0
bin	4700	0
bin	4800	0
bin	4900	0
bin	5000	0
bin	5100	0
bin	5200	0
bin	5300	0
bin	5400	0
bin	5500	0
bin	5600	0
bin	5700	0
bin	5800	0
bin	5900	0
bin	6000	0
bin	6100	0
bin	6200	0
bin	6300	0
bin	6400	0
bin	6500	0
bin	6600	0
bin	6700	0
bin	6800	0
bin	6900	0
bin	7000	0
bin	7100	0
bin	7200	0
bin	7300	0
bin	7400	0
bin	7500	0
bin	7600	0
bin	7700	0
bin	7800	0
bin	7900	0
bin	8000	0
bin	8100	0
bin	8200	0
bin	8300	485
bin	8400	0
bin	8500	0
bin	8600	0
bin	8700	0
bin	8800	0
bin	8900	0
bin	9000	0
bin	9100	0
bin	9200	0
bin	9300	0
bin	9400	0
scalar TimingExample.client1.eth[0].macLayer.fcsChecker droppedPackets:count 0
[...]
bin	0.00014	5
bin	0.00015	2
bin	0.00016	2
bin	0.00017	3
bin	0.00018	2
bin	0.00019	0
bin	0.0002	2
bin	0.00021	0
bin	0.00022	1
bin	0.00023	0
bin	0.00024	2
bin	0.00025	0
bin	0.00026	0
bin	0.00027	0
bin	0.00028	0
bin	0.00029	2
bin	0.0003	0
bin	0.00031	0
bin	0.00032	0
bin	0.00033	0
bin	0.00034	0
bin	0.00035	0
bin	0.00036	0
bin	0.00037	0
bin	0.00038	0
bin	0.00039	0
bin	0.0004	1
bin	0.00041	0
bin	0.00042	0
bin	0.00043	0
bin	0.00044	0
bin	0.00045	0
bin	0.00046	0
bin	0.00047	0
bin	0.00048	0
bin	0.00049	0
bin	0.0005	0
bin	0.00051	0
statistic TimingExample.server2.app[0].measurementRecorder meanTotalBitPropagationTimePerPacket:histogram
field count 0
field mean -nan
field stddev nan
field min nan
field max nan
field sum 0
field sqrsum 0
attr interpolationmode none
attr recordingmode histogram
attr source weightedMeanPerGroup(groupRegionsPerPacket(propagationTimePerRegion(demuxFlow(packetFlowMeasured))))
attr title "mean total bit propagation time per packet"
attr unit s
bin	-inf	0
bin	0	0
bin	1	0
statistic TimingExample.server2.app[0].measurementRecorder client1:meanTotalBitPropagationTimePerPacket:histogram
field count 0
field mean -nan
field stddev nan
field min nan
field max nan
field sum 0
field sqrsum 0
attr interpolationmode none
attr recordingmode histogram
attr source weightedMeanPerGroup(groupRegionsPerPacket(propagationTimePerRegion(demuxFlow(packetFlowMeasured))))
attr title "mean total bit propagation time per packet"
attr unit s
bin	-inf	0
bin	0	0
bin	1	0
statistic TimingExample.server2.app[0].measurementRecorder client2:meanTotalBitPropagationTimePerPacket:histogram
field count 0
field mean -nan
field stddev nan
field min nan
field max nan
field sum 0
field sqrsum 0
attr interpolationmode none
attr recordingmode histogram
attr source weightedMeanPerGroup(groupRegionsPerPacket(propagationTimePerRegion(demuxFlow(packetFlowMeasured))))
attr title "mean total bit propagation time per packet"
attr unit s
bin	-inf	0
bin	0	0
bin	1	0
statistic TimingExample.server2.app[0].measurementRecorder meanTotalBitTransmissionTimePerPacket:histogram
field count 0
field mean -nan
field stddev nan
field min nan
field max nan
field sum 0
field sqrsum 0
attr interpolationmode none
attr recordingmode histogram
attr source weightedMeanPerGroup(groupRegionsPerPacket(transmissionTimePerRegion(demuxFlow(packetFlowMeasured))))
attr title "mean total bit transmission time per packet"
attr unit s
bin	-inf	0
bin	0	0
bin	1	0
statistic TimingExample.server2.app[0].measurementRecorder client1:meanTotalBitTransmissionTimePerPacket:histogram
field count 0
field mean -nan
field stddev nan
field min nan
field max nan
field sum 0
field sqrsum 0
attr interpolationmode none
attr recordingmode histogram
attr source weightedMeanPerGroup(groupRegionsPerPacket(transmissionTimePerRegion(demuxFlow(packetFlowMeasured))))
attr title "mean total bit transmission time per packet"
attr unit s
bin	-inf	0
bin	0	0
bin	1	0
statistic TimingExample.server2.app[0].measurementRecorder client2:meanTotalBitTransmissionTimePerPacket:histogram
field count 0
field mean -nan
field stddev nan
field min nan
field max nan
field sum 0
field sqrsum 0
attr interpolationmode none
attr recordingmode histogram
attr source weightedMeanPerGroup(groupRegionsPerPacket(transmissionTimePerRegion(demuxFlow(packetFlowMeasured))))
attr title "mean total bit transmission time per packet"
attr unit s
bin	-inf	0
bin	0	0
bin	1	0
statistic TimingExample.server2.app[0].measurementRecorder meanTotalPacketTransmissionTime:histogram
field count 0
field mean -nan
field stddev nan
field min nan
field max nan
field sum 0
field sqrsum 0
attr interpolationmode none
attr recordingmode histogram
attr source weightedMeanPerGroup(groupRegionsPerPacket(packetTransmissionTimePerRegion(demuxFlow(packetFlowMeasured))))
attr title "mean total packet transmission time"
attr unit s
bin	-inf	0
bin	0	0
bin	1	0
statistic TimingExample.server2.app[0].measurementRecorder client1:meanTotalPacketTransmissionTime:histogram
field count 0
field mean -nan
field stddev nan
field min nan
field max nan
field sum 0
field sqrsum 0
attr interpolationmode none
attr recordingmode histogram
attr source weightedMeanPerGroup(groupRegionsPerPacket(packetTransmissionTimePerRegion(demuxFlow(packetFlowMeasured))))
attr title "mean total packet transmission time"
attr unit s
bin	-inf	0
bin	0	0
bin	1	0
statistic TimingExample.server2.app[0].measurementRecorder client2:meanTotalPacketTransmissionTime:histogram
field count 0
field mean -nan
field stddev nan
field min nan
field max nan
field sum 0
field sqrsum 0
attr interpolationmode none
attr recordingmode histogram
attr source weightedMeanPerGroup(groupRegionsPerPacket(packetTransmissionTimePerRegion(demuxFlow(packetFlowMeasured))))
attr title "mean total packet transmission time"
attr unit s
bin	-inf	0
bin	0	0
bin	1	0
statistic TimingExample.server2.app[0].measurementRecorder packetJitter:histogram
field count 0
field mean -nan
field stddev nan
field min nan
field max nan
field sum 0
field sqrsum 0
attr interpolationmode none
attr recordingmode histogram
attr source jitter(weightedMeanPerGroup(groupRegionsPerPacket(elapsedTimePerRegion(demuxFlow(packetFlowMeasured)))))
attr title "packet jitter"
attr unit s
bin	-inf	0
bin	0	0
bin	1	0
statistic TimingExample.server2.app[0].measurementRecorder client1:packetJitter:histogram
field count 58
field mean 4.6853787413793e-06
field stddev 0.00012020150825367
field min -0.000247147057
field max 0.00038367
field sum 0.000271751967
field sqrsum 8.2483220831713e-07
attr interpolationmode none
attr recordingmode histogram
attr source jitter(weightedMeanPerGroup(groupRegionsPerPacket(elapsedTimePerRegion(demuxFlow(packetFlowMeasured)))))
attr title "packet jitter"
attr unit s
bin	-inf	0
bin	-0.00042	0
bin	-0.0004	0
bin	-0.00038	0
bin	-0.00036	0
bin	-0.00034	0
bin	-0.00032	0
bin	-0.0003	0
bin	-0.00028	0
bin	-0.00026	1
bin	-0.00024	0
bin	-0.00022	0
bin	-0.0002	2
bin	-0.00018	0
bin	-0.00016	3
bin	-0.00014	0
bin	-0.00012	4
bin	-0.0001	3
bin	-8e-05	3
bin	-6e-05	8
bin	-4e-05	3
bin	-2e-05	6
bin	0	0
bin	2e-05	5
bin	4e-05	3
bin	6e-05	1
bin	8e-05	3
bin	0.0001	2
bin	0.00012	4
bin	0.00014	4
bin	0.00016	0
bin	0.00018	0
bin	0.0002	0
bin	0.00022	1
bin	0.00024	0
bin	0.00026	0
bin	0.00028	1
bin	0.0003	0
bin	0.00032	0
bin	0.00034	0
bin	0.00036	0
bin	0.00038	1
bin	0.0004	0
bin	0.00042	0
bin	0.00044	0
bin	0.00046	0
bin	0.00048	0
bin	0.0005	0
bin	0.00052	0
bin	0.00054	0
bin	0.00056	0
statistic TimingExample.server2.app[0].measurementRecorder client2:packetJitter:histogram
field count 46
field mean 5.0471229130435e-06
field stddev 0.00013603687789722
field min -0.000407024987
field max 0.00042895
field sum 0.000232167654
field sqrsum 8.3394322534727e-07
attr interpolationmode none
attr recordingmode histogram
attr source jitter(weightedMeanPerGroup(groupRegionsPerPacket(elapsedTimePerRegion(demuxFlow(packetFlowMeasured)))))
attr title "packet jitter"
attr unit s
bin	-inf	0
bin	-0.00062	0
bin	-0.0006	0
bin	-0.00058	0
bin	-0.00056	0
bin	-0.00054	0
bin	-0.00052	0
bin	-0.0005	0
bin	-0.00048	0
bin	-0.00046	0
bin	-0.00044	0
bin	-0.00042	1
bin	-0.0004	0
bin	-0.00038	0
bin	-0.00036	0
bin	-0.00034	0
bin	-0.00032	0
bin	-0.0003	0
bin	-0.00028	0
bin	-0.00026	0
bin	-0.00024	1
bin	-0.00022	0
bin	-0.0002	0
bin	-0.00018	1
bin	-0.00016	1
bin	-0.00014	0
bin	-0.00012	3
bin	-0.0001	2
bin	-8e-05	5
bin	-6e-05	1
bin	-4e-05	6
bin	-2e-05	5
bin	0	0
bin	2e-05	3
bin	4e-05	3
bin	6e-05	3
bin	8e-05	3
bin	0.0001	3
bin	0.00012	0
bin	0.00014	1
bin	0.00016	0
bin	0.00018	0
bin	0.0002	0
bin	0.00022	0
bin	0.00024	3
bin	0.00026	0
bin	0.00028	0
bin	0.0003	0
bin	0.00032	0
bin	0.00034	0
bin	0.00036	0
bin	0.00038	0
bin	0.0004	0
bin	0.00042	1
bin	0.00044	0
bin	0.00046	0
bin	0.00048	0
bin	0.0005	0
bin	0.00052	0
bin	0.00054	0
bin	0.00056	0
bin	0.00058	0
bin	0.0006	0
bin	0.00062	0
bin	0.00064	0
statistic TimingExample.server2.app[0].measurementRecorder packetDelayDifferenceToMean:histogram
field count 0
field mean -nan
field stddev nan
field min nan
field max nan
field sum 0
field sqrsum 0
attr interpolationmode none
attr recordingmode histogram
attr source differenceToMean(weightedMeanPerGroup(groupRegionsPerPacket(elapsedTimePerRegion(demuxFlow(packetFlowMeasured)))))
attr title "packet delay difference to mean"
attr unit s
bin	-inf	0
bin	0	0
bin	1	0
statistic TimingExample.server2.app[0].measurementRecorder client1:packetDelayDifferenceToMean:histogram
field count 58
field mean 4.5512792920405e-06
field stddev 8.762554534807e-05
field min -0.00031365047340909
field max 0.00012923722879412
field sum 0.00026397419893835
field sqrsum 4.3886088356543e-07
attr interpolationmode none
attr recordingmode histogram
attr source differenceToMean(weightedMeanPerGroup(groupRegionsPerPacket(elapsedTimePerRegion(demuxFlow(packetFlowMeasured)))))
attr title "packet delay difference to mean"
attr unit s
bin	-inf	0
bin	-0.00043	0
bin	-0.00042	0
bin	-0.00041	0
bin	-0.0004	0
bin	-0.00039	0
bin	-0.00038	0
bin	-0.00037	0
bin	-0.00036	0
bin	-0.00035	0
bin	-0.00034	0
bin	-0.00033	0
bin	-0.00032	1
bin	-0.00031	0
bin	-0.0003	0
bin	-0.00029	0
bin	-0.00028	0
bin	-0.00027	0
bin	-0.00026	0
bin	-0.00025	0
bin	-0.00024	0
bin	-0.00023	0
bin	-0.00022	0
bin	-0.00021	0
bin	-0.0002	0
bin	-0.00019	1
bin	-0.00018	0
bin	-0.00017	1
bin	-0.00016	1
bin	-0.00015	0
bin	-0.00014	0
bin	-0.00013	0
bin	-0.00012	0
bin	-0.00011	0
bin	-0.0001	3
bin	-9e-05	1
bin	-8e-05	1
bin	-7e-05	1
bin	-6e-05	3
bin	-5e-05	1
bin	-4e-05	5
bin	-3e-05	1
bin	-2e-05	2
bin	-1e-05	5
bin	0	4
bin	1e-05	2
bin	2e-05	1
bin	3e-05	4
bin	4e-05	0
bin	5e-05	3
bin	6e-05	2
bin	7e-05	2
bin	8e-05	2
bin	9e-05	1
bin	0.0001	5
bin	0.00011	2
bin	0.00012	3
bin	0.00013	0
bin	0.00014	0
bin	0.00015	0
bin	0.00016	0
bin	0.00017	0
bin	0.00018	0
bin	0.00019	0
bin	0.0002	0
bin	0.00021	0
bin	0.00022	0
bin	0.00023	0
bin	0.00024	0
statistic TimingExample.server2.app[0].measurementRecorder client2:packetDelayDifferenceToMean:histogram
field count 46
field mean 5.9670939717536e-06
field stddev 7.7287120047533e-05
field min -0.00026051924058333
field max 0.00014254613164865
field sum 0.00027448632270066
field sqrsum 2.704363373174e-07
attr interpolationmode none
attr recordingmode histogram
attr source differenceToMean(weightedMeanPerGroup(groupRegionsPerPacket(elapsedTimePerRegion(demuxFlow(packetFlowMeasured)))))
attr title "packet delay difference to mean"
attr unit s
bin	-inf	0
bin	-0.00037	0
bin	-0.00036	0
bin	-0.00035	0
bin	-0.00034	0
bin	-0.00033	0
bin	-0.00032	0
bin	-0.00031	0
bin	-0.0003	0
bin	-0.00029	0
bin	-0.00028	0
bin	-0.00027	1
bin	-0.00026	0
bin	-0.00025	0
bin	-0.00024	0
bin	-0.00023	0
bin	-0.00022	0
bin	-0.00021	0
bin	-0.0002	0
bin	-0.00019	0
bin	-0.00018	0
bin	-0.00017	0
bin	-0.00016	0
bin	-0.00015	0
bin	-0.00014	1
bin	-0.00013	1
bin	-0.00012	1
bin	-0.00011	0
bin	-0.0001	0
bin	-9e-05	1
bin	-8e-05	1
bin	-7e-05	1
bin	-6e-05	0
bin	-5e-05	3
bin	-4e-05	1
bin	-3e-05	3
bin	-2e-05	5
bin	-1e-05	2
bin	0	5
bin	1e-05	0
bin	2e-05	3
bin	3e-05	3
bin	4e-05	1
bin	5e-05	2
bin	6e-05	1
bin	7e-05	0
bin	8e-05	4
bin	9e-05	1
bin	0.0001	1
bin	0.00011	1
bin	0.00012	1
bin	0.00013	1
bin	0.00014	1
bin	0.00015	0
bin	0.00016	0
bin	0.00017	0
bin	0.00018	0
bin	0.00019	0
bin	0.0002	0
bin	0.00021	0
bin	0.00022	0
bin	0.00023	0
bin	0.00024	0
bin	0.00025	0
statistic TimingExample.server2.app[0].measurementRecorder packetDelayVariation:histogram
field count 0
field mean -nan
field stddev nan
field min nan
field max nan
field sum 0
field sqrsum 0
attr recordingmode histogram
attr source stddev(weightedMeanPerGroup(groupRegionsPerPacket(elapsedTimePerRegion(demuxFlow(packetFlowMeasured)))))
attr title "packet delay variation"
attr unit s
bin	-inf	0
bin	0	0
bin	1	0
statistic TimingExample.server2.app[0].measurementRecorder client1:packetDelayVariation:histogram
field count 58
field mean 8.1936944158232e-05
field stddev 1.4487417242424e-05
field min 0
field max 9.6617943964229e-05
field sum 0.0047523427611774
field sqrsum 4.0135590316967e-07
attr recordingmode histogram
attr source stddev(weightedMeanPerGroup(groupRegionsPerPacket(elapsedTimePerRegion(demuxFlow(packetFlowMeasured)))))
attr title "packet delay variation"
attr unit s
bin	-inf	0
bin	0	1
bin	2e-06	0
bin	4e-06	0
bin	6e-06	0
bin	8e-06	0
bin	1e-05	0
bin	1.2e-05	0
bin	1.4e-05	0
bin	1.6e-05	0
bin	1.8e-05	0
bin	2e-05	0
bin	2.2e-05	0
bin	2.4e-05	0
bin	2.6e-05	0
bin	2.8e-05	0
bin	3e-05	0
bin	3.2e-05	0
bin	3.4e-05	0
bin	3.6e-05	0
bin	3.8e-05	0
bin	4e-05	1
bin	4.2e-05	0
bin	4.4e-05	0
bin	4.6e-05	0
bin	4.8e-05	0
bin	5e-05	1
bin	5.2e-05	0
bin	5.4e-05	0
bin	5.6e-05	0
bin	5.8e-05	0
bin	6e-05	0
bin	6.2e-05	0
bin	6.4e-05	0
bin	6.6e-05	0
bin	6.8e-05	0
bin	7e-05	1
bin	7.2e-05	2
bin	7.4e-05	4
bin	7.6e-05	2
bin	7.8e-05	3
bin	8e-05	5
bin	8.2e-05	5
bin	8.4e-05	14
bin	8.6e-05	4
bin	8.8e-05	1
bin	9e-05	6
bin	9.2e-05	2
bin	9.4e-05	4
bin	9.6e-05	2
bin	9.8e-05	0
bin	0.0001	0
bin	0.000102	0
bin	0.000104	0
bin	0.000106	0
bin	0.000108	0
bin	0.00011	0
bin	0.000112	0
bin	0.000114	0
bin	0.000116	0
bin	0.000118	0
bin	0.00012	0
bin	0.000122	0
statistic TimingExample.server2.app[0].measurementRecorder client2:packetDelayVariation:histogram
field count 46
field mean 7.7723297798274e-05
field stddev 1.5348932697408e-05
field min 0
field max 0.00010540751074228
field sum 0.0035752716987206
field sqrsum 2.8848344502213e-07
attr recordingmode histogram
attr source stddev(weightedMeanPerGroup(groupRegionsPerPacket(elapsedTimePerRegion(demuxFlow(packetFlowMeasured)))))
attr title "packet delay variation"
attr unit s
bin	-inf	0
bin	0	1
bin	2e-06	0
bin	4e-06	0
bin	6e-06	0
bin	8e-06	0
bin	1e-05	0
bin	1.2e-05	0
bin	1.4e-05	0
bin	1.6e-05	0
bin	1.8e-05	0
bin	2e-05	0
bin	2.2e-05	0
bin	2.4e-05	0
bin	2.6e-05	0
bin	2.8e-05	0
bin	3e-05	0
bin	3.2e-05	0
bin	3.4e-05	0
bin	3.6e-05	0
bin	3.8e-05	0
bin	4e-05	0
bin	4.2e-05	0
bin	4.4e-05	0
bin	4.6e-05	0
bin	4.8e-05	0
bin	5e-05	0
bin	5.2e-05	0
bin	5.4e-05	0
bin	5.6e-05	1
bin	5.8e-05	0
bin	6e-05	0
bin	6.2e-05	0
bin	6.4e-05	0
bin	6.6e-05	2
bin	6.8e-05	1
bin	7e-05	6
bin	7.2e-05	8
bin	7.4e-05	4
bin	7.6e-05	0
bin	7.8e-05	1
bin	8e-05	5
bin	8.2e-05	5
bin	8.4e-05	3
bin	8.6e-05	1
bin	8.8e-05	1
bin	9e-05	2
bin	9.2e-05	1
bin	9.4e-05	1
bin	9.6e-05	1
bin	9.8e-05	0
bin	0.0001	0
bin	0.000102	1
bin	0.000104	1
bin	0.000106	0
bin	0.000108	0
bin	0.00011	0
bin	0.000112	0
bin	0.000114	0
bin	0.000116	0
bin	0.000118	0
bin	0.00012	0
bin	0.000122	0
bin	0.000124	0
bin	0.000126	0
bin	0.000128	0
bin	0.00013	0
bin	0.000132	0
scalar TimingExample.server2.app[0].measurementRecorder outgoingPackets:count 106
attr recordingmode count
attr source "merge(packetPushedOut, packetPulledOut)"
attr title "outgoing packets, count"
attr unit pk
scalar TimingExample.server2.app[0].measurementRecorder outgoingPacketLengths:sum 424000
attr interpolationmode none
attr recordingmode sum
attr source "packetLength(merge(packetPushedOut, packetPulledOut))"
attr title "outgoing packet lengths, sum"
attr unit b
statistic TimingExample.server2.app[0].measurementRecorder outgoingPacketLengths:histogram
field count 106
field mean 4000
field stddev 0
field min 4000
field max 4000
field sum 424000
field sqrsum 1696000000
attr interpolationmode none
attr recordingmode histogram
attr source "packetLength(merge(packetPushedOut, packetPulledOut))"
attr title "outgoing packet lengths"
attr unit b
bin	-inf	0
bin	3999	0
bin	4000	106
bin	4001	0
scalar TimingExample.server2.app[0].measurementRecorder flowOutgoingPacketLengths:sum 0
attr interpolationmode none
attr recordingmode sum
attr source "packetLength(demuxFlow(merge(packetPushedOut, packetPulledOut)))"
attr title "flow specific outgoing packet lengths, sum"
attr unit b
statistic TimingExample.server2.app[0].measurementRecorder flowOutgoingPacketLengths:histogram
field count 0
field mean -nan
field stddev nan
field min nan
field max nan
field sum 0
field sqrsum 0
attr interpolationmode none
attr recordingmode histogram
attr source "packetLength(demuxFlow(merge(packetPushedOut, packetPulledOut)))"
attr title "flow specific outgoing packet lengths"
attr unit b
bin	-inf	0
bin	0	0
bin	1	0
scalar TimingExample.server2.app[0].measurementRecorder incomingPackets:count 106
attr recordingmode count
attr source "merge(packetPushedIn, packetPulledIn)"
attr title "incoming packets, count"
attr unit pk
scalar TimingExample.server2.app[0].measurementRecorder incomingPacketLengths:sum 424000
attr interpolationmode none
attr recordingmode sum
attr source "packetLength(merge(packetPushedIn, packetPulledIn))"
attr title "incoming packet lengths, sum"
attr unit b
statistic TimingExample.server2.app[0].measurementRecorder incomingPacketLengths:histogram
field count 106
field mean 4000
field stddev 0
field min 4000
field max 4000
field sum 424000
field sqrsum 1696000000
attr interpolationmode none
attr recordingmode histogram
attr source "packetLength(merge(packetPushedIn, packetPulledIn))"
attr title "incoming packet lengths"
attr unit b
bin	-inf	0
bin	3999	0
bin	4000	106
bin	4001	0
scalar TimingExample.server2.app[0].measurementRecorder flowIncomingPacketLengths:sum 0
attr interpolationmode none
attr recordingmode sum
attr source "packetLength(demuxFlow(merge(packetPushedIn, packetPulledIn)))"
attr title "flow specific incoming packet lengths, sum"
attr unit b
statistic TimingExample.server2.app[0].measurementRecorder flowIncomingPacketLengths:histogram
field count 0
field mean -nan
field stddev nan
field min nan
field max nan
field sum 0
field sqrsum 0
attr interpolationmode none
attr recordingmode histogram
attr source "packetLength(demuxFlow(merge(packetPushedIn, packetPulledIn)))"
attr title "flow specific incoming packet lengths"
attr unit b
bin	-inf	0
bin	0	0
bin	1	0
scalar TimingExample.server2.app[0].measurementRecorder client1:flowIncomingPacketLengths:sum 236000
attr interpolationmode none
attr recordingmode sum
attr source "packetLength(demuxFlow(merge(packetPushedIn, packetPulledIn)))"
attr title "flow specific incoming packet lengths, sum"
attr unit b
statistic TimingExample.server2.app[0].measurementRecorder client1:flowIncomingPacketLengths:histogram
field count 59
field mean 4000
field stddev 0
field min 4000
field max 4000
field sum 236000
field sqrsum 944000000
attr interpolationmode none
attr recordingmode histogram
attr source "packetLength(demuxFlow(merge(packetPushedIn, packetPulledIn)))"
attr title "flow specific incoming packet lengths"
attr unit b
bin	-inf	0
bin	3999	0
bin	4000	59
bin	4001	0
scalar TimingExample.server2.app[0].measurementRecorder client2:flowIncomingPacketLengths:sum 188000
attr interpolationmode none
attr recordingmode sum
attr source "packetLength(demuxFlow(merge(packetPushedIn, packetPulledIn)))"
attr title "flow specific incoming packet lengths, sum"
attr unit b
statistic TimingExample.server2.app[0].measurementRecorder client2:flowIncomingPacketLengths:histogram
field count 47
field mean 4000
field stddev 0
field min 4000
field max 4000
field sum 188000
field sqrsum 752000000
attr interpolationmode none
attr recordingmode histogram
attr source "packetLength(demuxFlow(merge(packetPushedIn, packetPulledIn)))"
attr title "flow specific incoming packet lengths"
attr unit b
bin	-inf	0
bin	3999	0
bin	4000	47
bin	4001	0
scalar TimingExample.server2.app[0].io "packets sent" 0
scalar TimingExample.server2.app[0].io "packets received" 106
scalar TimingExample.server2.app[0].io packetReceived:count 106
attr interpolationmode none
attr recordingmode count
attr source packetReceived
attr title "packets received, count"
scalar TimingExample.server2.app[0].io packetReceived:sum(packetBytes) 53000
attr interpolationmode none
attr recordingmode sum(packetBytes)
attr source packetReceived
attr title "packets received, sum(packetBytes)"
scalar TimingExample.server2.app[0].io packetSent:count 0
attr interpolationmode none
attr recordingmode count
attr source packetSent
attr title "packets sent, count"
scalar TimingExample.server2.app[0].io packetSent:sum(packetBytes) 0
attr interpolationmode none
attr recordingmode sum(packetBytes)
attr source packetSent
attr title "packets sent, sum(packetBytes)"

