version 3
run HCFfrag-0-20251118-12:00:16-114538
attr configname HCFfrag
attr datetime 20251118-12:00:16
attr datetimef 20251118-120016
attr experiment HCFfrag
attr inifile omnetpp.ini
attr iterationvars ""
attr iterationvarsd ""
attr iterationvarsf ""
attr measurement ""
attr network FragmentationShowcase
attr processid 114538
attr repetition 0
attr replication #0
attr resultdir results
attr runnumber 0
attr seedset 0
config **.param-recording false
config image-path /home/zoli/Projects/OMNET/inet/images
config output-scalar-file results/omnetpp.ini-HCFfrag-#0.sca
config output-scalar-precision 17
config output-vector-file results/omnetpp.ini-HCFfrag-#0.vec
config output-vector-precision 17
config record-eventlog false
config sim-time-limit 10s
config *.wifiHost*.wlan[*].mac.qosStation true
config *.wifiHost*.wlan[*].classifier.typename QosClassifier
config **.mac.hcf.originatorMacDataService.msduAggregationPolicy.typename ""
config **.mac.hcf.originatorMacDataService.fragmentationPolicy.fragmentationThreshold 250B
config network FragmentationShowcase
config sim-time-limit 10s
config **.app*.throughput:vector.vector-recording true
config **.*.wlan[*].radio.minSnir:vector.vector-recording true
config **.app*.throughput.result-recording-modes +vector
config **.*.wlan[*].radio.minSnir.result-recording-modes +vector
config **.vector-recording false
config **.arp.typename GlobalArp
config *.wifiHost1.numApps 1
config *.wifiHost1.app[0].typename UdpBasicApp
config *.wifiHost1.app[0].destAddresses "\"wifiHost2\""
config *.wifiHost1.app[0].destPort 4000
config *.wifiHost1.app[0].sendInterval 0.5ms
config *.wifiHost1.app[0].messageLength 2000Byte
config *.wifiHost2.numApps 1
config *.wifiHost2.app[0].typename UdpSink
config *.wifiHost2.app[0].localPort 4000
config *.wifiHost*.wlan[*].radio.receiver.energyDetection -105dBm
config *.wifiHost*.wlan[*].radio.receiver.sensitivity -105dBm
config *.wifiHost*.wlan[*].radio.receiver.snirThreshold 0dB
config *.wifiHost*.wlan[*].radio.transmitter.power 0.08mW
config *.visualizer.dataLinkVisualizer.displayLinks true
config *.visualizer.physicalLinkVisualizer.displayLinks true
config *.visualizer.interfaceTableVisualizer.displayInterfaceTables true
config *.visualizer.interfaceTableVisualizer.format "\"%N %\\\\%a/%l\\n%m\""

scalar FragmentationShowcase.wifiHost1.lo[0].lo rcvdPkFromHl:count 0
scalar FragmentationShowcase.wifiHost1.lo[0].lo rcvdPkFromHl:sum(packetBytes) 0
scalar FragmentationShowcase.wifiHost1.lo[0].lo passedUpPk:count 0
scalar FragmentationShowcase.wifiHost1.lo[0].lo passedUpPk:sum(packetBytes) 0
scalar FragmentationShowcase.wifiHost1.lo[0] packetDropInterfaceDown:count 0
scalar FragmentationShowcase.wifiHost1.lo[0] packetDropInterfaceDown:sum(packetBytes) 0
scalar FragmentationShowcase.wifiHost1.lo[0] packetDropNoCarrier:count 0
scalar FragmentationShowcase.wifiHost1.lo[0] packetDropNoCarrier:sum(packetBytes) 0
scalar FragmentationShowcase.wifiHost1.wlan[0].mac.dcf.channelAccess.pendingQueue queueLength:last 0
scalar FragmentationShowcase.wifiHost1.wlan[0].mac.dcf.channelAccess.pendingQueue queueLength:max 0
scalar FragmentationShowcase.wifiHost1.wlan[0].mac.dcf.channelAccess.pendingQueue queueLength:timeavg 0
scalar FragmentationShowcase.wifiHost1.wlan[0].mac.dcf.channelAccess.pendingQueue queueBitLength:last 0
scalar FragmentationShowcase.wifiHost1.wlan[0].mac.dcf.channelAccess.pendingQueue queueBitLength:max 0
scalar FragmentationShowcase.wifiHost1.wlan[0].mac.dcf.channelAccess.pendingQueue queueBitLength:timeavg 0
scalar FragmentationShowcase.wifiHost1.wlan[0].mac.dcf.channelAccess.pendingQueue outgoingPackets:count 0
scalar FragmentationShowcase.wifiHost1.wlan[0].mac.dcf.channelAccess.pendingQueue outgoingPacketLengths:sum 0
scalar FragmentationShowcase.wifiHost1.wlan[0].mac.dcf.channelAccess.pendingQueue incomingPackets:count 0
scalar FragmentationShowcase.wifiHost1.wlan[0].mac.dcf.channelAccess.pendingQueue incomingPacketLengths:sum 0
scalar FragmentationShowcase.wifiHost1.wlan[0].mac.dcf.channelAccess.pendingQueue droppedPacketsQueueOverflow:count 0
scalar FragmentationShowcase.wifiHost1.wlan[0].mac.dcf.channelAccess.pendingQueue droppedPacketLengthsQueueOverflow:sum 0
scalar FragmentationShowcase.wifiHost1.wlan[0].mac.dcf.channelAccess.inProgressFrames queueLength:max 0
scalar FragmentationShowcase.wifiHost1.wlan[0].mac.dcf.channelAccess.inProgressFrames queueLength:timeavg 0
scalar FragmentationShowcase.wifiHost1.wlan[0].mac.dcf.channelAccess.contention channelAccessGranted:count 0
scalar FragmentationShowcase.wifiHost1.wlan[0].mac.dcf.channelAccess.contention stateChanged:count 42020
scalar FragmentationShowcase.wifiHost1.wlan[0].mac.dcf.channelAccess channelOwnershipChanged:count 0
scalar FragmentationShowcase.wifiHost1.wlan[0].mac.dcf.originatorMacDataService packetAggregated:count 0
scalar FragmentationShowcase.wifiHost1.wlan[0].mac.dcf.originatorMacDataService packetFragmented:count 0
scalar FragmentationShowcase.wifiHost1.wlan[0].mac.dcf.recipientMacDataService packetDeaggregated:count 0
scalar FragmentationShowcase.wifiHost1.wlan[0].mac.dcf.recipientMacDataService packetDefragmented:count 0
scalar FragmentationShowcase.wifiHost1.wlan[0].mac.dcf.recipientMacDataService packetDropDuplicateDetected:count 0
scalar FragmentationShowcase.wifiHost1.wlan[0].mac.dcf.recipientMacDataService packetDropDuplicateDetected:sum(packetBytes) 0
scalar FragmentationShowcase.wifiHost1.wlan[0].mac.dcf.recoveryProcedure retryLimitReached:count 0
scalar FragmentationShowcase.wifiHost1.wlan[0].mac.dcf frameSequenceFinished:count 0
scalar FragmentationShowcase.wifiHost1.wlan[0].mac.dcf packetReceivedFromPeer:count 0
scalar FragmentationShowcase.wifiHost1.wlan[0].mac.dcf packetReceivedFromPeer:sum(packetBytes) 0
scalar FragmentationShowcase.wifiHost1.wlan[0].mac.dcf packetReceivedFromPeerUnicast:count 0
scalar FragmentationShowcase.wifiHost1.wlan[0].mac.dcf packetReceivedFromPeerUnicast:sum(packetBytes) 0
scalar FragmentationShowcase.wifiHost1.wlan[0].mac.dcf packetReceivedFromPeerMulticast:count 0
scalar FragmentationShowcase.wifiHost1.wlan[0].mac.dcf packetReceivedFromPeerMulticast:sum(packetBytes) 0
scalar FragmentationShowcase.wifiHost1.wlan[0].mac.dcf packetReceivedFromPeerBroadcast:count 0
scalar FragmentationShowcase.wifiHost1.wlan[0].mac.dcf packetReceivedFromPeerBroadcast:sum(packetBytes) 0
scalar FragmentationShowcase.wifiHost1.wlan[0].mac.dcf packetReceivedFromPeerWithRetry:count 0
scalar FragmentationShowcase.wifiHost1.wlan[0].mac.dcf packetReceivedFromPeerWithRetry:sum(packetBytes) 0
scalar FragmentationShowcase.wifiHost1.wlan[0].mac.dcf packetReceivedFromPeerWithoutRetry:count 0
scalar FragmentationShowcase.wifiHost1.wlan[0].mac.dcf packetReceivedFromPeerWithoutRetry:sum(packetBytes) 0
scalar FragmentationShowcase.wifiHost1.wlan[0].mac.dcf packetSentToPeer:count 0
scalar FragmentationShowcase.wifiHost1.wlan[0].mac.dcf packetSentToPeer:sum(packetBytes) 0
scalar FragmentationShowcase.wifiHost1.wlan[0].mac.dcf packetSentToPeerUnicast:count 0
scalar FragmentationShowcase.wifiHost1.wlan[0].mac.dcf packetSentToPeerUnicast:sum(packetBytes) 0
scalar FragmentationShowcase.wifiHost1.wlan[0].mac.dcf packetSentToPeerMulticast:count 0
scalar FragmentationShowcase.wifiHost1.wlan[0].mac.dcf packetSentToPeerMulticast:sum(packetBytes) 0
scalar FragmentationShowcase.wifiHost1.wlan[0].mac.dcf packetSentToPeerBroadcast:count 0
scalar FragmentationShowcase.wifiHost1.wlan[0].mac.dcf packetSentToPeerBroadcast:sum(packetBytes) 0
scalar FragmentationShowcase.wifiHost1.wlan[0].mac.dcf packetSentToPeerWithRetry:count 0
scalar FragmentationShowcase.wifiHost1.wlan[0].mac.dcf packetSentToPeerWithRetry:sum(packetBytes) 0
scalar FragmentationShowcase.wifiHost1.wlan[0].mac.dcf packetSentToPeerWithoutRetry:count 0
scalar FragmentationShowcase.wifiHost1.wlan[0].mac.dcf packetSentToPeerWithoutRetry:sum(packetBytes) 0
scalar FragmentationShowcase.wifiHost1.wlan[0].mac.dcf packetDrop:count 0
scalar FragmentationShowcase.wifiHost1.wlan[0].mac.dcf packetDrop:sum(packetBytes) 0
scalar FragmentationShowcase.wifiHost1.wlan[0].mac.dcf packetDropNotAddressedToUs:count 0
scalar FragmentationShowcase.wifiHost1.wlan[0].mac.dcf packetDropNotAddressedToUs:sum(packetBytes) 0
scalar FragmentationShowcase.wifiHost1.wlan[0].mac.dcf packetDropQueueOverflow:count 0
scalar FragmentationShowcase.wifiHost1.wlan[0].mac.dcf packetDropQueueOverflow:sum(packetBytes) 0
scalar FragmentationShowcase.wifiHost1.wlan[0].mac.dcf packetDropRetryLimitReached:count 0
scalar FragmentationShowcase.wifiHost1.wlan[0].mac.dcf packetDropRetryLimitReached:sum(packetBytes) 0
scalar FragmentationShowcase.wifiHost1.wlan[0].mac.dcf linkBroken:count 0
scalar FragmentationShowcase.wifiHost1.wlan[0].mac.hcf.edca.edcaf[0].pendingQueue queueLength:last 0
scalar FragmentationShowcase.wifiHost1.wlan[0].mac.hcf.edca.edcaf[0].pendingQueue queueLength:max 0
scalar FragmentationShowcase.wifiHost1.wlan[0].mac.hcf.edca.edcaf[0].pendingQueue queueLength:timeavg 0
scalar FragmentationShowcase.wifiHost1.wlan[0].mac.hcf.edca.edcaf[0].pendingQueue queueBitLength:last 0
scalar FragmentationShowcase.wifiHost1.wlan[0].mac.hcf.edca.edcaf[0].pendingQueue queueBitLength:max 0
scalar FragmentationShowcase.wifiHost1.wlan[0].mac.hcf.edca.edcaf[0].pendingQueue queueBitLength:timeavg 0
scalar FragmentationShowcase.wifiHost1.wlan[0].mac.hcf.edca.edcaf[0].pendingQueue outgoingPackets:count 0
scalar FragmentationShowcase.wifiHost1.wlan[0].mac.hcf.edca.edcaf[0].pendingQueue outgoingPacketLengths:sum 0
scalar FragmentationShowcase.wifiHost1.wlan[0].mac.hcf.edca.edcaf[0].pendingQueue incomingPackets:count 0
scalar FragmentationShowcase.wifiHost1.wlan[0].mac.hcf.edca.edcaf[0].pendingQueue incomingPacketLengths:sum 0
scalar FragmentationShowcase.wifiHost1.wlan[0].mac.hcf.edca.edcaf[0].pendingQueue droppedPacketsQueueOverflow:count 0
scalar FragmentationShowcase.wifiHost1.wlan[0].mac.hcf.edca.edcaf[0].pendingQueue droppedPacketLengthsQueueOverflow:sum 0
scalar FragmentationShowcase.wifiHost1.wlan[0].mac.hcf.edca.edcaf[0].inProgressFrames queueLength:max 0
scalar FragmentationShowcase.wifiHost1.wlan[0].mac.hcf.edca.edcaf[0].inProgressFrames queueLength:timeavg 0
scalar FragmentationShowcase.wifiHost1.wlan[0].mac.hcf.edca.edcaf[0].contention channelAccessGranted:count 0
scalar FragmentationShowcase.wifiHost1.wlan[0].mac.hcf.edca.edcaf[0].contention stateChanged:count 42020
scalar FragmentationShowcase.wifiHost1.wlan[0].mac.hcf.edca.edcaf[0].txopProcedure txopEnded:count 0
scalar FragmentationShowcase.wifiHost1.wlan[0].mac.hcf.edca.edcaf[0].recoveryProcedure retryLimitReached:count 0
scalar FragmentationShowcase.wifiHost1.wlan[0].mac.hcf.edca.edcaf[0] channelOwnershipChanged:count 0
scalar FragmentationShowcase.wifiHost1.wlan[0].mac.hcf.edca.edcaf[0] packetSentToPeer:count 0
scalar FragmentationShowcase.wifiHost1.wlan[0].mac.hcf.edca.edcaf[0] packetSentToPeer:sum(packetBytes) 0
scalar FragmentationShowcase.wifiHost1.wlan[0].mac.hcf.edca.edcaf[0] packetSentToPeerUnicast:count 0
scalar FragmentationShowcase.wifiHost1.wlan[0].mac.hcf.edca.edcaf[0] packetSentToPeerUnicast:sum(packetBytes) 0
scalar FragmentationShowcase.wifiHost1.wlan[0].mac.hcf.edca.edcaf[0] packetSentToPeerMulticast:count 0
scalar FragmentationShowcase.wifiHost1.wlan[0].mac.hcf.edca.edcaf[0] packetSentToPeerMulticast:sum(packetBytes) 0
scalar FragmentationShowcase.wifiHost1.wlan[0].mac.hcf.edca.edcaf[0] packetSentToPeerBroadcast:count 0
scalar FragmentationShowcase.wifiHost1.wlan[0].mac.hcf.edca.edcaf[0] packetSentToPeerBroadcast:sum(packetBytes) 0
scalar FragmentationShowcase.wifiHost1.wlan[0].mac.hcf.edca.edcaf[0] packetSentToPeerWithRetry:count 0
scalar FragmentationShowcase.wifiHost1.wlan[0].mac.hcf.edca.edcaf[0] packetSentToPeerWithRetry:sum(packetBytes) 0
scalar FragmentationShowcase.wifiHost1.wlan[0].mac.hcf.edca.edcaf[0] packetSentToPeerWithoutRetry:count 0
scalar FragmentationShowcase.wifiHost1.wlan[0].mac.hcf.edca.edcaf[0] packetSentToPeerWithoutRetry:sum(packetBytes) 0
scalar FragmentationShowcase.wifiHost1.wlan[0].mac.hcf.edca.edcaf[1].pendingQueue queueLength:last 0
scalar FragmentationShowcase.wifiHost1.wlan[0].mac.hcf.edca.edcaf[1].pendingQueue queueLength:max 0
scalar FragmentationShowcase.wifiHost1.wlan[0].mac.hcf.edca.edcaf[1].pendingQueue queueLength:timeavg 0
scalar FragmentationShowcase.wifiHost1.wlan[0].mac.hcf.edca.edcaf[1].pendingQueue queueBitLength:last 0
scalar FragmentationShowcase.wifiHost1.wlan[0].mac.hcf.edca.edcaf[1].pendingQueue queueBitLength:max 0
scalar FragmentationShowcase.wifiHost1.wlan[0].mac.hcf.edca.edcaf[1].pendingQueue queueBitLength:timeavg 0
scalar FragmentationShowcase.wifiHost1.wlan[0].mac.hcf.edca.edcaf[1].pendingQueue outgoingPackets:count 0
scalar FragmentationShowcase.wifiHost1.wlan[0].mac.hcf.edca.edcaf[1].pendingQueue outgoingPacketLengths:sum 0
scalar FragmentationShowcase.wifiHost1.wlan[0].mac.hcf.edca.edcaf[1].pendingQueue incomingPackets:count 0
scalar FragmentationShowcase.wifiHost1.wlan[0].mac.hcf.edca.edcaf[1].pendingQueue incomingPacketLengths:sum 0
scalar FragmentationShowcase.wifiHost1.wlan[0].mac.hcf.edca.edcaf[1].pendingQueue droppedPacketsQueueOverflow:count 0
scalar FragmentationShowcase.wifiHost1.wlan[0].mac.hcf.edca.edcaf[1].pendingQueue droppedPacketLengthsQueueOverflow:sum 0
scalar FragmentationShowcase.wifiHost1.wlan[0].mac.hcf.edca.edcaf[1].inProgressFrames queueLength:max 0
scalar FragmentationShowcase.wifiHost1.wlan[0].mac.hcf.edca.edcaf[1].inProgressFrames queueLength:timeavg 0
scalar FragmentationShowcase.wifiHost1.wlan[0].mac.hcf.edca.edcaf[1].contention channelAccessGranted:count 0
scalar FragmentationShowcase.wifiHost1.wlan[0].mac.hcf.edca.edcaf[1].contention stateChanged:count 42020
scalar FragmentationShowcase.wifiHost1.wlan[0].mac.hcf.edca.edcaf[1].txopProcedure txopEnded:count 0
scalar FragmentationShowcase.wifiHost1.wlan[0].mac.hcf.edca.edcaf[1].recoveryProcedure retryLimitReached:count 0
scalar FragmentationShowcase.wifiHost1.wlan[0].mac.hcf.edca.edcaf[1] channelOwnershipChanged:count 0
scalar FragmentationShowcase.wifiHost1.wlan[0].mac.hcf.edca.edcaf[1] packetSentToPeer:count 0
scalar FragmentationShowcase.wifiHost1.wlan[0].mac.hcf.edca.edcaf[1] packetSentToPeer:sum(packetBytes) 0
scalar FragmentationShowcase.wifiHost1.wlan[0].mac.hcf.edca.edcaf[1] packetSentToPeerUnicast:count 0
scalar FragmentationShowcase.wifiHost1.wlan[0].mac.hcf.edca.edcaf[1] packetSentToPeerUnicast:sum(packetBytes) 0
scalar FragmentationShowcase.wifiHost1.wlan[0].mac.hcf.edca.edcaf[1] packetSentToPeerMulticast:count 0
scalar FragmentationShowcase.wifiHost1.wlan[0].mac.hcf.edca.edcaf[1] packetSentToPeerMulticast:sum(packetBytes) 0
scalar FragmentationShowcase.wifiHost1.wlan[0].mac.hcf.edca.edcaf[1] packetSentToPeerBroadcast:count 0
scalar FragmentationShowcase.wifiHost1.wlan[0].mac.hcf.edca.edcaf[1] packetSentToPeerBroadcast:sum(packetBytes) 0
scalar FragmentationShowcase.wifiHost1.wlan[0].mac.hcf.edca.edcaf[1] packetSentToPeerWithRetry:count 0
scalar FragmentationShowcase.wifiHost1.wlan[0].mac.hcf.edca.edcaf[1] packetSentToPeerWithRetry:sum(packetBytes) 0
scalar FragmentationShowcase.wifiHost1.wlan[0].mac.hcf.edca.edcaf[1] packetSentToPeerWithoutRetry:count 0
scalar FragmentationShowcase.wifiHost1.wlan[0].mac.hcf.edca.edcaf[1] packetSentToPeerWithoutRetry:sum(packetBytes) 0
scalar FragmentationShowcase.wifiHost1.wlan[0].mac.hcf.edca.edcaf[2].pendingQueue queueLength:last 100
scalar FragmentationShowcase.wifiHost1.wlan[0].mac.hcf.edca.edcaf[2].pendingQueue queueLength:max 100
scalar FragmentationShowcase.wifiHost1.wlan[0].mac.hcf.edca.edcaf[2].pendingQueue queueLength:timeavg 99.669651620127723
scalar FragmentationShowcase.wifiHost1.wlan[0].mac.hcf.edca.edcaf[2].pendingQueue queueBitLength:last 1652800
scalar FragmentationShowcase.wifiHost1.wlan[0].mac.hcf.edca.edcaf[2].pendingQueue queueBitLength:max 1652800
scalar FragmentationShowcase.wifiHost1.wlan[0].mac.hcf.edca.edcaf[2].pendingQueue queueBitLength:timeavg 1647340.0019784728
scalar FragmentationShowcase.wifiHost1.wlan[0].mac.hcf.edca.edcaf[2].pendingQueue outgoingPackets:count 1914
scalar FragmentationShowcase.wifiHost1.wlan[0].mac.hcf.edca.edcaf[2].pendingQueue outgoingPacketLengths:sum 31634592
scalar FragmentationShowcase.wifiHost1.wlan[0].mac.hcf.edca.edcaf[2].pendingQueue incomingPackets:count 20000
scalar FragmentationShowcase.wifiHost1.wlan[0].mac.hcf.edca.edcaf[2].pendingQueue incomingPacketLengths:sum 330560000
scalar FragmentationShowcase.wifiHost1.wlan[0].mac.hcf.edca.edcaf[2].pendingQueue droppedPacketsQueueOverflow:count 17986
scalar FragmentationShowcase.wifiHost1.wlan[0].mac.hcf.edca.edcaf[2].pendingQueue droppedPacketLengthsQueueOverflow:sum 297272608
scalar FragmentationShowcase.wifiHost1.wlan[0].mac.hcf.edca.edcaf[2].inProgressFrames queueLength:max 11
scalar FragmentationShowcase.wifiHost1.wlan[0].mac.hcf.edca.edcaf[2].inProgressFrames queueLength:timeavg 6.2611676453244289
scalar FragmentationShowcase.wifiHost1.wlan[0].mac.hcf.edca.edcaf[2].contention channelAccessGranted:count 10122
scalar FragmentationShowcase.wifiHost1.wlan[0].mac.hcf.edca.edcaf[2].contention stateChanged:count 82510
scalar FragmentationShowcase.wifiHost1.wlan[0].mac.hcf.edca.edcaf[2].txopProcedure txopEnded:count 10122
scalar FragmentationShowcase.wifiHost1.wlan[0].mac.hcf.edca.edcaf[2].recoveryProcedure retryLimitReached:count 11
scalar FragmentationShowcase.wifiHost1.wlan[0].mac.hcf.edca.edcaf[2] channelOwnershipChanged:count 20244
scalar FragmentationShowcase.wifiHost1.wlan[0].mac.hcf.edca.edcaf[2] packetSentToPeer:count 29248
scalar FragmentationShowcase.wifiHost1.wlan[0].mac.hcf.edca.edcaf[2] packetSentToPeer:sum(packetBytes) 6933324
scalar FragmentationShowcase.wifiHost1.wlan[0].mac.hcf.edca.edcaf[2] packetSentToPeerUnicast:count 29248
scalar FragmentationShowcase.wifiHost1.wlan[0].mac.hcf.edca.edcaf[2] packetSentToPeerUnicast:sum(packetBytes) 6933324
scalar FragmentationShowcase.wifiHost1.wlan[0].mac.hcf.edca.edcaf[2] packetSentToPeerMulticast:count 0
scalar FragmentationShowcase.wifiHost1.wlan[0].mac.hcf.edca.edcaf[2] packetSentToPeerMulticast:sum(packetBytes) 0
scalar FragmentationShowcase.wifiHost1.wlan[0].mac.hcf.edca.edcaf[2] packetSentToPeerBroadcast:count 0
scalar FragmentationShowcase.wifiHost1.wlan[0].mac.hcf.edca.edcaf[2] packetSentToPeerBroadcast:sum(packetBytes) 0
scalar FragmentationShowcase.wifiHost1.wlan[0].mac.hcf.edca.edcaf[2] packetSentToPeerWithRetry:count 10110
scalar FragmentationShowcase.wifiHost1.wlan[0].mac.hcf.edca.edcaf[2] packetSentToPeerWithRetry:sum(packetBytes) 2462556
scalar FragmentationShowcase.wifiHost1.wlan[0].mac.hcf.edca.edcaf[2] packetSentToPeerWithoutRetry:count 19138
scalar FragmentationShowcase.wifiHost1.wlan[0].mac.hcf.edca.edcaf[2] packetSentToPeerWithoutRetry:sum(packetBytes) 4470768
scalar FragmentationShowcase.wifiHost1.wlan[0].mac.hcf.edca.edcaf[3].pendingQueue queueLength:last 0
scalar FragmentationShowcase.wifiHost1.wlan[0].mac.hcf.edca.edcaf[3].pendingQueue queueLength:max 0
scalar FragmentationShowcase.wifiHost1.wlan[0].mac.hcf.edca.edcaf[3].pendingQueue queueLength:timeavg 0
scalar FragmentationShowcase.wifiHost1.wlan[0].mac.hcf.edca.edcaf[3].pendingQueue queueBitLength:last 0
scalar FragmentationShowcase.wifiHost1.wlan[0].mac.hcf.edca.edcaf[3].pendingQueue queueBitLength:max 0
scalar FragmentationShowcase.wifiHost1.wlan[0].mac.hcf.edca.edcaf[3].pendingQueue queueBitLength:timeavg 0
scalar FragmentationShowcase.wifiHost1.wlan[0].mac.hcf.edca.edcaf[3].pendingQueue outgoingPackets:count 0
scalar FragmentationShowcase.wifiHost1.wlan[0].mac.hcf.edca.edcaf[3].pendingQueue outgoingPacketLengths:sum 0
scalar FragmentationShowcase.wifiHost1.wlan[0].mac.hcf.edca.edcaf[3].pendingQueue incomingPackets:count 0
scalar FragmentationShowcase.wifiHost1.wlan[0].mac.hcf.edca.edcaf[3].pendingQueue incomingPacketLengths:sum 0
scalar FragmentationShowcase.wifiHost1.wlan[0].mac.hcf.edca.edcaf[3].pendingQueue droppedPacketsQueueOverflow:count 0
scalar FragmentationShowcase.wifiHost1.wlan[0].mac.hcf.edca.edcaf[3].pendingQueue droppedPacketLengthsQueueOverflow:sum 0
scalar FragmentationShowcase.wifiHost1.wlan[0].mac.hcf.edca.edcaf[3].inProgressFrames queueLength:max 0
scalar FragmentationShowcase.wifiHost1.wlan[0].mac.hcf.edca.edcaf[3].inProgressFrames queueLength:timeavg 0
scalar FragmentationShowcase.wifiHost1.wlan[0].mac.hcf.edca.edcaf[3].contention channelAccessGranted:count 0
scalar FragmentationShowcase.wifiHost1.wlan[0].mac.hcf.edca.edcaf[3].contention stateChanged:count 42020
scalar FragmentationShowcase.wifiHost1.wlan[0].mac.hcf.edca.edcaf[3].txopProcedure txopEnded:count 0
scalar FragmentationShowcase.wifiHost1.wlan[0].mac.hcf.edca.edcaf[3].recoveryProcedure retryLimitReached:count 0
scalar FragmentationShowcase.wifiHost1.wlan[0].mac.hcf.edca.edcaf[3] channelOwnershipChanged:count 0
scalar FragmentationShowcase.wifiHost1.wlan[0].mac.hcf.edca.edcaf[3] packetSentToPeer:count 0
scalar FragmentationShowcase.wifiHost1.wlan[0].mac.hcf.edca.edcaf[3] packetSentToPeer:sum(packetBytes) 0
scalar FragmentationShowcase.wifiHost1.wlan[0].mac.hcf.edca.edcaf[3] packetSentToPeerUnicast:count 0
scalar FragmentationShowcase.wifiHost1.wlan[0].mac.hcf.edca.edcaf[3] packetSentToPeerUnicast:sum(packetBytes) 0
scalar FragmentationShowcase.wifiHost1.wlan[0].mac.hcf.edca.edcaf[3] packetSentToPeerMulticast:count 0
scalar FragmentationShowcase.wifiHost1.wlan[0].mac.hcf.edca.edcaf[3] packetSentToPeerMulticast:sum(packetBytes) 0
scalar FragmentationShowcase.wifiHost1.wlan[0].mac.hcf.edca.edcaf[3] packetSentToPeerBroadcast:count 0
scalar FragmentationShowcase.wifiHost1.wlan[0].mac.hcf.edca.edcaf[3] packetSentToPeerBroadcast:sum(packetBytes) 0
scalar FragmentationShowcase.wifiHost1.wlan[0].mac.hcf.edca.edcaf[3] packetSentToPeerWithRetry:count 0
scalar FragmentationShowcase.wifiHost1.wlan[0].mac.hcf.edca.edcaf[3] packetSentToPeerWithRetry:sum(packetBytes) 0
scalar FragmentationShowcase.wifiHost1.wlan[0].mac.hcf.edca.edcaf[3] packetSentToPeerWithoutRetry:count 0
scalar FragmentationShowcase.wifiHost1.wlan[0].mac.hcf.edca.edcaf[3] packetSentToPeerWithoutRetry:sum(packetBytes) 0
scalar FragmentationShowcase.wifiHost1.wlan[0].mac.hcf.edca.mgmtAndNonQoSRecoveryProcedure retryLimitReached:count 0
scalar FragmentationShowcase.wifiHost1.wlan[0].mac.hcf.originatorMacDataService packetAggregated:count 0
scalar FragmentationShowcase.wifiHost1.wlan[0].mac.hcf.originatorMacDataService packetFragmented:count 1914
scalar FragmentationShowcase.wifiHost1.wlan[0].mac.hcf.recipientMacDataService packetDeaggregated:count 0
scalar FragmentationShowcase.wifiHost1.wlan[0].mac.hcf.recipientMacDataService packetDefragmented:count 0
scalar FragmentationShowcase.wifiHost1.wlan[0].mac.hcf.recipientMacDataService packetDropDuplicateDetected:count 0
scalar FragmentationShowcase.wifiHost1.wlan[0].mac.hcf.recipientMacDataService packetDropDuplicateDetected:sum(packetBytes) 0
scalar FragmentationShowcase.wifiHost1.wlan[0].mac.hcf blockAckAgreementDeleted:count 0
scalar FragmentationShowcase.wifiHost1.wlan[0].mac.hcf blockAckAgreementAdded:count 0
scalar FragmentationShowcase.wifiHost1.wlan[0].mac.hcf edcaCollisionDetected:count 0
scalar FragmentationShowcase.wifiHost1.wlan[0].mac.hcf frameSequenceFinished:count 10122
scalar FragmentationShowcase.wifiHost1.wlan[0].mac.hcf packetReceivedFromPeerUnicast:count 19126
scalar FragmentationShowcase.wifiHost1.wlan[0].mac.hcf packetReceivedFromPeerUnicast:sum(packetBytes) 267764
scalar FragmentationShowcase.wifiHost1.wlan[0].mac.hcf packetReceivedFromPeerMulticast:count 0
scalar FragmentationShowcase.wifiHost1.wlan[0].mac.hcf packetReceivedFromPeerMulticast:sum(packetBytes) 0
scalar FragmentationShowcase.wifiHost1.wlan[0].mac.hcf packetReceivedFromPeerBroadcast:count 0
scalar FragmentationShowcase.wifiHost1.wlan[0].mac.hcf packetReceivedFromPeerBroadcast:sum(packetBytes) 0
scalar FragmentationShowcase.wifiHost1.wlan[0].mac.hcf packetReceivedFromPeerWithRetry:count 0
scalar FragmentationShowcase.wifiHost1.wlan[0].mac.hcf packetReceivedFromPeerWithRetry:sum(packetBytes) 0
scalar FragmentationShowcase.wifiHost1.wlan[0].mac.hcf packetReceivedFromPeerWithoutRetry:count 19126
scalar FragmentationShowcase.wifiHost1.wlan[0].mac.hcf packetReceivedFromPeerWithoutRetry:sum(packetBytes) 267764
scalar FragmentationShowcase.wifiHost1.wlan[0].mac.hcf packetSentToPeer:count 29248
scalar FragmentationShowcase.wifiHost1.wlan[0].mac.hcf packetSentToPeer:sum(packetBytes) 6933324
scalar FragmentationShowcase.wifiHost1.wlan[0].mac.hcf packetSentToPeerUnicast:count 29248
scalar FragmentationShowcase.wifiHost1.wlan[0].mac.hcf packetSentToPeerUnicast:sum(packetBytes) 6933324
scalar FragmentationShowcase.wifiHost1.wlan[0].mac.hcf packetSentToPeerMulticast:count 0
scalar FragmentationShowcase.wifiHost1.wlan[0].mac.hcf packetSentToPeerMulticast:sum(packetBytes) 0
scalar FragmentationShowcase.wifiHost1.wlan[0].mac.hcf packetSentToPeerBroadcast:count 0
scalar FragmentationShowcase.wifiHost1.wlan[0].mac.hcf packetSentToPeerBroadcast:sum(packetBytes) 0
scalar FragmentationShowcase.wifiHost1.wlan[0].mac.hcf packetSentToPeerWithRetry:count 10110
scalar FragmentationShowcase.wifiHost1.wlan[0].mac.hcf packetSentToPeerWithRetry:sum(packetBytes) 2462556
scalar FragmentationShowcase.wifiHost1.wlan[0].mac.hcf packetSentToPeerWithoutRetry:count 19138
scalar FragmentationShowcase.wifiHost1.wlan[0].mac.hcf packetSentToPeerWithoutRetry:sum(packetBytes) 4470768
scalar FragmentationShowcase.wifiHost1.wlan[0].mac.hcf packetDrop:count 17997
scalar FragmentationShowcase.wifiHost1.wlan[0].mac.hcf packetDrop:sum(packetBytes) 37161826
scalar FragmentationShowcase.wifiHost1.wlan[0].mac.hcf packetDropNotAddressedToUs:count 0
scalar FragmentationShowcase.wifiHost1.wlan[0].mac.hcf packetDropNotAddressedToUs:sum(packetBytes) 0
scalar FragmentationShowcase.wifiHost1.wlan[0].mac.hcf packetDropQueueOverflow:count 17986
scalar FragmentationShowcase.wifiHost1.wlan[0].mac.hcf packetDropQueueOverflow:sum(packetBytes) 37159076
scalar FragmentationShowcase.wifiHost1.wlan[0].mac.hcf packetDropRetryLimitReached:count 11
scalar FragmentationShowcase.wifiHost1.wlan[0].mac.hcf packetDropRetryLimitReached:sum(packetBytes) 2750
scalar FragmentationShowcase.wifiHost1.wlan[0].mac.hcf linkBroken:count 11
scalar FragmentationShowcase.wifiHost1.wlan[0].mac packetReceivedFromLower:count 19891
scalar FragmentationShowcase.wifiHost1.wlan[0].mac packetReceivedFromLower:sum(packetBytes) 278474
scalar FragmentationShowcase.wifiHost1.wlan[0].mac packetSentToLower:count 29248
scalar FragmentationShowcase.wifiHost1.wlan[0].mac packetSentToLower:sum(packetBytes) 6933324
scalar FragmentationShowcase.wifiHost1.wlan[0].mac packetReceivedFromUpper:count 20000
scalar FragmentationShowcase.wifiHost1.wlan[0].mac packetReceivedFromUpper:sum(packetBytes) 40720000
scalar FragmentationShowcase.wifiHost1.wlan[0].mac packetSentToUpper:count 0
scalar FragmentationShowcase.wifiHost1.wlan[0].mac packetSentToUpper:sum(packetBytes) 0
scalar FragmentationShowcase.wifiHost1.wlan[0].mac packetDrop:count 18762
scalar FragmentationShowcase.wifiHost1.wlan[0].mac packetDrop:sum(packetBytes) 37172536
scalar FragmentationShowcase.wifiHost1.wlan[0].mac packetDropIncorrectlyReceived:count 765
scalar FragmentationShowcase.wifiHost1.wlan[0].mac packetDropIncorrectlyReceived:sum(packetBytes) 10710
scalar FragmentationShowcase.wifiHost1.wlan[0].mac packetDropNotAddressedToUs:count 0
scalar FragmentationShowcase.wifiHost1.wlan[0].mac packetDropNotAddressedToUs:sum(packetBytes) 0
scalar FragmentationShowcase.wifiHost1.wlan[0].mac packetDropQueueOverflow:count 17986
scalar FragmentationShowcase.wifiHost1.wlan[0].mac packetDropQueueOverflow:sum(packetBytes) 37159076
scalar FragmentationShowcase.wifiHost1.wlan[0].mac packetDropRetryLimitReached:count 11
scalar FragmentationShowcase.wifiHost1.wlan[0].mac packetDropRetryLimitReached:sum(packetBytes) 2750
scalar FragmentationShowcase.wifiHost1.wlan[0].mac packetDropDuplicateDetected:count 0
scalar FragmentationShowcase.wifiHost1.wlan[0].mac packetDropDuplicateDetected:sum(packetBytes) 0
scalar FragmentationShowcase.wifiHost1.wlan[0].mac packetDropOther:count 0
scalar FragmentationShowcase.wifiHost1.wlan[0].mac packetDropOther:sum(packetBytes) 0
scalar FragmentationShowcase.wifiHost1.wlan[0].mac linkBroken:count 11
scalar FragmentationShowcase.wifiHost1.wlan[0].radio radioMode:count 58499
scalar FragmentationShowcase.wifiHost1.wlan[0].radio receptionState:count 98279
scalar FragmentationShowcase.wifiHost1.wlan[0].radio transmissionState:count 116992
scalar FragmentationShowcase.wifiHost1.wlan[0] packetDropInterfaceDown:count 0
scalar FragmentationShowcase.wifiHost1.wlan[0] packetDropInterfaceDown:sum(packetBytes) 0
scalar FragmentationShowcase.wifiHost1.wlan[0] packetDropNoCarrier:count 0
scalar FragmentationShowcase.wifiHost1.wlan[0] packetDropNoCarrier:sum(packetBytes) 0
scalar FragmentationShowcase.wifiHost1.ipv4.ip packetDropAddressResolutionFailed:count 0
scalar FragmentationShowcase.wifiHost1.ipv4.ip packetDropAddressResolutionFailed:sum(packetBytes) 0
scalar FragmentationShowcase.wifiHost1.ipv4.ip packetDropHopLimitReached:count 0
scalar FragmentationShowcase.wifiHost1.ipv4.ip packetDropHopLimitReached:sum(packetBytes) 0
scalar FragmentationShowcase.wifiHost1.ipv4.ip packetDropForwardingDisabled:count 0
scalar FragmentationShowcase.wifiHost1.ipv4.ip packetDropForwardingDisabled:sum(packetBytes) 0
scalar FragmentationShowcase.wifiHost1.ipv4.ip packetDropLifetimeExpired:count 0
scalar FragmentationShowcase.wifiHost1.ipv4.ip packetDropLifetimeExpired:sum(packetBytes) 0
scalar FragmentationShowcase.wifiHost1.ipv4.ip packetDropNoInterfaceFound:count 0
scalar FragmentationShowcase.wifiHost1.ipv4.ip packetDropNoInterfaceFound:sum(packetBytes) 0
scalar FragmentationShowcase.wifiHost1.ipv4.ip packetDropNoRouteFound:count 0
scalar FragmentationShowcase.wifiHost1.ipv4.ip packetDropNoRouteFound:sum(packetBytes) 0
scalar FragmentationShowcase.wifiHost1.ipv4.ip packetDropUndefined:count 0
scalar FragmentationShowcase.wifiHost1.ipv4.ip packetDropUndefined:sum(packetBytes) 0
scalar FragmentationShowcase.wifiHost1.udp packetReceived:count 0
scalar FragmentationShowcase.wifiHost1.udp packetReceived:sum(packetBytes) 0
scalar FragmentationShowcase.wifiHost1.udp packetSent:count 20000
scalar FragmentationShowcase.wifiHost1.udp packetSent:sum(packetBytes) 40160000
scalar FragmentationShowcase.wifiHost1.udp passedUpPk:count 0
scalar FragmentationShowcase.wifiHost1.udp droppedPkWrongPort:count 0
scalar FragmentationShowcase.wifiHost1.udp droppedPkBadChecksum:count 0
scalar FragmentationShowcase.wifiHost1.app[0] "packets sent" 20000
scalar FragmentationShowcase.wifiHost1.app[0] "packets received" 0
scalar FragmentationShowcase.wifiHost1.app[0] packetReceived:count 0
scalar FragmentationShowcase.wifiHost1.app[0] packetReceived:sum(packetBytes) 0
scalar FragmentationShowcase.wifiHost1.app[0] packetSent:count 20000
scalar FragmentationShowcase.wifiHost1.app[0] packetSent:sum(packetBytes) 40000000
scalar FragmentationShowcase.wifiHost2.lo[0].lo rcvdPkFromHl:count 0
scalar FragmentationShowcase.wifiHost2.lo[0].lo rcvdPkFromHl:sum(packetBytes) 0
scalar FragmentationShowcase.wifiHost2.lo[0].lo passedUpPk:count 0
scalar FragmentationShowcase.wifiHost2.lo[0].lo passedUpPk:sum(packetBytes) 0
scalar FragmentationShowcase.wifiHost2.lo[0] packetDropInterfaceDown:count 0
scalar FragmentationShowcase.wifiHost2.lo[0] packetDropInterfaceDown:sum(packetBytes) 0
scalar FragmentationShowcase.wifiHost2.lo[0] packetDropNoCarrier:count 0
scalar FragmentationShowcase.wifiHost2.lo[0] packetDropNoCarrier:sum(packetBytes) 0
scalar FragmentationShowcase.wifiHost2.wlan[0].mac.dcf.channelAccess.pendingQueue queueLength:last 0
scalar FragmentationShowcase.wifiHost2.wlan[0].mac.dcf.channelAccess.pendingQueue queueLength:max 0
scalar FragmentationShowcase.wifiHost2.wlan[0].mac.dcf.channelAccess.pendingQueue queueLength:timeavg 0
scalar FragmentationShowcase.wifiHost2.wlan[0].mac.dcf.channelAccess.pendingQueue queueBitLength:last 0
scalar FragmentationShowcase.wifiHost2.wlan[0].mac.dcf.channelAccess.pendingQueue queueBitLength:max 0
scalar FragmentationShowcase.wifiHost2.wlan[0].mac.dcf.channelAccess.pendingQueue queueBitLength:timeavg 0
scalar FragmentationShowcase.wifiHost2.wlan[0].mac.dcf.channelAccess.pendingQueue outgoingPackets:count 0
scalar FragmentationShowcase.wifiHost2.wlan[0].mac.dcf.channelAccess.pendingQueue outgoingPacketLengths:sum 0
scalar FragmentationShowcase.wifiHost2.wlan[0].mac.dcf.channelAccess.pendingQueue incomingPackets:count 0
scalar FragmentationShowcase.wifiHost2.wlan[0].mac.dcf.channelAccess.pendingQueue incomingPacketLengths:sum 0
scalar FragmentationShowcase.wifiHost2.wlan[0].mac.dcf.channelAccess.pendingQueue droppedPacketsQueueOverflow:count 0
scalar FragmentationShowcase.wifiHost2.wlan[0].mac.dcf.channelAccess.pendingQueue droppedPacketLengthsQueueOverflow:sum 0
scalar FragmentationShowcase.wifiHost2.wlan[0].mac.dcf.channelAccess.inProgressFrames queueLength:max 0
scalar FragmentationShowcase.wifiHost2.wlan[0].mac.dcf.channelAccess.inProgressFrames queueLength:timeavg 0
scalar FragmentationShowcase.wifiHost2.wlan[0].mac.dcf.channelAccess.contention channelAccessGranted:count 0
scalar FragmentationShowcase.wifiHost2.wlan[0].mac.dcf.channelAccess.contention stateChanged:count 86488
scalar FragmentationShowcase.wifiHost2.wlan[0].mac.dcf.channelAccess channelOwnershipChanged:count 0
scalar FragmentationShowcase.wifiHost2.wlan[0].mac.dcf.originatorMacDataService packetAggregated:count 0
scalar FragmentationShowcase.wifiHost2.wlan[0].mac.dcf.originatorMacDataService packetFragmented:count 0
scalar FragmentationShowcase.wifiHost2.wlan[0].mac.dcf.recipientMacDataService packetDeaggregated:count 0
scalar FragmentationShowcase.wifiHost2.wlan[0].mac.dcf.recipientMacDataService packetDefragmented:count 0
scalar FragmentationShowcase.wifiHost2.wlan[0].mac.dcf.recipientMacDataService packetDropDuplicateDetected:count 0
scalar FragmentationShowcase.wifiHost2.wlan[0].mac.dcf.recipientMacDataService packetDropDuplicateDetected:sum(packetBytes) 0
scalar FragmentationShowcase.wifiHost2.wlan[0].mac.dcf.recoveryProcedure retryLimitReached:count 0
scalar FragmentationShowcase.wifiHost2.wlan[0].mac.dcf frameSequenceFinished:count 0
scalar FragmentationShowcase.wifiHost2.wlan[0].mac.dcf packetReceivedFromPeer:count 0
scalar FragmentationShowcase.wifiHost2.wlan[0].mac.dcf packetReceivedFromPeer:sum(packetBytes) 0
scalar FragmentationShowcase.wifiHost2.wlan[0].mac.dcf packetReceivedFromPeerUnicast:count 0
scalar FragmentationShowcase.wifiHost2.wlan[0].mac.dcf packetReceivedFromPeerUnicast:sum(packetBytes) 0
scalar FragmentationShowcase.wifiHost2.wlan[0].mac.dcf packetReceivedFromPeerMulticast:count 0
scalar FragmentationShowcase.wifiHost2.wlan[0].mac.dcf packetReceivedFromPeerMulticast:sum(packetBytes) 0
scalar FragmentationShowcase.wifiHost2.wlan[0].mac.dcf packetReceivedFromPeerBroadcast:count 0
scalar FragmentationShowcase.wifiHost2.wlan[0].mac.dcf packetReceivedFromPeerBroadcast:sum(packetBytes) 0
scalar FragmentationShowcase.wifiHost2.wlan[0].mac.dcf packetReceivedFromPeerWithRetry:count 0
scalar FragmentationShowcase.wifiHost2.wlan[0].mac.dcf packetReceivedFromPeerWithRetry:sum(packetBytes) 0
scalar FragmentationShowcase.wifiHost2.wlan[0].mac.dcf packetReceivedFromPeerWithoutRetry:count 0
scalar FragmentationShowcase.wifiHost2.wlan[0].mac.dcf packetReceivedFromPeerWithoutRetry:sum(packetBytes) 0
scalar FragmentationShowcase.wifiHost2.wlan[0].mac.dcf packetSentToPeer:count 0
scalar FragmentationShowcase.wifiHost2.wlan[0].mac.dcf packetSentToPeer:sum(packetBytes) 0
scalar FragmentationShowcase.wifiHost2.wlan[0].mac.dcf packetSentToPeerUnicast:count 0
scalar FragmentationShowcase.wifiHost2.wlan[0].mac.dcf packetSentToPeerUnicast:sum(packetBytes) 0
scalar FragmentationShowcase.wifiHost2.wlan[0].mac.dcf packetSentToPeerMulticast:count 0
scalar FragmentationShowcase.wifiHost2.wlan[0].mac.dcf packetSentToPeerMulticast:sum(packetBytes) 0
scalar FragmentationShowcase.wifiHost2.wlan[0].mac.dcf packetSentToPeerBroadcast:count 0
scalar FragmentationShowcase.wifiHost2.wlan[0].mac.dcf packetSentToPeerBroadcast:sum(packetBytes) 0
scalar FragmentationShowcase.wifiHost2.wlan[0].mac.dcf packetSentToPeerWithRetry:count 0
scalar FragmentationShowcase.wifiHost2.wlan[0].mac.dcf packetSentToPeerWithRetry:sum(packetBytes) 0
scalar FragmentationShowcase.wifiHost2.wlan[0].mac.dcf packetSentToPeerWithoutRetry:count 0
scalar FragmentationShowcase.wifiHost2.wlan[0].mac.dcf packetSentToPeerWithoutRetry:sum(packetBytes) 0
scalar FragmentationShowcase.wifiHost2.wlan[0].mac.dcf packetDrop:count 0
scalar FragmentationShowcase.wifiHost2.wlan[0].mac.dcf packetDrop:sum(packetBytes) 0
scalar FragmentationShowcase.wifiHost2.wlan[0].mac.dcf packetDropNotAddressedToUs:count 0
scalar FragmentationShowcase.wifiHost2.wlan[0].mac.dcf packetDropNotAddressedToUs:sum(packetBytes) 0
scalar FragmentationShowcase.wifiHost2.wlan[0].mac.dcf packetDropQueueOverflow:count 0
scalar FragmentationShowcase.wifiHost2.wlan[0].mac.dcf packetDropQueueOverflow:sum(packetBytes) 0
scalar FragmentationShowcase.wifiHost2.wlan[0].mac.dcf packetDropRetryLimitReached:count 0
scalar FragmentationShowcase.wifiHost2.wlan[0].mac.dcf packetDropRetryLimitReached:sum(packetBytes) 0
scalar FragmentationShowcase.wifiHost2.wlan[0].mac.dcf linkBroken:count 0
scalar FragmentationShowcase.wifiHost2.wlan[0].mac.hcf.edca.edcaf[0].pendingQueue queueLength:last 0
scalar FragmentationShowcase.wifiHost2.wlan[0].mac.hcf.edca.edcaf[0].pendingQueue queueLength:max 0
scalar FragmentationShowcase.wifiHost2.wlan[0].mac.hcf.edca.edcaf[0].pendingQueue queueLength:timeavg 0
scalar FragmentationShowcase.wifiHost2.wlan[0].mac.hcf.edca.edcaf[0].pendingQueue queueBitLength:last 0
scalar FragmentationShowcase.wifiHost2.wlan[0].mac.hcf.edca.edcaf[0].pendingQueue queueBitLength:max 0
scalar FragmentationShowcase.wifiHost2.wlan[0].mac.hcf.edca.edcaf[0].pendingQueue queueBitLength:timeavg 0
scalar FragmentationShowcase.wifiHost2.wlan[0].mac.hcf.edca.edcaf[0].pendingQueue outgoingPackets:count 0
scalar FragmentationShowcase.wifiHost2.wlan[0].mac.hcf.edca.edcaf[0].pendingQueue outgoingPacketLengths:sum 0
scalar FragmentationShowcase.wifiHost2.wlan[0].mac.hcf.edca.edcaf[0].pendingQueue incomingPackets:count 0
scalar FragmentationShowcase.wifiHost2.wlan[0].mac.hcf.edca.edcaf[0].pendingQueue incomingPacketLengths:sum 0
scalar FragmentationShowcase.wifiHost2.wlan[0].mac.hcf.edca.edcaf[0].pendingQueue droppedPacketsQueueOverflow:count 0
scalar FragmentationShowcase.wifiHost2.wlan[0].mac.hcf.edca.edcaf[0].pendingQueue droppedPacketLengthsQueueOverflow:sum 0
scalar FragmentationShowcase.wifiHost2.wlan[0].mac.hcf.edca.edcaf[0].inProgressFrames queueLength:max 0
scalar FragmentationShowcase.wifiHost2.wlan[0].mac.hcf.edca.edcaf[0].inProgressFrames queueLength:timeavg 0
scalar FragmentationShowcase.wifiHost2.wlan[0].mac.hcf.edca.edcaf[0].contention channelAccessGranted:count 0
scalar FragmentationShowcase.wifiHost2.wlan[0].mac.hcf.edca.edcaf[0].contention stateChanged:count 86488
scalar FragmentationShowcase.wifiHost2.wlan[0].mac.hcf.edca.edcaf[0].txopProcedure txopEnded:count 0
scalar FragmentationShowcase.wifiHost2.wlan[0].mac.hcf.edca.edcaf[0].recoveryProcedure retryLimitReached:count 0
scalar FragmentationShowcase.wifiHost2.wlan[0].mac.hcf.edca.edcaf[0] channelOwnershipChanged:count 0
scalar FragmentationShowcase.wifiHost2.wlan[0].mac.hcf.edca.edcaf[0] packetSentToPeer:count 0
scalar FragmentationShowcase.wifiHost2.wlan[0].mac.hcf.edca.edcaf[0] packetSentToPeer:sum(packetBytes) 0
scalar FragmentationShowcase.wifiHost2.wlan[0].mac.hcf.edca.edcaf[0] packetSentToPeerUnicast:count 0
scalar FragmentationShowcase.wifiHost2.wlan[0].mac.hcf.edca.edcaf[0] packetSentToPeerUnicast:sum(packetBytes) 0
scalar FragmentationShowcase.wifiHost2.wlan[0].mac.hcf.edca.edcaf[0] packetSentToPeerMulticast:count 0
scalar FragmentationShowcase.wifiHost2.wlan[0].mac.hcf.edca.edcaf[0] packetSentToPeerMulticast:sum(packetBytes) 0
scalar FragmentationShowcase.wifiHost2.wlan[0].mac.hcf.edca.edcaf[0] packetSentToPeerBroadcast:count 0
scalar FragmentationShowcase.wifiHost2.wlan[0].mac.hcf.edca.edcaf[0] packetSentToPeerBroadcast:sum(packetBytes) 0
scalar FragmentationShowcase.wifiHost2.wlan[0].mac.hcf.edca.edcaf[0] packetSentToPeerWithRetry:count 0
scalar FragmentationShowcase.wifiHost2.wlan[0].mac.hcf.edca.edcaf[0] packetSentToPeerWithRetry:sum(packetBytes) 0
scalar FragmentationShowcase.wifiHost2.wlan[0].mac.hcf.edca.edcaf[0] packetSentToPeerWithoutRetry:count 0
scalar FragmentationShowcase.wifiHost2.wlan[0].mac.hcf.edca.edcaf[0] packetSentToPeerWithoutRetry:sum(packetBytes) 0
scalar FragmentationShowcase.wifiHost2.wlan[0].mac.hcf.edca.edcaf[1].pendingQueue queueLength:last 0
scalar FragmentationShowcase.wifiHost2.wlan[0].mac.hcf.edca.edcaf[1].pendingQueue queueLength:max 0
scalar FragmentationShowcase.wifiHost2.wlan[0].mac.hcf.edca.edcaf[1].pendingQueue queueLength:timeavg 0
scalar FragmentationShowcase.wifiHost2.wlan[0].mac.hcf.edca.edcaf[1].pendingQueue queueBitLength:last 0
scalar FragmentationShowcase.wifiHost2.wlan[0].mac.hcf.edca.edcaf[1].pendingQueue queueBitLength:max 0
scalar FragmentationShowcase.wifiHost2.wlan[0].mac.hcf.edca.edcaf[1].pendingQueue queueBitLength:timeavg 0
scalar FragmentationShowcase.wifiHost2.wlan[0].mac.hcf.edca.edcaf[1].pendingQueue outgoingPackets:count 0
scalar FragmentationShowcase.wifiHost2.wlan[0].mac.hcf.edca.edcaf[1].pendingQueue outgoingPacketLengths:sum 0
scalar FragmentationShowcase.wifiHost2.wlan[0].mac.hcf.edca.edcaf[1].pendingQueue incomingPackets:count 0
scalar FragmentationShowcase.wifiHost2.wlan[0].mac.hcf.edca.edcaf[1].pendingQueue incomingPacketLengths:sum 0
scalar FragmentationShowcase.wifiHost2.wlan[0].mac.hcf.edca.edcaf[1].pendingQueue droppedPacketsQueueOverflow:count 0
scalar FragmentationShowcase.wifiHost2.wlan[0].mac.hcf.edca.edcaf[1].pendingQueue droppedPacketLengthsQueueOverflow:sum 0
scalar FragmentationShowcase.wifiHost2.wlan[0].mac.hcf.edca.edcaf[1].inProgressFrames queueLength:max 0
scalar FragmentationShowcase.wifiHost2.wlan[0].mac.hcf.edca.edcaf[1].inProgressFrames queueLength:timeavg 0
scalar FragmentationShowcase.wifiHost2.wlan[0].mac.hcf.edca.edcaf[1].contention channelAccessGranted:count 0
scalar FragmentationShowcase.wifiHost2.wlan[0].mac.hcf.edca.edcaf[1].contention stateChanged:count 86488
scalar FragmentationShowcase.wifiHost2.wlan[0].mac.hcf.edca.edcaf[1].txopProcedure txopEnded:count 0
scalar FragmentationShowcase.wifiHost2.wlan[0].mac.hcf.edca.edcaf[1].recoveryProcedure retryLimitReached:count 0
scalar FragmentationShowcase.wifiHost2.wlan[0].mac.hcf.edca.edcaf[1] channelOwnershipChanged:count 0
scalar FragmentationShowcase.wifiHost2.wlan[0].mac.hcf.edca.edcaf[1] packetSentToPeer:count 0
scalar FragmentationShowcase.wifiHost2.wlan[0].mac.hcf.edca.edcaf[1] packetSentToPeer:sum(packetBytes) 0
scalar FragmentationShowcase.wifiHost2.wlan[0].mac.hcf.edca.edcaf[1] packetSentToPeerUnicast:count 0
scalar FragmentationShowcase.wifiHost2.wlan[0].mac.hcf.edca.edcaf[1] packetSentToPeerUnicast:sum(packetBytes) 0
scalar FragmentationShowcase.wifiHost2.wlan[0].mac.hcf.edca.edcaf[1] packetSentToPeerMulticast:count 0
scalar FragmentationShowcase.wifiHost2.wlan[0].mac.hcf.edca.edcaf[1] packetSentToPeerMulticast:sum(packetBytes) 0
scalar FragmentationShowcase.wifiHost2.wlan[0].mac.hcf.edca.edcaf[1] packetSentToPeerBroadcast:count 0
scalar FragmentationShowcase.wifiHost2.wlan[0].mac.hcf.edca.edcaf[1] packetSentToPeerBroadcast:sum(packetBytes) 0
scalar FragmentationShowcase.wifiHost2.wlan[0].mac.hcf.edca.edcaf[1] packetSentToPeerWithRetry:count 0
scalar FragmentationShowcase.wifiHost2.wlan[0].mac.hcf.edca.edcaf[1] packetSentToPeerWithRetry:sum(packetBytes) 0
scalar FragmentationShowcase.wifiHost2.wlan[0].mac.hcf.edca.edcaf[1] packetSentToPeerWithoutRetry:count 0
scalar FragmentationShowcase.wifiHost2.wlan[0].mac.hcf.edca.edcaf[1] packetSentToPeerWithoutRetry:sum(packetBytes) 0
scalar FragmentationShowcase.wifiHost2.wlan[0].mac.hcf.edca.edcaf[2].pendingQueue queueLength:last 0
scalar FragmentationShowcase.wifiHost2.wlan[0].mac.hcf.edca.edcaf[2].pendingQueue queueLength:max 0
scalar FragmentationShowcase.wifiHost2.wlan[0].mac.hcf.edca.edcaf[2].pendingQueue queueLength:timeavg 0
scalar FragmentationShowcase.wifiHost2.wlan[0].mac.hcf.edca.edcaf[2].pendingQueue queueBitLength:last 0
scalar FragmentationShowcase.wifiHost2.wlan[0].mac.hcf.edca.edcaf[2].pendingQueue queueBitLength:max 0
scalar FragmentationShowcase.wifiHost2.wlan[0].mac.hcf.edca.edcaf[2].pendingQueue queueBitLength:timeavg 0
scalar FragmentationShowcase.wifiHost2.wlan[0].mac.hcf.edca.edcaf[2].pendingQueue outgoingPackets:count 0
scalar FragmentationShowcase.wifiHost2.wlan[0].mac.hcf.edca.edcaf[2].pendingQueue outgoingPacketLengths:sum 0
scalar FragmentationShowcase.wifiHost2.wlan[0].mac.hcf.edca.edcaf[2].pendingQueue incomingPackets:count 0
scalar FragmentationShowcase.wifiHost2.wlan[0].mac.hcf.edca.edcaf[2].pendingQueue incomingPacketLengths:sum 0
scalar FragmentationShowcase.wifiHost2.wlan[0].mac.hcf.edca.edcaf[2].pendingQueue droppedPacketsQueueOverflow:count 0
scalar FragmentationShowcase.wifiHost2.wlan[0].mac.hcf.edca.edcaf[2].pendingQueue droppedPacketLengthsQueueOverflow:sum 0
scalar FragmentationShowcase.wifiHost2.wlan[0].mac.hcf.edca.edcaf[2].inProgressFrames queueLength:max 0
scalar FragmentationShowcase.wifiHost2.wlan[0].mac.hcf.edca.edcaf[2].inProgressFrames queueLength:timeavg 0
scalar FragmentationShowcase.wifiHost2.wlan[0].mac.hcf.edca.edcaf[2].contention channelAccessGranted:count 0
scalar FragmentationShowcase.wifiHost2.wlan[0].mac.hcf.edca.edcaf[2].contention stateChanged:count 86488
scalar FragmentationShowcase.wifiHost2.wlan[0].mac.hcf.edca.edcaf[2].txopProcedure txopEnded:count 0
scalar FragmentationShowcase.wifiHost2.wlan[0].mac.hcf.edca.edcaf[2].recoveryProcedure retryLimitReached:count 0
scalar FragmentationShowcase.wifiHost2.wlan[0].mac.hcf.edca.edcaf[2] channelOwnershipChanged:count 0
scalar FragmentationShowcase.wifiHost2.wlan[0].mac.hcf.edca.edcaf[2] packetSentToPeer:count 0
scalar FragmentationShowcase.wifiHost2.wlan[0].mac.hcf.edca.edcaf[2] packetSentToPeer:sum(packetBytes) 0
scalar FragmentationShowcase.wifiHost2.wlan[0].mac.hcf.edca.edcaf[2] packetSentToPeerUnicast:count 0
scalar FragmentationShowcase.wifiHost2.wlan[0].mac.hcf.edca.edcaf[2] packetSentToPeerUnicast:sum(packetBytes) 0
scalar FragmentationShowcase.wifiHost2.wlan[0].mac.hcf.edca.edcaf[2] packetSentToPeerMulticast:count 0
scalar FragmentationShowcase.wifiHost2.wlan[0].mac.hcf.edca.edcaf[2] packetSentToPeerMulticast:sum(packetBytes) 0
scalar FragmentationShowcase.wifiHost2.wlan[0].mac.hcf.edca.edcaf[2] packetSentToPeerBroadcast:count 0
scalar FragmentationShowcase.wifiHost2.wlan[0].mac.hcf.edca.edcaf[2] packetSentToPeerBroadcast:sum(packetBytes) 0
scalar FragmentationShowcase.wifiHost2.wlan[0].mac.hcf.edca.edcaf[2] packetSentToPeerWithRetry:count 0
scalar FragmentationShowcase.wifiHost2.wlan[0].mac.hcf.edca.edcaf[2] packetSentToPeerWithRetry:sum(packetBytes) 0
scalar FragmentationShowcase.wifiHost2.wlan[0].mac.hcf.edca.edcaf[2] packetSentToPeerWithoutRetry:count 0
scalar FragmentationShowcase.wifiHost2.wlan[0].mac.hcf.edca.edcaf[2] packetSentToPeerWithoutRetry:sum(packetBytes) 0
scalar FragmentationShowcase.wifiHost2.wlan[0].mac.hcf.edca.edcaf[3].pendingQueue queueLength:last 0
scalar FragmentationShowcase.wifiHost2.wlan[0].mac.hcf.edca.edcaf[3].pendingQueue queueLength:max 0
scalar FragmentationShowcase.wifiHost2.wlan[0].mac.hcf.edca.edcaf[3].pendingQueue queueLength:timeavg 0
scalar FragmentationShowcase.wifiHost2.wlan[0].mac.hcf.edca.edcaf[3].pendingQueue queueBitLength:last 0
scalar FragmentationShowcase.wifiHost2.wlan[0].mac.hcf.edca.edcaf[3].pendingQueue queueBitLength:max 0
scalar FragmentationShowcase.wifiHost2.wlan[0].mac.hcf.edca.edcaf[3].pendingQueue queueBitLength:timeavg 0
scalar FragmentationShowcase.wifiHost2.wlan[0].mac.hcf.edca.edcaf[3].pendingQueue outgoingPackets:count 0
scalar FragmentationShowcase.wifiHost2.wlan[0].mac.hcf.edca.edcaf[3].pendingQueue outgoingPacketLengths:sum 0
scalar FragmentationShowcase.wifiHost2.wlan[0].mac.hcf.edca.edcaf[3].pendingQueue incomingPackets:count 0
scalar FragmentationShowcase.wifiHost2.wlan[0].mac.hcf.edca.edcaf[3].pendingQueue incomingPacketLengths:sum 0
scalar FragmentationShowcase.wifiHost2.wlan[0].mac.hcf.edca.edcaf[3].pendingQueue droppedPacketsQueueOverflow:count 0
scalar FragmentationShowcase.wifiHost2.wlan[0].mac.hcf.edca.edcaf[3].pendingQueue droppedPacketLengthsQueueOverflow:sum 0
scalar FragmentationShowcase.wifiHost2.wlan[0].mac.hcf.edca.edcaf[3].inProgressFrames queueLength:max 0
scalar FragmentationShowcase.wifiHost2.wlan[0].mac.hcf.edca.edcaf[3].inProgressFrames queueLength:timeavg 0
scalar FragmentationShowcase.wifiHost2.wlan[0].mac.hcf.edca.edcaf[3].contention channelAccessGranted:count 0
scalar FragmentationShowcase.wifiHost2.wlan[0].mac.hcf.edca.edcaf[3].contention stateChanged:count 86488
scalar FragmentationShowcase.wifiHost2.wlan[0].mac.hcf.edca.edcaf[3].txopProcedure txopEnded:count 0
scalar FragmentationShowcase.wifiHost2.wlan[0].mac.hcf.edca.edcaf[3].recoveryProcedure retryLimitReached:count 0
scalar FragmentationShowcase.wifiHost2.wlan[0].mac.hcf.edca.edcaf[3] channelOwnershipChanged:count 0
scalar FragmentationShowcase.wifiHost2.wlan[0].mac.hcf.edca.edcaf[3] packetSentToPeer:count 0
scalar FragmentationShowcase.wifiHost2.wlan[0].mac.hcf.edca.edcaf[3] packetSentToPeer:sum(packetBytes) 0
scalar FragmentationShowcase.wifiHost2.wlan[0].mac.hcf.edca.edcaf[3] packetSentToPeerUnicast:count 0
scalar FragmentationShowcase.wifiHost2.wlan[0].mac.hcf.edca.edcaf[3] packetSentToPeerUnicast:sum(packetBytes) 0
scalar FragmentationShowcase.wifiHost2.wlan[0].mac.hcf.edca.edcaf[3] packetSentToPeerMulticast:count 0
scalar FragmentationShowcase.wifiHost2.wlan[0].mac.hcf.edca.edcaf[3] packetSentToPeerMulticast:sum(packetBytes) 0
scalar FragmentationShowcase.wifiHost2.wlan[0].mac.hcf.edca.edcaf[3] packetSentToPeerBroadcast:count 0
scalar FragmentationShowcase.wifiHost2.wlan[0].mac.hcf.edca.edcaf[3] packetSentToPeerBroadcast:sum(packetBytes) 0
scalar FragmentationShowcase.wifiHost2.wlan[0].mac.hcf.edca.edcaf[3] packetSentToPeerWithRetry:count 0
scalar FragmentationShowcase.wifiHost2.wlan[0].mac.hcf.edca.edcaf[3] packetSentToPeerWithRetry:sum(packetBytes) 0
scalar FragmentationShowcase.wifiHost2.wlan[0].mac.hcf.edca.edcaf[3] packetSentToPeerWithoutRetry:count 0
scalar FragmentationShowcase.wifiHost2.wlan[0].mac.hcf.edca.edcaf[3] packetSentToPeerWithoutRetry:sum(packetBytes) 0
scalar FragmentationShowcase.wifiHost2.wlan[0].mac.hcf.edca.mgmtAndNonQoSRecoveryProcedure retryLimitReached:count 0
scalar FragmentationShowcase.wifiHost2.wlan[0].mac.hcf.originatorMacDataService packetAggregated:count 0
scalar FragmentationShowcase.wifiHost2.wlan[0].mac.hcf.originatorMacDataService packetFragmented:count 0
scalar FragmentationShowcase.wifiHost2.wlan[0].mac.hcf.recipientMacDataService packetDeaggregated:count 0
scalar FragmentationShowcase.wifiHost2.wlan[0].mac.hcf.recipientMacDataService packetDefragmented:count 1903
scalar FragmentationShowcase.wifiHost2.wlan[0].mac.hcf.recipientMacDataService packetDropDuplicateDetected:count 764
scalar FragmentationShowcase.wifiHost2.wlan[0].mac.hcf.recipientMacDataService packetDropDuplicateDetected:sum(packetBytes) 176568
scalar FragmentationShowcase.wifiHost2.wlan[0].mac.hcf blockAckAgreementDeleted:count 0
scalar FragmentationShowcase.wifiHost2.wlan[0].mac.hcf blockAckAgreementAdded:count 0
scalar FragmentationShowcase.wifiHost2.wlan[0].mac.hcf edcaCollisionDetected:count 0
scalar FragmentationShowcase.wifiHost2.wlan[0].mac.hcf frameSequenceFinished:count 0
scalar FragmentationShowcase.wifiHost2.wlan[0].mac.hcf packetReceivedFromPeerUnicast:count 19891
scalar FragmentationShowcase.wifiHost2.wlan[0].mac.hcf packetReceivedFromPeerUnicast:sum(packetBytes) 4644586
scalar FragmentationShowcase.wifiHost2.wlan[0].mac.hcf packetReceivedFromPeerMulticast:count 0
scalar FragmentationShowcase.wifiHost2.wlan[0].mac.hcf packetReceivedFromPeerMulticast:sum(packetBytes) 0
scalar FragmentationShowcase.wifiHost2.wlan[0].mac.hcf packetReceivedFromPeerBroadcast:count 0
scalar FragmentationShowcase.wifiHost2.wlan[0].mac.hcf packetReceivedFromPeerBroadcast:sum(packetBytes) 0
scalar FragmentationShowcase.wifiHost2.wlan[0].mac.hcf packetReceivedFromPeerWithRetry:count 6811
scalar FragmentationShowcase.wifiHost2.wlan[0].mac.hcf packetReceivedFromPeerWithRetry:sum(packetBytes) 1647154
scalar FragmentationShowcase.wifiHost2.wlan[0].mac.hcf packetReceivedFromPeerWithoutRetry:count 13080
scalar FragmentationShowcase.wifiHost2.wlan[0].mac.hcf packetReceivedFromPeerWithoutRetry:sum(packetBytes) 2997432
scalar FragmentationShowcase.wifiHost2.wlan[0].mac.hcf packetSentToPeer:count 19891
scalar FragmentationShowcase.wifiHost2.wlan[0].mac.hcf packetSentToPeer:sum(packetBytes) 278474
scalar FragmentationShowcase.wifiHost2.wlan[0].mac.hcf packetSentToPeerUnicast:count 19891
scalar FragmentationShowcase.wifiHost2.wlan[0].mac.hcf packetSentToPeerUnicast:sum(packetBytes) 278474
scalar FragmentationShowcase.wifiHost2.wlan[0].mac.hcf packetSentToPeerMulticast:count 0
scalar FragmentationShowcase.wifiHost2.wlan[0].mac.hcf packetSentToPeerMulticast:sum(packetBytes) 0
scalar FragmentationShowcase.wifiHost2.wlan[0].mac.hcf packetSentToPeerBroadcast:count 0
scalar FragmentationShowcase.wifiHost2.wlan[0].mac.hcf packetSentToPeerBroadcast:sum(packetBytes) 0
scalar FragmentationShowcase.wifiHost2.wlan[0].mac.hcf packetSentToPeerWithRetry:count 0
scalar FragmentationShowcase.wifiHost2.wlan[0].mac.hcf packetSentToPeerWithRetry:sum(packetBytes) 0
scalar FragmentationShowcase.wifiHost2.wlan[0].mac.hcf packetSentToPeerWithoutRetry:count 19891
scalar FragmentationShowcase.wifiHost2.wlan[0].mac.hcf packetSentToPeerWithoutRetry:sum(packetBytes) 278474
scalar FragmentationShowcase.wifiHost2.wlan[0].mac.hcf packetDrop:count 764
scalar FragmentationShowcase.wifiHost2.wlan[0].mac.hcf packetDrop:sum(packetBytes) 176568
scalar FragmentationShowcase.wifiHost2.wlan[0].mac.hcf packetDropNotAddressedToUs:count 0
scalar FragmentationShowcase.wifiHost2.wlan[0].mac.hcf packetDropNotAddressedToUs:sum(packetBytes) 0
scalar FragmentationShowcase.wifiHost2.wlan[0].mac.hcf packetDropQueueOverflow:count 0
scalar FragmentationShowcase.wifiHost2.wlan[0].mac.hcf packetDropQueueOverflow:sum(packetBytes) 0
scalar FragmentationShowcase.wifiHost2.wlan[0].mac.hcf packetDropRetryLimitReached:count 0
scalar FragmentationShowcase.wifiHost2.wlan[0].mac.hcf packetDropRetryLimitReached:sum(packetBytes) 0
scalar FragmentationShowcase.wifiHost2.wlan[0].mac.hcf linkBroken:count 0
scalar FragmentationShowcase.wifiHost2.wlan[0].mac packetReceivedFromLower:count 29248
scalar FragmentationShowcase.wifiHost2.wlan[0].mac packetReceivedFromLower:sum(packetBytes) 6933324
scalar FragmentationShowcase.wifiHost2.wlan[0].mac packetSentToLower:count 19891
scalar FragmentationShowcase.wifiHost2.wlan[0].mac packetSentToLower:sum(packetBytes) 278474
scalar FragmentationShowcase.wifiHost2.wlan[0].mac packetReceivedFromUpper:count 0
scalar FragmentationShowcase.wifiHost2.wlan[0].mac packetReceivedFromUpper:sum(packetBytes) 0
scalar FragmentationShowcase.wifiHost2.wlan[0].mac packetSentToUpper:count 1903
scalar FragmentationShowcase.wifiHost2.wlan[0].mac packetSentToUpper:sum(packetBytes) 3874508
scalar FragmentationShowcase.wifiHost2.wlan[0].mac packetDrop:count 10121
scalar FragmentationShowcase.wifiHost2.wlan[0].mac packetDrop:sum(packetBytes) 2465306
scalar FragmentationShowcase.wifiHost2.wlan[0].mac packetDropIncorrectlyReceived:count 9357
scalar FragmentationShowcase.wifiHost2.wlan[0].mac packetDropIncorrectlyReceived:sum(packetBytes) 2288738
scalar FragmentationShowcase.wifiHost2.wlan[0].mac packetDropNotAddressedToUs:count 0
scalar FragmentationShowcase.wifiHost2.wlan[0].mac packetDropNotAddressedToUs:sum(packetBytes) 0
scalar FragmentationShowcase.wifiHost2.wlan[0].mac packetDropQueueOverflow:count 0
scalar FragmentationShowcase.wifiHost2.wlan[0].mac packetDropQueueOverflow:sum(packetBytes) 0
scalar FragmentationShowcase.wifiHost2.wlan[0].mac packetDropRetryLimitReached:count 0
scalar FragmentationShowcase.wifiHost2.wlan[0].mac packetDropRetryLimitReached:sum(packetBytes) 0
scalar FragmentationShowcase.wifiHost2.wlan[0].mac packetDropDuplicateDetected:count 764
scalar FragmentationShowcase.wifiHost2.wlan[0].mac packetDropDuplicateDetected:sum(packetBytes) 176568
scalar FragmentationShowcase.wifiHost2.wlan[0].mac packetDropOther:count 0
scalar FragmentationShowcase.wifiHost2.wlan[0].mac packetDropOther:sum(packetBytes) 0
scalar FragmentationShowcase.wifiHost2.wlan[0].mac linkBroken:count 0
scalar FragmentationShowcase.wifiHost2.wlan[0].radio radioMode:count 39785
scalar FragmentationShowcase.wifiHost2.wlan[0].radio receptionState:count 98279
scalar FragmentationShowcase.wifiHost2.wlan[0].radio transmissionState:count 79564
scalar FragmentationShowcase.wifiHost2.wlan[0] packetDropInterfaceDown:count 0
scalar FragmentationShowcase.wifiHost2.wlan[0] packetDropInterfaceDown:sum(packetBytes) 0
scalar FragmentationShowcase.wifiHost2.wlan[0] packetDropNoCarrier:count 0
scalar FragmentationShowcase.wifiHost2.wlan[0] packetDropNoCarrier:sum(packetBytes) 0
scalar FragmentationShowcase.wifiHost2.ipv4.ip packetDropAddressResolutionFailed:count 0
scalar FragmentationShowcase.wifiHost2.ipv4.ip packetDropAddressResolutionFailed:sum(packetBytes) 0
scalar FragmentationShowcase.wifiHost2.ipv4.ip packetDropHopLimitReached:count 0
scalar FragmentationShowcase.wifiHost2.ipv4.ip packetDropHopLimitReached:sum(packetBytes) 0
scalar FragmentationShowcase.wifiHost2.ipv4.ip packetDropForwardingDisabled:count 0
scalar FragmentationShowcase.wifiHost2.ipv4.ip packetDropForwardingDisabled:sum(packetBytes) 0
scalar FragmentationShowcase.wifiHost2.ipv4.ip packetDropLifetimeExpired:count 0
scalar FragmentationShowcase.wifiHost2.ipv4.ip packetDropLifetimeExpired:sum(packetBytes) 0
scalar FragmentationShowcase.wifiHost2.ipv4.ip packetDropNoInterfaceFound:count 0
scalar FragmentationShowcase.wifiHost2.ipv4.ip packetDropNoInterfaceFound:sum(packetBytes) 0
scalar FragmentationShowcase.wifiHost2.ipv4.ip packetDropNoRouteFound:count 0
scalar FragmentationShowcase.wifiHost2.ipv4.ip packetDropNoRouteFound:sum(packetBytes) 0
scalar FragmentationShowcase.wifiHost2.ipv4.ip packetDropUndefined:count 0
scalar FragmentationShowcase.wifiHost2.ipv4.ip packetDropUndefined:sum(packetBytes) 0
scalar FragmentationShowcase.wifiHost2.udp packetReceived:count 1903
scalar FragmentationShowcase.wifiHost2.udp packetReceived:sum(packetBytes) 3821224
scalar FragmentationShowcase.wifiHost2.udp packetSent:count 0
scalar FragmentationShowcase.wifiHost2.udp packetSent:sum(packetBytes) 0
scalar FragmentationShowcase.wifiHost2.udp passedUpPk:count 1903
scalar FragmentationShowcase.wifiHost2.udp droppedPkWrongPort:count 0
scalar FragmentationShowcase.wifiHost2.udp droppedPkBadChecksum:count 0
scalar FragmentationShowcase.wifiHost2.app[0] packetReceived:count 1903
scalar FragmentationShowcase.wifiHost2.app[0] packetReceived:sum(packetBytes) 3806000
scalar FragmentationShowcase.radioMedium.propagation "Arrival computation count" 49139
scalar FragmentationShowcase.radioMedium "transmission count" 49139
scalar FragmentationShowcase.radioMedium "signal send count" 49139
scalar FragmentationShowcase.radioMedium "reception computation count" 49139
scalar FragmentationShowcase.radioMedium "interference computation count" 196560
scalar FragmentationShowcase.radioMedium "reception decision computation count" 49139
scalar FragmentationShowcase.radioMedium "listening decision computation count" 98282
scalar FragmentationShowcase.radioMedium "reception cache hit" 85.714285714285708
scalar FragmentationShowcase.radioMedium "interference cache hit" 66.666666666666671
scalar FragmentationShowcase.radioMedium "noise cache hit" 0
scalar FragmentationShowcase.radioMedium "snir cache hit" 50
scalar FragmentationShowcase.radioMedium "reception decision cache hit" 50
scalar FragmentationShowcase.radioMedium "reception result cache hit" 0
scalar FragmentationShowcase.wifiHost1.app[0] rcvdPkLifetime:stats:count 0
scalar FragmentationShowcase.wifiHost1.app[0] rcvdPkLifetime:stats:sumweights 0
scalar FragmentationShowcase.wifiHost1.app[0] rcvdPkLifetime:stats:mean -nan
scalar FragmentationShowcase.wifiHost1.app[0] rcvdPkLifetime:stats:stddev nan
scalar FragmentationShowcase.wifiHost1.app[0] rcvdPkLifetime:stats:min nan
scalar FragmentationShowcase.wifiHost1.app[0] rcvdPkLifetime:stats:max nan
scalar FragmentationShowcase.wifiHost1.app[0] rcvdPkLifetime:stats:numbins 0
scalar FragmentationShowcase.wifiHost1.wlan[0].mac.dcf.channelAccess.pendingQueue queueingTime:histogram:count 0
scalar FragmentationShowcase.wifiHost1.wlan[0].mac.dcf.channelAccess.pendingQueue queueingTime:histogram:sumweights 0
scalar FragmentationShowcase.wifiHost1.wlan[0].mac.dcf.channelAccess.pendingQueue queueingTime:histogram:mean -nan
scalar FragmentationShowcase.wifiHost1.wlan[0].mac.dcf.channelAccess.pendingQueue queueingTime:histogram:stddev nan
scalar FragmentationShowcase.wifiHost1.wlan[0].mac.dcf.channelAccess.pendingQueue queueingTime:histogram:min nan
scalar FragmentationShowcase.wifiHost1.wlan[0].mac.dcf.channelAccess.pendingQueue queueingTime:histogram:max nan
scalar FragmentationShowcase.wifiHost1.wlan[0].mac.dcf.channelAccess.pendingQueue queueingTime:histogram:numbins 1
scalar FragmentationShowcase.wifiHost1.wlan[0].mac.dcf.channelAccess.pendingQueue queueingTime:histogram:rangemin 0
scalar FragmentationShowcase.wifiHost1.wlan[0].mac.dcf.channelAccess.pendingQueue queueingTime:histogram:rangemax 1
scalar FragmentationShowcase.wifiHost1.wlan[0].mac.dcf.channelAccess.pendingQueue queueingTime:histogram:underflows 0
scalar FragmentationShowcase.wifiHost1.wlan[0].mac.dcf.channelAccess.pendingQueue queueingTime:histogram:overflows 0
scalar FragmentationShowcase.wifiHost1.wlan[0].mac.dcf.channelAccess.pendingQueue outgoingPacketLengths:histogram:count 0
scalar FragmentationShowcase.wifiHost1.wlan[0].mac.dcf.channelAccess.pendingQueue outgoingPacketLengths:histogram:sumweights 0
scalar FragmentationShowcase.wifiHost1.wlan[0].mac.dcf.channelAccess.pendingQueue outgoingPacketLengths:histogram:mean -nan
scalar FragmentationShowcase.wifiHost1.wlan[0].mac.dcf.channelAccess.pendingQueue outgoingPacketLengths:histogram:stddev nan
scalar FragmentationShowcase.wifiHost1.wlan[0].mac.dcf.channelAccess.pendingQueue outgoingPacketLengths:histogram:min nan
scalar FragmentationShowcase.wifiHost1.wlan[0].mac.dcf.channelAccess.pendingQueue outgoingPacketLengths:histogram:max nan
scalar FragmentationShowcase.wifiHost1.wlan[0].mac.dcf.channelAccess.pendingQueue outgoingPacketLengths:histogram:numbins 1
scalar FragmentationShowcase.wifiHost1.wlan[0].mac.dcf.channelAccess.pendingQueue outgoingPacketLengths:histogram:rangemin 0
scalar FragmentationShowcase.wifiHost1.wlan[0].mac.dcf.channelAccess.pendingQueue outgoingPacketLengths:histogram:rangemax 1
scalar FragmentationShowcase.wifiHost1.wlan[0].mac.dcf.channelAccess.pendingQueue outgoingPacketLengths:histogram:underflows 0
scalar FragmentationShowcase.wifiHost1.wlan[0].mac.dcf.channelAccess.pendingQueue outgoingPacketLengths:histogram:overflows 0
scalar FragmentationShowcase.wifiHost1.wlan[0].mac.dcf.channelAccess.pendingQueue flowQueueingTime:histogram:count 0
scalar FragmentationShowcase.wifiHost1.wlan[0].mac.dcf.channelAccess.pendingQueue flowQueueingTime:histogram:sumweights 0
scalar FragmentationShowcase.wifiHost1.wlan[0].mac.dcf.channelAccess.pendingQueue flowQueueingTime:histogram:mean -nan
scalar FragmentationShowcase.wifiHost1.wlan[0].mac.dcf.channelAccess.pendingQueue flowQueueingTime:histogram:stddev nan
scalar FragmentationShowcase.wifiHost1.wlan[0].mac.dcf.channelAccess.pendingQueue flowQueueingTime:histogram:min nan
scalar FragmentationShowcase.wifiHost1.wlan[0].mac.dcf.channelAccess.pendingQueue flowQueueingTime:histogram:max nan
scalar FragmentationShowcase.wifiHost1.wlan[0].mac.dcf.channelAccess.pendingQueue flowQueueingTime:histogram:numbins 1
scalar FragmentationShowcase.wifiHost1.wlan[0].mac.dcf.channelAccess.pendingQueue flowQueueingTime:histogram:rangemin 0
scalar FragmentationShowcase.wifiHost1.wlan[0].mac.dcf.channelAccess.pendingQueue flowQueueingTime:histogram:rangemax 1
scalar FragmentationShowcase.wifiHost1.wlan[0].mac.dcf.channelAccess.pendingQueue flowQueueingTime:histogram:underflows 0
scalar FragmentationShowcase.wifiHost1.wlan[0].mac.dcf.channelAccess.pendingQueue flowQueueingTime:histogram:overflows 0
scalar FragmentationShowcase.wifiHost1.wlan[0].mac.dcf.channelAccess.pendingQueue incomingPacketLengths:histogram:count 0
scalar FragmentationShowcase.wifiHost1.wlan[0].mac.dcf.channelAccess.pendingQueue incomingPacketLengths:histogram:sumweights 0
scalar FragmentationShowcase.wifiHost1.wlan[0].mac.dcf.channelAccess.pendingQueue incomingPacketLengths:histogram:mean -nan
scalar FragmentationShowcase.wifiHost1.wlan[0].mac.dcf.channelAccess.pendingQueue incomingPacketLengths:histogram:stddev nan
scalar FragmentationShowcase.wifiHost1.wlan[0].mac.dcf.channelAccess.pendingQueue incomingPacketLengths:histogram:min nan
scalar FragmentationShowcase.wifiHost1.wlan[0].mac.dcf.channelAccess.pendingQueue incomingPacketLengths:histogram:max nan
scalar FragmentationShowcase.wifiHost1.wlan[0].mac.dcf.channelAccess.pendingQueue incomingPacketLengths:histogram:numbins 1
scalar FragmentationShowcase.wifiHost1.wlan[0].mac.dcf.channelAccess.pendingQueue incomingPacketLengths:histogram:rangemin 0
scalar FragmentationShowcase.wifiHost1.wlan[0].mac.dcf.channelAccess.pendingQueue incomingPacketLengths:histogram:rangemax 1
scalar FragmentationShowcase.wifiHost1.wlan[0].mac.dcf.channelAccess.pendingQueue incomingPacketLengths:histogram:underflows 0
scalar FragmentationShowcase.wifiHost1.wlan[0].mac.dcf.channelAccess.pendingQueue incomingPacketLengths:histogram:overflows 0
scalar FragmentationShowcase.wifiHost1.wlan[0].mac.dcf.channelAccess.inProgressFrames queueingTime:histogram:count 0
scalar FragmentationShowcase.wifiHost1.wlan[0].mac.dcf.channelAccess.inProgressFrames queueingTime:histogram:sumweights 0
scalar FragmentationShowcase.wifiHost1.wlan[0].mac.dcf.channelAccess.inProgressFrames queueingTime:histogram:mean -nan
scalar FragmentationShowcase.wifiHost1.wlan[0].mac.dcf.channelAccess.inProgressFrames queueingTime:histogram:stddev nan
scalar FragmentationShowcase.wifiHost1.wlan[0].mac.dcf.channelAccess.inProgressFrames queueingTime:histogram:min nan
scalar FragmentationShowcase.wifiHost1.wlan[0].mac.dcf.channelAccess.inProgressFrames queueingTime:histogram:max nan
scalar FragmentationShowcase.wifiHost1.wlan[0].mac.dcf.channelAccess.inProgressFrames queueingTime:histogram:numbins 1
scalar FragmentationShowcase.wifiHost1.wlan[0].mac.dcf.channelAccess.inProgressFrames queueingTime:histogram:rangemin 0
scalar FragmentationShowcase.wifiHost1.wlan[0].mac.dcf.channelAccess.inProgressFrames queueingTime:histogram:rangemax 1
scalar FragmentationShowcase.wifiHost1.wlan[0].mac.dcf.channelAccess.inProgressFrames queueingTime:histogram:underflows 0
scalar FragmentationShowcase.wifiHost1.wlan[0].mac.dcf.channelAccess.inProgressFrames queueingTime:histogram:overflows 0
scalar FragmentationShowcase.wifiHost1.wlan[0].mac.dcf frameSequenceDuration:histogram:count 0
scalar FragmentationShowcase.wifiHost1.wlan[0].mac.dcf frameSequenceDuration:histogram:sumweights 0
scalar FragmentationShowcase.wifiHost1.wlan[0].mac.dcf frameSequenceDuration:histogram:mean -nan
scalar FragmentationShowcase.wifiHost1.wlan[0].mac.dcf frameSequenceDuration:histogram:stddev nan
scalar FragmentationShowcase.wifiHost1.wlan[0].mac.dcf frameSequenceDuration:histogram:min nan
scalar FragmentationShowcase.wifiHost1.wlan[0].mac.dcf frameSequenceDuration:histogram:max nan
scalar FragmentationShowcase.wifiHost1.wlan[0].mac.dcf frameSequenceDuration:histogram:numbins 1
scalar FragmentationShowcase.wifiHost1.wlan[0].mac.dcf frameSequenceDuration:histogram:rangemin 0
scalar FragmentationShowcase.wifiHost1.wlan[0].mac.dcf frameSequenceDuration:histogram:rangemax 1
scalar FragmentationShowcase.wifiHost1.wlan[0].mac.dcf frameSequenceDuration:histogram:underflows 0
scalar FragmentationShowcase.wifiHost1.wlan[0].mac.dcf frameSequenceDuration:histogram:overflows 0
scalar FragmentationShowcase.wifiHost1.wlan[0].mac.dcf frameSequenceNumPackets:histogram:count 0
scalar FragmentationShowcase.wifiHost1.wlan[0].mac.dcf frameSequenceNumPackets:histogram:sumweights 0
scalar FragmentationShowcase.wifiHost1.wlan[0].mac.dcf frameSequenceNumPackets:histogram:mean -nan
scalar FragmentationShowcase.wifiHost1.wlan[0].mac.dcf frameSequenceNumPackets:histogram:stddev nan
scalar FragmentationShowcase.wifiHost1.wlan[0].mac.dcf frameSequenceNumPackets:histogram:min nan
scalar FragmentationShowcase.wifiHost1.wlan[0].mac.dcf frameSequenceNumPackets:histogram:max nan
scalar FragmentationShowcase.wifiHost1.wlan[0].mac.dcf frameSequenceNumPackets:histogram:numbins 1
scalar FragmentationShowcase.wifiHost1.wlan[0].mac.dcf frameSequenceNumPackets:histogram:rangemin 0
scalar FragmentationShowcase.wifiHost1.wlan[0].mac.dcf frameSequenceNumPackets:histogram:rangemax 1
scalar FragmentationShowcase.wifiHost1.wlan[0].mac.dcf frameSequenceNumPackets:histogram:underflows 0
scalar FragmentationShowcase.wifiHost1.wlan[0].mac.dcf frameSequenceNumPackets:histogram:overflows 0
scalar FragmentationShowcase.wifiHost1.wlan[0].mac.hcf.edca.edcaf[0].pendingQueue queueingTime:histogram:count 0
scalar FragmentationShowcase.wifiHost1.wlan[0].mac.hcf.edca.edcaf[0].pendingQueue queueingTime:histogram:sumweights 0
scalar FragmentationShowcase.wifiHost1.wlan[0].mac.hcf.edca.edcaf[0].pendingQueue queueingTime:histogram:mean -nan
scalar FragmentationShowcase.wifiHost1.wlan[0].mac.hcf.edca.edcaf[0].pendingQueue queueingTime:histogram:stddev nan
scalar FragmentationShowcase.wifiHost1.wlan[0].mac.hcf.edca.edcaf[0].pendingQueue queueingTime:histogram:min nan
scalar FragmentationShowcase.wifiHost1.wlan[0].mac.hcf.edca.edcaf[0].pendingQueue queueingTime:histogram:max nan
scalar FragmentationShowcase.wifiHost1.wlan[0].mac.hcf.edca.edcaf[0].pendingQueue queueingTime:histogram:numbins 1
scalar FragmentationShowcase.wifiHost1.wlan[0].mac.hcf.edca.edcaf[0].pendingQueue queueingTime:histogram:rangemin 0
scalar FragmentationShowcase.wifiHost1.wlan[0].mac.hcf.edca.edcaf[0].pendingQueue queueingTime:histogram:rangemax 1
scalar FragmentationShowcase.wifiHost1.wlan[0].mac.hcf.edca.edcaf[0].pendingQueue queueingTime:histogram:underflows 0
scalar FragmentationShowcase.wifiHost1.wlan[0].mac.hcf.edca.edcaf[0].pendingQueue queueingTime:histogram:overflows 0
scalar FragmentationShowcase.wifiHost1.wlan[0].mac.hcf.edca.edcaf[0].pendingQueue outgoingPacketLengths:histogram:count 0
scalar FragmentationShowcase.wifiHost1.wlan[0].mac.hcf.edca.edcaf[0].pendingQueue outgoingPacketLengths:histogram:sumweights 0
scalar FragmentationShowcase.wifiHost1.wlan[0].mac.hcf.edca.edcaf[0].pendingQueue outgoingPacketLengths:histogram:mean -nan
scalar FragmentationShowcase.wifiHost1.wlan[0].mac.hcf.edca.edcaf[0].pendingQueue outgoingPacketLengths:histogram:stddev nan
scalar FragmentationShowcase.wifiHost1.wlan[0].mac.hcf.edca.edcaf[0].pendingQueue outgoingPacketLengths:histogram:min nan
scalar FragmentationShowcase.wifiHost1.wlan[0].mac.hcf.edca.edcaf[0].pendingQueue outgoingPacketLengths:histogram:max nan
scalar FragmentationShowcase.wifiHost1.wlan[0].mac.hcf.edca.edcaf[0].pendingQueue outgoingPacketLengths:histogram:numbins 1
scalar FragmentationShowcase.wifiHost1.wlan[0].mac.hcf.edca.edcaf[0].pendingQueue outgoingPacketLengths:histogram:rangemin 0
scalar FragmentationShowcase.wifiHost1.wlan[0].mac.hcf.edca.edcaf[0].pendingQueue outgoingPacketLengths:histogram:rangemax 1
scalar FragmentationShowcase.wifiHost1.wlan[0].mac.hcf.edca.edcaf[0].pendingQueue outgoingPacketLengths:histogram:underflows 0
scalar FragmentationShowcase.wifiHost1.wlan[0].mac.hcf.edca.edcaf[0].pendingQueue outgoingPacketLengths:histogram:overflows 0
scalar FragmentationShowcase.wifiHost1.wlan[0].mac.hcf.edca.edcaf[0].pendingQueue flowQueueingTime:histogram:count 0
scalar FragmentationShowcase.wifiHost1.wlan[0].mac.hcf.edca.edcaf[0].pendingQueue flowQueueingTime:histogram:sumweights 0
scalar FragmentationShowcase.wifiHost1.wlan[0].mac.hcf.edca.edcaf[0].pendingQueue flowQueueingTime:histogram:mean -nan
scalar FragmentationShowcase.wifiHost1.wlan[0].mac.hcf.edca.edcaf[0].pendingQueue flowQueueingTime:histogram:stddev nan
scalar FragmentationShowcase.wifiHost1.wlan[0].mac.hcf.edca.edcaf[0].pendingQueue flowQueueingTime:histogram:min nan
scalar FragmentationShowcase.wifiHost1.wlan[0].mac.hcf.edca.edcaf[0].pendingQueue flowQueueingTime:histogram:max nan
scalar FragmentationShowcase.wifiHost1.wlan[0].mac.hcf.edca.edcaf[0].pendingQueue flowQueueingTime:histogram:numbins 1
scalar FragmentationShowcase.wifiHost1.wlan[0].mac.hcf.edca.edcaf[0].pendingQueue flowQueueingTime:histogram:rangemin 0
scalar FragmentationShowcase.wifiHost1.wlan[0].mac.hcf.edca.edcaf[0].pendingQueue flowQueueingTime:histogram:rangemax 1
scalar FragmentationShowcase.wifiHost1.wlan[0].mac.hcf.edca.edcaf[0].pendingQueue flowQueueingTime:histogram:underflows 0
scalar FragmentationShowcase.wifiHost1.wlan[0].mac.hcf.edca.edcaf[0].pendingQueue flowQueueingTime:histogram:overflows 0
scalar FragmentationShowcase.wifiHost1.wlan[0].mac.hcf.edca.edcaf[0].pendingQueue incomingPacketLengths:histogram:count 0
scalar FragmentationShowcase.wifiHost1.wlan[0].mac.hcf.edca.edcaf[0].pendingQueue incomingPacketLengths:histogram:sumweights 0
scalar FragmentationShowcase.wifiHost1.wlan[0].mac.hcf.edca.edcaf[0].pendingQueue incomingPacketLengths:histogram:mean -nan
scalar FragmentationShowcase.wifiHost1.wlan[0].mac.hcf.edca.edcaf[0].pendingQueue incomingPacketLengths:histogram:stddev nan
scalar FragmentationShowcase.wifiHost1.wlan[0].mac.hcf.edca.edcaf[0].pendingQueue incomingPacketLengths:histogram:min nan
scalar FragmentationShowcase.wifiHost1.wlan[0].mac.hcf.edca.edcaf[0].pendingQueue incomingPacketLengths:histogram:max nan
scalar FragmentationShowcase.wifiHost1.wlan[0].mac.hcf.edca.edcaf[0].pendingQueue incomingPacketLengths:histogram:numbins 1
scalar FragmentationShowcase.wifiHost1.wlan[0].mac.hcf.edca.edcaf[0].pendingQueue incomingPacketLengths:histogram:rangemin 0
scalar FragmentationShowcase.wifiHost1.wlan[0].mac.hcf.edca.edcaf[0].pendingQueue incomingPacketLengths:histogram:rangemax 1
scalar FragmentationShowcase.wifiHost1.wlan[0].mac.hcf.edca.edcaf[0].pendingQueue incomingPacketLengths:histogram:underflows 0
scalar FragmentationShowcase.wifiHost1.wlan[0].mac.hcf.edca.edcaf[0].pendingQueue incomingPacketLengths:histogram:overflows 0
scalar FragmentationShowcase.wifiHost1.wlan[0].mac.hcf.edca.edcaf[0].inProgressFrames queueingTime:histogram:count 0
scalar FragmentationShowcase.wifiHost1.wlan[0].mac.hcf.edca.edcaf[0].inProgressFrames queueingTime:histogram:sumweights 0
scalar FragmentationShowcase.wifiHost1.wlan[0].mac.hcf.edca.edcaf[0].inProgressFrames queueingTime:histogram:mean -nan
scalar FragmentationShowcase.wifiHost1.wlan[0].mac.hcf.edca.edcaf[0].inProgressFrames queueingTime:histogram:stddev nan
scalar FragmentationShowcase.wifiHost1.wlan[0].mac.hcf.edca.edcaf[0].inProgressFrames queueingTime:histogram:min nan
scalar FragmentationShowcase.wifiHost1.wlan[0].mac.hcf.edca.edcaf[0].inProgressFrames queueingTime:histogram:max nan
scalar FragmentationShowcase.wifiHost1.wlan[0].mac.hcf.edca.edcaf[0].inProgressFrames queueingTime:histogram:numbins 1
scalar FragmentationShowcase.wifiHost1.wlan[0].mac.hcf.edca.edcaf[0].inProgressFrames queueingTime:histogram:rangemin 0
scalar FragmentationShowcase.wifiHost1.wlan[0].mac.hcf.edca.edcaf[0].inProgressFrames queueingTime:histogram:rangemax 1
scalar FragmentationShowcase.wifiHost1.wlan[0].mac.hcf.edca.edcaf[0].inProgressFrames queueingTime:histogram:underflows 0
scalar FragmentationShowcase.wifiHost1.wlan[0].mac.hcf.edca.edcaf[0].inProgressFrames queueingTime:histogram:overflows 0
scalar FragmentationShowcase.wifiHost1.wlan[0].mac.hcf.edca.edcaf[0].txopProcedure txopDuration:histogram:count 0
scalar FragmentationShowcase.wifiHost1.wlan[0].mac.hcf.edca.edcaf[0].txopProcedure txopDuration:histogram:sumweights 0
scalar FragmentationShowcase.wifiHost1.wlan[0].mac.hcf.edca.edcaf[0].txopProcedure txopDuration:histogram:mean -nan
scalar FragmentationShowcase.wifiHost1.wlan[0].mac.hcf.edca.edcaf[0].txopProcedure txopDuration:histogram:stddev nan
scalar FragmentationShowcase.wifiHost1.wlan[0].mac.hcf.edca.edcaf[0].txopProcedure txopDuration:histogram:min nan
scalar FragmentationShowcase.wifiHost1.wlan[0].mac.hcf.edca.edcaf[0].txopProcedure txopDuration:histogram:max nan
scalar FragmentationShowcase.wifiHost1.wlan[0].mac.hcf.edca.edcaf[0].txopProcedure txopDuration:histogram:numbins 1
scalar FragmentationShowcase.wifiHost1.wlan[0].mac.hcf.edca.edcaf[0].txopProcedure txopDuration:histogram:rangemin 0
scalar FragmentationShowcase.wifiHost1.wlan[0].mac.hcf.edca.edcaf[0].txopProcedure txopDuration:histogram:rangemax 1
scalar FragmentationShowcase.wifiHost1.wlan[0].mac.hcf.edca.edcaf[0].txopProcedure txopDuration:histogram:underflows 0
scalar FragmentationShowcase.wifiHost1.wlan[0].mac.hcf.edca.edcaf[0].txopProcedure txopDuration:histogram:overflows 0
scalar FragmentationShowcase.wifiHost1.wlan[0].mac.hcf.edca.edcaf[1].pendingQueue queueingTime:histogram:count 0
scalar FragmentationShowcase.wifiHost1.wlan[0].mac.hcf.edca.edcaf[1].pendingQueue queueingTime:histogram:sumweights 0
scalar FragmentationShowcase.wifiHost1.wlan[0].mac.hcf.edca.edcaf[1].pendingQueue queueingTime:histogram:mean -nan
scalar FragmentationShowcase.wifiHost1.wlan[0].mac.hcf.edca.edcaf[1].pendingQueue queueingTime:histogram:stddev nan
scalar FragmentationShowcase.wifiHost1.wlan[0].mac.hcf.edca.edcaf[1].pendingQueue queueingTime:histogram:min nan
scalar FragmentationShowcase.wifiHost1.wlan[0].mac.hcf.edca.edcaf[1].pendingQueue queueingTime:histogram:max nan
scalar FragmentationShowcase.wifiHost1.wlan[0].mac.hcf.edca.edcaf[1].pendingQueue queueingTime:histogram:numbins 1
scalar FragmentationShowcase.wifiHost1.wlan[0].mac.hcf.edca.edcaf[1].pendingQueue queueingTime:histogram:rangemin 0
scalar FragmentationShowcase.wifiHost1.wlan[0].mac.hcf.edca.edcaf[1].pendingQueue queueingTime:histogram:rangemax 1
scalar FragmentationShowcase.wifiHost1.wlan[0].mac.hcf.edca.edcaf[1].pendingQueue queueingTime:histogram:underflows 0
scalar FragmentationShowcase.wifiHost1.wlan[0].mac.hcf.edca.edcaf[1].pendingQueue queueingTime:histogram:overflows 0
scalar FragmentationShowcase.wifiHost1.wlan[0].mac.hcf.edca.edcaf[1].pendingQueue outgoingPacketLengths:histogram:count 0
scalar FragmentationShowcase.wifiHost1.wlan[0].mac.hcf.edca.edcaf[1].pendingQueue outgoingPacketLengths:histogram:sumweights 0
scalar FragmentationShowcase.wifiHost1.wlan[0].mac.hcf.edca.edcaf[1].pendingQueue outgoingPacketLengths:histogram:mean -nan
scalar FragmentationShowcase.wifiHost1.wlan[0].mac.hcf.edca.edcaf[1].pendingQueue outgoingPacketLengths:histogram:stddev nan
scalar FragmentationShowcase.wifiHost1.wlan[0].mac.hcf.edca.edcaf[1].pendingQueue outgoingPacketLengths:histogram:min nan
scalar FragmentationShowcase.wifiHost1.wlan[0].mac.hcf.edca.edcaf[1].pendingQueue outgoingPacketLengths:histogram:max nan
scalar FragmentationShowcase.wifiHost1.wlan[0].mac.hcf.edca.edcaf[1].pendingQueue outgoingPacketLengths:histogram:numbins 1
scalar FragmentationShowcase.wifiHost1.wlan[0].mac.hcf.edca.edcaf[1].pendingQueue outgoingPacketLengths:histogram:rangemin 0
scalar FragmentationShowcase.wifiHost1.wlan[0].mac.hcf.edca.edcaf[1].pendingQueue outgoingPacketLengths:histogram:rangemax 1
[...]
scalar FragmentationShowcase.wifiHost2.wlan[0].mac packetDropDuplicateDetected:vector(packetBytes):starttime nan
scalar FragmentationShowcase.wifiHost2.wlan[0].mac packetDropDuplicateDetected:vector(packetBytes):endtime nan
scalar FragmentationShowcase.wifiHost2.wlan[0].mac packetDropOther:vector(packetBytes):count 0
scalar FragmentationShowcase.wifiHost2.wlan[0].mac packetDropOther:vector(packetBytes):sum 0
scalar FragmentationShowcase.wifiHost2.wlan[0].mac packetDropOther:vector(packetBytes):sumweights 0
scalar FragmentationShowcase.wifiHost2.wlan[0].mac packetDropOther:vector(packetBytes):mean -nan
scalar FragmentationShowcase.wifiHost2.wlan[0].mac packetDropOther:vector(packetBytes):stddev nan
scalar FragmentationShowcase.wifiHost2.wlan[0].mac packetDropOther:vector(packetBytes):min inf
scalar FragmentationShowcase.wifiHost2.wlan[0].mac packetDropOther:vector(packetBytes):max -inf
scalar FragmentationShowcase.wifiHost2.wlan[0].mac packetDropOther:vector(packetBytes):starttime nan
scalar FragmentationShowcase.wifiHost2.wlan[0].mac packetDropOther:vector(packetBytes):endtime nan
scalar FragmentationShowcase.wifiHost2.wlan[0].radio radioMode:vector:count 0
scalar FragmentationShowcase.wifiHost2.wlan[0].radio radioMode:vector:sum 0
scalar FragmentationShowcase.wifiHost2.wlan[0].radio radioMode:vector:sumweights 0
scalar FragmentationShowcase.wifiHost2.wlan[0].radio radioMode:vector:mean -nan
scalar FragmentationShowcase.wifiHost2.wlan[0].radio radioMode:vector:stddev nan
scalar FragmentationShowcase.wifiHost2.wlan[0].radio radioMode:vector:min inf
scalar FragmentationShowcase.wifiHost2.wlan[0].radio radioMode:vector:max -inf
scalar FragmentationShowcase.wifiHost2.wlan[0].radio radioMode:vector:starttime nan
scalar FragmentationShowcase.wifiHost2.wlan[0].radio radioMode:vector:endtime nan
scalar FragmentationShowcase.wifiHost2.wlan[0].radio receptionState:vector:count 0
scalar FragmentationShowcase.wifiHost2.wlan[0].radio receptionState:vector:sum 0
scalar FragmentationShowcase.wifiHost2.wlan[0].radio receptionState:vector:sumweights 0
scalar FragmentationShowcase.wifiHost2.wlan[0].radio receptionState:vector:mean -nan
scalar FragmentationShowcase.wifiHost2.wlan[0].radio receptionState:vector:stddev nan
scalar FragmentationShowcase.wifiHost2.wlan[0].radio receptionState:vector:min inf
scalar FragmentationShowcase.wifiHost2.wlan[0].radio receptionState:vector:max -inf
scalar FragmentationShowcase.wifiHost2.wlan[0].radio receptionState:vector:starttime nan
scalar FragmentationShowcase.wifiHost2.wlan[0].radio receptionState:vector:endtime nan
scalar FragmentationShowcase.wifiHost2.wlan[0].radio transmissionState:vector:count 0
scalar FragmentationShowcase.wifiHost2.wlan[0].radio transmissionState:vector:sum 0
scalar FragmentationShowcase.wifiHost2.wlan[0].radio transmissionState:vector:sumweights 0
scalar FragmentationShowcase.wifiHost2.wlan[0].radio transmissionState:vector:mean -nan
scalar FragmentationShowcase.wifiHost2.wlan[0].radio transmissionState:vector:stddev nan
scalar FragmentationShowcase.wifiHost2.wlan[0].radio transmissionState:vector:min inf
scalar FragmentationShowcase.wifiHost2.wlan[0].radio transmissionState:vector:max -inf
scalar FragmentationShowcase.wifiHost2.wlan[0].radio transmissionState:vector:starttime nan
scalar FragmentationShowcase.wifiHost2.wlan[0].radio transmissionState:vector:endtime nan
scalar FragmentationShowcase.wifiHost2.wlan[0].radio minSnir:vector:count 29248
scalar FragmentationShowcase.wifiHost2.wlan[0].radio minSnir:vector:sum 521944.36559604987
scalar FragmentationShowcase.wifiHost2.wlan[0].radio minSnir:vector:sumweights 29248
scalar FragmentationShowcase.wifiHost2.wlan[0].radio minSnir:vector:mean 17.845472018464505
scalar FragmentationShowcase.wifiHost2.wlan[0].radio minSnir:vector:stddev 0
scalar FragmentationShowcase.wifiHost2.wlan[0].radio minSnir:vector:min 17.84547201845912
scalar FragmentationShowcase.wifiHost2.wlan[0].radio minSnir:vector:max 17.84547201845912
scalar FragmentationShowcase.wifiHost2.wlan[0].radio minSnir:vector:starttime 0.00061469854400000011
scalar FragmentationShowcase.wifiHost2.wlan[0].radio minSnir:vector:endtime 9.9996954036320016
scalar FragmentationShowcase.wifiHost2.wlan[0].radio radioChannel:vector:count 0
scalar FragmentationShowcase.wifiHost2.wlan[0].radio radioChannel:vector:sum 0
scalar FragmentationShowcase.wifiHost2.wlan[0].radio radioChannel:vector:sumweights 0
scalar FragmentationShowcase.wifiHost2.wlan[0].radio radioChannel:vector:mean -nan
scalar FragmentationShowcase.wifiHost2.wlan[0].radio radioChannel:vector:stddev nan
scalar FragmentationShowcase.wifiHost2.wlan[0].radio radioChannel:vector:min inf
scalar FragmentationShowcase.wifiHost2.wlan[0].radio radioChannel:vector:max -inf
scalar FragmentationShowcase.wifiHost2.wlan[0].radio radioChannel:vector:starttime nan
scalar FragmentationShowcase.wifiHost2.wlan[0].radio radioChannel:vector:endtime nan
scalar FragmentationShowcase.wifiHost2.wlan[0] packetDropInterfaceDown:vector(packetBytes):count 0
scalar FragmentationShowcase.wifiHost2.wlan[0] packetDropInterfaceDown:vector(packetBytes):sum 0
scalar FragmentationShowcase.wifiHost2.wlan[0] packetDropInterfaceDown:vector(packetBytes):sumweights 0
scalar FragmentationShowcase.wifiHost2.wlan[0] packetDropInterfaceDown:vector(packetBytes):mean -nan
scalar FragmentationShowcase.wifiHost2.wlan[0] packetDropInterfaceDown:vector(packetBytes):stddev nan
scalar FragmentationShowcase.wifiHost2.wlan[0] packetDropInterfaceDown:vector(packetBytes):min inf
scalar FragmentationShowcase.wifiHost2.wlan[0] packetDropInterfaceDown:vector(packetBytes):max -inf
scalar FragmentationShowcase.wifiHost2.wlan[0] packetDropInterfaceDown:vector(packetBytes):starttime nan
scalar FragmentationShowcase.wifiHost2.wlan[0] packetDropInterfaceDown:vector(packetBytes):endtime nan
scalar FragmentationShowcase.wifiHost2.wlan[0] packetDropNoCarrier:vector(packetBytes):count 0
scalar FragmentationShowcase.wifiHost2.wlan[0] packetDropNoCarrier:vector(packetBytes):sum 0
scalar FragmentationShowcase.wifiHost2.wlan[0] packetDropNoCarrier:vector(packetBytes):sumweights 0
scalar FragmentationShowcase.wifiHost2.wlan[0] packetDropNoCarrier:vector(packetBytes):mean -nan
scalar FragmentationShowcase.wifiHost2.wlan[0] packetDropNoCarrier:vector(packetBytes):stddev nan
scalar FragmentationShowcase.wifiHost2.wlan[0] packetDropNoCarrier:vector(packetBytes):min inf
scalar FragmentationShowcase.wifiHost2.wlan[0] packetDropNoCarrier:vector(packetBytes):max -inf
scalar FragmentationShowcase.wifiHost2.wlan[0] packetDropNoCarrier:vector(packetBytes):starttime nan
scalar FragmentationShowcase.wifiHost2.wlan[0] packetDropNoCarrier:vector(packetBytes):endtime nan
scalar FragmentationShowcase.wifiHost2.ipv4.ip packetDropAddressResolutionFailed:vector(packetBytes):count 0
scalar FragmentationShowcase.wifiHost2.ipv4.ip packetDropAddressResolutionFailed:vector(packetBytes):sum 0
scalar FragmentationShowcase.wifiHost2.ipv4.ip packetDropAddressResolutionFailed:vector(packetBytes):sumweights 0
scalar FragmentationShowcase.wifiHost2.ipv4.ip packetDropAddressResolutionFailed:vector(packetBytes):mean -nan
scalar FragmentationShowcase.wifiHost2.ipv4.ip packetDropAddressResolutionFailed:vector(packetBytes):stddev nan
scalar FragmentationShowcase.wifiHost2.ipv4.ip packetDropAddressResolutionFailed:vector(packetBytes):min inf
scalar FragmentationShowcase.wifiHost2.ipv4.ip packetDropAddressResolutionFailed:vector(packetBytes):max -inf
scalar FragmentationShowcase.wifiHost2.ipv4.ip packetDropAddressResolutionFailed:vector(packetBytes):starttime nan
scalar FragmentationShowcase.wifiHost2.ipv4.ip packetDropAddressResolutionFailed:vector(packetBytes):endtime nan
scalar FragmentationShowcase.wifiHost2.ipv4.ip packetDropHopLimitReached:vector(packetBytes):count 0
scalar FragmentationShowcase.wifiHost2.ipv4.ip packetDropHopLimitReached:vector(packetBytes):sum 0
scalar FragmentationShowcase.wifiHost2.ipv4.ip packetDropHopLimitReached:vector(packetBytes):sumweights 0
scalar FragmentationShowcase.wifiHost2.ipv4.ip packetDropHopLimitReached:vector(packetBytes):mean -nan
scalar FragmentationShowcase.wifiHost2.ipv4.ip packetDropHopLimitReached:vector(packetBytes):stddev nan
scalar FragmentationShowcase.wifiHost2.ipv4.ip packetDropHopLimitReached:vector(packetBytes):min inf
scalar FragmentationShowcase.wifiHost2.ipv4.ip packetDropHopLimitReached:vector(packetBytes):max -inf
scalar FragmentationShowcase.wifiHost2.ipv4.ip packetDropHopLimitReached:vector(packetBytes):starttime nan
scalar FragmentationShowcase.wifiHost2.ipv4.ip packetDropHopLimitReached:vector(packetBytes):endtime nan
scalar FragmentationShowcase.wifiHost2.ipv4.ip packetDropForwardingDisabled:vector(packetBytes):count 0
scalar FragmentationShowcase.wifiHost2.ipv4.ip packetDropForwardingDisabled:vector(packetBytes):sum 0
scalar FragmentationShowcase.wifiHost2.ipv4.ip packetDropForwardingDisabled:vector(packetBytes):sumweights 0
scalar FragmentationShowcase.wifiHost2.ipv4.ip packetDropForwardingDisabled:vector(packetBytes):mean -nan
scalar FragmentationShowcase.wifiHost2.ipv4.ip packetDropForwardingDisabled:vector(packetBytes):stddev nan
scalar FragmentationShowcase.wifiHost2.ipv4.ip packetDropForwardingDisabled:vector(packetBytes):min inf
scalar FragmentationShowcase.wifiHost2.ipv4.ip packetDropForwardingDisabled:vector(packetBytes):max -inf
scalar FragmentationShowcase.wifiHost2.ipv4.ip packetDropForwardingDisabled:vector(packetBytes):starttime nan
scalar FragmentationShowcase.wifiHost2.ipv4.ip packetDropForwardingDisabled:vector(packetBytes):endtime nan
scalar FragmentationShowcase.wifiHost2.ipv4.ip packetDropLifetimeExpired:vector(packetBytes):count 0
scalar FragmentationShowcase.wifiHost2.ipv4.ip packetDropLifetimeExpired:vector(packetBytes):sum 0
scalar FragmentationShowcase.wifiHost2.ipv4.ip packetDropLifetimeExpired:vector(packetBytes):sumweights 0
scalar FragmentationShowcase.wifiHost2.ipv4.ip packetDropLifetimeExpired:vector(packetBytes):mean -nan
scalar FragmentationShowcase.wifiHost2.ipv4.ip packetDropLifetimeExpired:vector(packetBytes):stddev nan
scalar FragmentationShowcase.wifiHost2.ipv4.ip packetDropLifetimeExpired:vector(packetBytes):min inf
scalar FragmentationShowcase.wifiHost2.ipv4.ip packetDropLifetimeExpired:vector(packetBytes):max -inf
scalar FragmentationShowcase.wifiHost2.ipv4.ip packetDropLifetimeExpired:vector(packetBytes):starttime nan
scalar FragmentationShowcase.wifiHost2.ipv4.ip packetDropLifetimeExpired:vector(packetBytes):endtime nan
scalar FragmentationShowcase.wifiHost2.ipv4.ip packetDropNoInterfaceFound:vector(packetBytes):count 0
scalar FragmentationShowcase.wifiHost2.ipv4.ip packetDropNoInterfaceFound:vector(packetBytes):sum 0
scalar FragmentationShowcase.wifiHost2.ipv4.ip packetDropNoInterfaceFound:vector(packetBytes):sumweights 0
scalar FragmentationShowcase.wifiHost2.ipv4.ip packetDropNoInterfaceFound:vector(packetBytes):mean -nan
scalar FragmentationShowcase.wifiHost2.ipv4.ip packetDropNoInterfaceFound:vector(packetBytes):stddev nan
scalar FragmentationShowcase.wifiHost2.ipv4.ip packetDropNoInterfaceFound:vector(packetBytes):min inf
scalar FragmentationShowcase.wifiHost2.ipv4.ip packetDropNoInterfaceFound:vector(packetBytes):max -inf
scalar FragmentationShowcase.wifiHost2.ipv4.ip packetDropNoInterfaceFound:vector(packetBytes):starttime nan
scalar FragmentationShowcase.wifiHost2.ipv4.ip packetDropNoInterfaceFound:vector(packetBytes):endtime nan
scalar FragmentationShowcase.wifiHost2.ipv4.ip packetDropNoRouteFound:vector(packetBytes):count 0
scalar FragmentationShowcase.wifiHost2.ipv4.ip packetDropNoRouteFound:vector(packetBytes):sum 0
scalar FragmentationShowcase.wifiHost2.ipv4.ip packetDropNoRouteFound:vector(packetBytes):sumweights 0
scalar FragmentationShowcase.wifiHost2.ipv4.ip packetDropNoRouteFound:vector(packetBytes):mean -nan
scalar FragmentationShowcase.wifiHost2.ipv4.ip packetDropNoRouteFound:vector(packetBytes):stddev nan
scalar FragmentationShowcase.wifiHost2.ipv4.ip packetDropNoRouteFound:vector(packetBytes):min inf
scalar FragmentationShowcase.wifiHost2.ipv4.ip packetDropNoRouteFound:vector(packetBytes):max -inf
scalar FragmentationShowcase.wifiHost2.ipv4.ip packetDropNoRouteFound:vector(packetBytes):starttime nan
scalar FragmentationShowcase.wifiHost2.ipv4.ip packetDropNoRouteFound:vector(packetBytes):endtime nan
scalar FragmentationShowcase.wifiHost2.ipv4.ip packetDropUndefined:vector(packetBytes):count 0
scalar FragmentationShowcase.wifiHost2.ipv4.ip packetDropUndefined:vector(packetBytes):sum 0
scalar FragmentationShowcase.wifiHost2.ipv4.ip packetDropUndefined:vector(packetBytes):sumweights 0
scalar FragmentationShowcase.wifiHost2.ipv4.ip packetDropUndefined:vector(packetBytes):mean -nan
scalar FragmentationShowcase.wifiHost2.ipv4.ip packetDropUndefined:vector(packetBytes):stddev nan
scalar FragmentationShowcase.wifiHost2.ipv4.ip packetDropUndefined:vector(packetBytes):min inf
scalar FragmentationShowcase.wifiHost2.ipv4.ip packetDropUndefined:vector(packetBytes):max -inf
scalar FragmentationShowcase.wifiHost2.ipv4.ip packetDropUndefined:vector(packetBytes):starttime nan
scalar FragmentationShowcase.wifiHost2.ipv4.ip packetDropUndefined:vector(packetBytes):endtime nan
scalar FragmentationShowcase.wifiHost2.udp packetSent:vector(packetBytes):count 0
scalar FragmentationShowcase.wifiHost2.udp packetSent:vector(packetBytes):sum 0
scalar FragmentationShowcase.wifiHost2.udp packetSent:vector(packetBytes):sumweights 0
scalar FragmentationShowcase.wifiHost2.udp packetSent:vector(packetBytes):mean -nan
scalar FragmentationShowcase.wifiHost2.udp packetSent:vector(packetBytes):stddev nan
scalar FragmentationShowcase.wifiHost2.udp packetSent:vector(packetBytes):min inf
scalar FragmentationShowcase.wifiHost2.udp packetSent:vector(packetBytes):max -inf
scalar FragmentationShowcase.wifiHost2.udp packetSent:vector(packetBytes):starttime nan
scalar FragmentationShowcase.wifiHost2.udp packetSent:vector(packetBytes):endtime nan
scalar FragmentationShowcase.wifiHost2.udp packetReceived:vector(packetBytes):count 0
scalar FragmentationShowcase.wifiHost2.udp packetReceived:vector(packetBytes):sum 0
scalar FragmentationShowcase.wifiHost2.udp packetReceived:vector(packetBytes):sumweights 0
scalar FragmentationShowcase.wifiHost2.udp packetReceived:vector(packetBytes):mean -nan
scalar FragmentationShowcase.wifiHost2.udp packetReceived:vector(packetBytes):stddev nan
scalar FragmentationShowcase.wifiHost2.udp packetReceived:vector(packetBytes):min inf
scalar FragmentationShowcase.wifiHost2.udp packetReceived:vector(packetBytes):max -inf
scalar FragmentationShowcase.wifiHost2.udp packetReceived:vector(packetBytes):starttime nan
scalar FragmentationShowcase.wifiHost2.udp packetReceived:vector(packetBytes):endtime nan
scalar FragmentationShowcase.wifiHost2.udp passedUpPk:vector(count):count 0
scalar FragmentationShowcase.wifiHost2.udp passedUpPk:vector(count):sum 0
scalar FragmentationShowcase.wifiHost2.udp passedUpPk:vector(count):sumweights 0
scalar FragmentationShowcase.wifiHost2.udp passedUpPk:vector(count):mean -nan
scalar FragmentationShowcase.wifiHost2.udp passedUpPk:vector(count):stddev nan
scalar FragmentationShowcase.wifiHost2.udp passedUpPk:vector(count):min inf
scalar FragmentationShowcase.wifiHost2.udp passedUpPk:vector(count):max -inf
scalar FragmentationShowcase.wifiHost2.udp passedUpPk:vector(count):starttime nan
scalar FragmentationShowcase.wifiHost2.udp passedUpPk:vector(count):endtime nan
scalar FragmentationShowcase.wifiHost2.udp droppedPkWrongPort:vector(count):count 0
scalar FragmentationShowcase.wifiHost2.udp droppedPkWrongPort:vector(count):sum 0
scalar FragmentationShowcase.wifiHost2.udp droppedPkWrongPort:vector(count):sumweights 0
scalar FragmentationShowcase.wifiHost2.udp droppedPkWrongPort:vector(count):mean -nan
scalar FragmentationShowcase.wifiHost2.udp droppedPkWrongPort:vector(count):stddev nan
scalar FragmentationShowcase.wifiHost2.udp droppedPkWrongPort:vector(count):min inf
scalar FragmentationShowcase.wifiHost2.udp droppedPkWrongPort:vector(count):max -inf
scalar FragmentationShowcase.wifiHost2.udp droppedPkWrongPort:vector(count):starttime nan
scalar FragmentationShowcase.wifiHost2.udp droppedPkWrongPort:vector(count):endtime nan
scalar FragmentationShowcase.wifiHost2.udp droppedPkBadChecksum:vector(count):count 0
scalar FragmentationShowcase.wifiHost2.udp droppedPkBadChecksum:vector(count):sum 0
scalar FragmentationShowcase.wifiHost2.udp droppedPkBadChecksum:vector(count):sumweights 0
scalar FragmentationShowcase.wifiHost2.udp droppedPkBadChecksum:vector(count):mean -nan
scalar FragmentationShowcase.wifiHost2.udp droppedPkBadChecksum:vector(count):stddev nan
scalar FragmentationShowcase.wifiHost2.udp droppedPkBadChecksum:vector(count):min inf
scalar FragmentationShowcase.wifiHost2.udp droppedPkBadChecksum:vector(count):max -inf
scalar FragmentationShowcase.wifiHost2.udp droppedPkBadChecksum:vector(count):starttime nan
scalar FragmentationShowcase.wifiHost2.udp droppedPkBadChecksum:vector(count):endtime nan
scalar FragmentationShowcase.wifiHost2.app[0] packetReceived:vector(packetBytes):count 0
scalar FragmentationShowcase.wifiHost2.app[0] packetReceived:vector(packetBytes):sum 0
scalar FragmentationShowcase.wifiHost2.app[0] packetReceived:vector(packetBytes):sumweights 0
scalar FragmentationShowcase.wifiHost2.app[0] packetReceived:vector(packetBytes):mean -nan
scalar FragmentationShowcase.wifiHost2.app[0] packetReceived:vector(packetBytes):stddev nan
scalar FragmentationShowcase.wifiHost2.app[0] packetReceived:vector(packetBytes):min inf
scalar FragmentationShowcase.wifiHost2.app[0] packetReceived:vector(packetBytes):max -inf
scalar FragmentationShowcase.wifiHost2.app[0] packetReceived:vector(packetBytes):starttime nan
scalar FragmentationShowcase.wifiHost2.app[0] packetReceived:vector(packetBytes):endtime nan
scalar FragmentationShowcase.wifiHost2.app[0] throughput:vector:count 100
scalar FragmentationShowcase.wifiHost2.app[0] throughput:vector:sum 304480000
scalar FragmentationShowcase.wifiHost2.app[0] throughput:vector:sumweights 100
scalar FragmentationShowcase.wifiHost2.app[0] throughput:vector:mean 3044800
scalar FragmentationShowcase.wifiHost2.app[0] throughput:vector:stddev 289857.08774003194
scalar FragmentationShowcase.wifiHost2.app[0] throughput:vector:min 2400000
scalar FragmentationShowcase.wifiHost2.app[0] throughput:vector:max 3680000.0000000005
scalar FragmentationShowcase.wifiHost2.app[0] throughput:vector:starttime 0.10000000000000001
scalar FragmentationShowcase.wifiHost2.app[0] throughput:vector:endtime 10
scalar FragmentationShowcase.wifiHost2.app[0] endToEndDelay:vector:count 0
scalar FragmentationShowcase.wifiHost2.app[0] endToEndDelay:vector:sum 0
scalar FragmentationShowcase.wifiHost2.app[0] endToEndDelay:vector:sumweights 0
scalar FragmentationShowcase.wifiHost2.app[0] endToEndDelay:vector:mean -nan
scalar FragmentationShowcase.wifiHost2.app[0] endToEndDelay:vector:stddev nan
scalar FragmentationShowcase.wifiHost2.app[0] endToEndDelay:vector:min inf
scalar FragmentationShowcase.wifiHost2.app[0] endToEndDelay:vector:max -inf
scalar FragmentationShowcase.wifiHost2.app[0] endToEndDelay:vector:starttime nan
scalar FragmentationShowcase.wifiHost2.app[0] endToEndDelay:vector:endtime nan
scalar FragmentationShowcase.wifiHost2.app[0] rcvdPkSeqNo:vector:count 0
scalar FragmentationShowcase.wifiHost2.app[0] rcvdPkSeqNo:vector:sum 0
scalar FragmentationShowcase.wifiHost2.app[0] rcvdPkSeqNo:vector:sumweights 0
scalar FragmentationShowcase.wifiHost2.app[0] rcvdPkSeqNo:vector:mean -nan
scalar FragmentationShowcase.wifiHost2.app[0] rcvdPkSeqNo:vector:stddev nan
scalar FragmentationShowcase.wifiHost2.app[0] rcvdPkSeqNo:vector:min inf
scalar FragmentationShowcase.wifiHost2.app[0] rcvdPkSeqNo:vector:max -inf
scalar FragmentationShowcase.wifiHost2.app[0] rcvdPkSeqNo:vector:starttime nan
scalar FragmentationShowcase.wifiHost2.app[0] rcvdPkSeqNo:vector:endtime nan

