version 3
run ThresholdHCFfragblockack-0-20230511-14:21:56-54997
attr configname ThresholdHCFfragblockack
attr datetime 20230511-14:21:56
attr datetimef 20230511-142156
attr experiment ThresholdHCFfragblockack
attr inifile parameterstudy.ini
attr iterationvars $threshold=100
attr iterationvarsd threshold=100
attr iterationvarsf threshold=100-
attr measurement $threshold=100
attr network FragmentationShowcase
attr processid 54997
attr repetition 0
attr replication #0
attr resultdir results
attr runnumber 0
attr seedset 0
itervar threshold 100
config **.param-recording false
config **.vector-recording false
config image-path /home/levy/workspace/inet/images
config output-scalar-file results/parameterstudy.ini-ThresholdHCFfragblockack-#0.sca
config sim-time-limit 10s
config extends ThresholdHCFfrag,ThresholdIteration
config **.maxBlockAckPolicyFrameLength 2000B
config *.*.wlan[*].mac.hcf.isBlockAckSupported true
config extends ThresholdIteration
config *.*.wlan[*].mac.qosStation true
config **.wlan[*].classifier.typename QosClassifier
config **.mac.hcf.originatorMacDataService.msduAggregationPolicy.typename ""
config sim-time-limit 10s
config **.fragmentationThreshold 100B
config **.mtu 12500B
config *.wifiHost1.app[0].messageLength 1000Byte
config network FragmentationShowcase
config sim-time-limit 10s
config **.arp.typename GlobalArp
config *.wifiHost1.numApps 1
config *.wifiHost1.app[0].typename UdpBasicApp
config *.wifiHost1.app[0].destAddresses "\"wifiHost2\""
config *.wifiHost1.app[0].destPort 4000
config *.wifiHost1.app[0].sendInterval 0.5ms
config *.wifiHost1.app[0].messageLength 2000Byte
config *.wifiHost2.numApps 1
config *.wifiHost2.app[0].typename UdpSink
config *.wifiHost2.app[0].localPort 4000
config *.wifiHost*.wlan[*].radio.receiver.energyDetection -105dBm
config *.wifiHost*.wlan[*].radio.receiver.sensitivity -105dBm
config *.wifiHost*.wlan[*].radio.receiver.snirThreshold 0dB
config *.wifiHost*.wlan[*].radio.transmitter.power 0.08mW
config *.visualizer.*.dataLinkVisualizer.displayLinks true
config *.visualizer.*.physicalLinkVisualizer.displayLinks true
config *.visualizer.*.interfaceTableVisualizer.displayInterfaceTables true
config *.visualizer.*.interfaceTableVisualizer.format "\"%N %\\\\%a/%l\\n%m\""

scalar FragmentationShowcase.wifiHost1.lo[0].lo rcvdPkFromHl:count 0
attr interpolationmode none
attr recordingmode count
attr source packetReceivedFromUpper
attr title "packets received from higher layer, count"
scalar FragmentationShowcase.wifiHost1.lo[0].lo rcvdPkFromHl:sum(packetBytes) 0
attr interpolationmode none
attr recordingmode sum(packetBytes)
attr source packetReceivedFromUpper
attr title "packets received from higher layer, sum(packetBytes)"
scalar FragmentationShowcase.wifiHost1.lo[0].lo passedUpPk:count 0
attr interpolationmode none
attr recordingmode count
attr source packetSentToUpper
attr title "packets passed to higher layer, count"
scalar FragmentationShowcase.wifiHost1.lo[0].lo passedUpPk:sum(packetBytes) 0
attr interpolationmode none
attr recordingmode sum(packetBytes)
attr source packetSentToUpper
attr title "packets passed to higher layer, sum(packetBytes)"
scalar FragmentationShowcase.wifiHost1.lo[0] packetDropInterfaceDown:count 0
attr interpolationmode none
attr recordingmode count
attr source packetDropReasonIsInterfaceDown(packetDropped)
attr title "packet drops: interface down, count"
scalar FragmentationShowcase.wifiHost1.lo[0] packetDropInterfaceDown:sum(packetBytes) 0
attr interpolationmode none
attr recordingmode sum(packetBytes)
attr source packetDropReasonIsInterfaceDown(packetDropped)
attr title "packet drops: interface down, sum(packetBytes)"
scalar FragmentationShowcase.wifiHost1.lo[0] packetDropNoCarrier:count 0
attr interpolationmode none
attr recordingmode count
attr source packetDropReasonIsNoCarrier(packetDropped)
attr title "packet drops: no carrier, count"
scalar FragmentationShowcase.wifiHost1.lo[0] packetDropNoCarrier:sum(packetBytes) 0
attr interpolationmode none
attr recordingmode sum(packetBytes)
attr source packetDropReasonIsNoCarrier(packetDropped)
attr title "packet drops: no carrier, sum(packetBytes)"
scalar FragmentationShowcase.wifiHost1.wlan[0].mac.dcf.channelAccess.pendingQueue queueLength:last 0
attr autoWarmupFilter false
attr interpolationmode sample-hold
attr recordingmode last
attr source "warmup(atomic(constant0(packetPushEnded) + count(packetPushStarted) - count(packetPulled) - count(packetRemoved) - count(packetDropped)))"
attr title "queue length, last"
attr unit pk
scalar FragmentationShowcase.wifiHost1.wlan[0].mac.dcf.channelAccess.pendingQueue queueLength:max 0
attr autoWarmupFilter false
attr interpolationmode sample-hold
attr recordingmode max
attr source "warmup(atomic(constant0(packetPushEnded) + count(packetPushStarted) - count(packetPulled) - count(packetRemoved) - count(packetDropped)))"
attr title "queue length, max"
attr unit pk
scalar FragmentationShowcase.wifiHost1.wlan[0].mac.dcf.channelAccess.pendingQueue queueLength:timeavg 0
attr autoWarmupFilter false
attr interpolationmode sample-hold
attr recordingmode timeavg
attr source "warmup(atomic(constant0(packetPushEnded) + count(packetPushStarted) - count(packetPulled) - count(packetRemoved) - count(packetDropped)))"
attr title "queue length, timeavg"
attr unit pk
scalar FragmentationShowcase.wifiHost1.wlan[0].mac.dcf.channelAccess.pendingQueue queueBitLength:last 0
attr autoWarmupFilter false
attr interpolationmode sample-hold
attr recordingmode last
attr source "warmup(atomic(constant0(packetPushEnded) + sum(packetLength(packetPushStarted)) - sum(packetLength(packetPulled)) - sum(packetLength(packetRemoved)) - sum(packetLength(packetDropped))))"
attr title "queue bit length, last"
attr unit b
scalar FragmentationShowcase.wifiHost1.wlan[0].mac.dcf.channelAccess.pendingQueue queueBitLength:max 0
attr autoWarmupFilter false
attr interpolationmode sample-hold
attr recordingmode max
attr source "warmup(atomic(constant0(packetPushEnded) + sum(packetLength(packetPushStarted)) - sum(packetLength(packetPulled)) - sum(packetLength(packetRemoved)) - sum(packetLength(packetDropped))))"
attr title "queue bit length, max"
attr unit b
scalar FragmentationShowcase.wifiHost1.wlan[0].mac.dcf.channelAccess.pendingQueue queueBitLength:timeavg 0
attr autoWarmupFilter false
attr interpolationmode sample-hold
attr recordingmode timeavg
attr source "warmup(atomic(constant0(packetPushEnded) + sum(packetLength(packetPushStarted)) - sum(packetLength(packetPulled)) - sum(packetLength(packetRemoved)) - sum(packetLength(packetDropped))))"
attr title "queue bit length, timeavg"
attr unit b
statistic FragmentationShowcase.wifiHost1.wlan[0].mac.dcf.channelAccess.pendingQueue queueingTime:histogram
field count 0
field mean -nan
field stddev nan
field min nan
field max nan
field sum 0
field sqrsum 0
attr interpolationmode none
attr recordingmode histogram
attr source queueingTime(packetPulled)
attr title "queueing times"
attr unit s
bin	-inf	0
bin	0	0
bin	1	0
scalar FragmentationShowcase.wifiHost1.wlan[0].mac.dcf.channelAccess.pendingQueue outgoingPackets:count 0
attr recordingmode count
attr source packetPulled
attr title "outgoing packets, count"
attr unit pk
scalar FragmentationShowcase.wifiHost1.wlan[0].mac.dcf.channelAccess.pendingQueue outgoingPacketLengths:sum 0
attr interpolationmode none
attr recordingmode sum
attr source packetLength(packetPulled)
attr title "outgoing packet lengths, sum"
attr unit b
statistic FragmentationShowcase.wifiHost1.wlan[0].mac.dcf.channelAccess.pendingQueue outgoingPacketLengths:histogram
field count 0
field mean -nan
field stddev nan
field min nan
field max nan
field sum 0
field sqrsum 0
attr interpolationmode none
attr recordingmode histogram
attr source packetLength(packetPulled)
attr title "outgoing packet lengths"
attr unit b
bin	-inf	0
bin	0	0
bin	1	0
statistic FragmentationShowcase.wifiHost1.wlan[0].mac.dcf.channelAccess.pendingQueue flowQueueingTime:histogram
field count 0
field mean -nan
field stddev nan
field min nan
field max nan
field sum 0
field sqrsum 0
attr interpolationmode none
attr recordingmode histogram
attr source queueingTime(demuxFlow(packetPulled))
attr title "flow queueing times"
attr unit s
bin	-inf	0
bin	0	0
bin	1	0
scalar FragmentationShowcase.wifiHost1.wlan[0].mac.dcf.channelAccess.pendingQueue incomingPackets:count 0
attr recordingmode count
attr source packetPushStarted
attr title "incoming packets, count"
attr unit pk
scalar FragmentationShowcase.wifiHost1.wlan[0].mac.dcf.channelAccess.pendingQueue incomingPacketLengths:sum 0
attr interpolationmode none
attr recordingmode sum
attr source packetLength(packetPushStarted)
attr title "incoming packet lengths, sum"
attr unit b
statistic FragmentationShowcase.wifiHost1.wlan[0].mac.dcf.channelAccess.pendingQueue incomingPacketLengths:histogram
field count 0
field mean -nan
field stddev nan
field min nan
field max nan
field sum 0
field sqrsum 0
attr interpolationmode none
attr recordingmode histogram
attr source packetLength(packetPushStarted)
attr title "incoming packet lengths"
attr unit b
bin	-inf	0
bin	0	0
bin	1	0
scalar FragmentationShowcase.wifiHost1.wlan[0].mac.dcf.channelAccess.pendingQueue droppedPacketsQueueOverflow:count 0
attr interpolationmode none
attr recordingmode count
attr source packetDropReasonIsQueueOverflow(packetDropped)
attr title "dropped packets: queue overflow, count"
attr unit pk
scalar FragmentationShowcase.wifiHost1.wlan[0].mac.dcf.channelAccess.pendingQueue droppedPacketLengthsQueueOverflow:sum 0
attr interpolationmode none
attr recordingmode sum
attr source packetLength(packetDropReasonIsQueueOverflow(packetDropped))
attr title "dropped packet lengths: queue overflow, sum"
attr unit b
statistic FragmentationShowcase.wifiHost1.wlan[0].mac.dcf.channelAccess.inProgressFrames queueingTime:histogram
field count 0
field mean -nan
field stddev nan
field min nan
field max nan
field sum 0
field sqrsum 0
attr interpolationmode none
attr recordingmode histogram
attr source queueingTime(packetDequeued)
attr title "queueing times"
bin	-inf	0
bin	0	0
bin	1	0
scalar FragmentationShowcase.wifiHost1.wlan[0].mac.dcf.channelAccess.inProgressFrames queueLength:max 0
attr autoWarmupFilter false
attr interpolationmode sample-hold
attr recordingmode max
attr source "warmup(count(packetEnqueued) - count(packetDequeued))"
attr title "queue length, max"
scalar FragmentationShowcase.wifiHost1.wlan[0].mac.dcf.channelAccess.inProgressFrames queueLength:timeavg 0
attr autoWarmupFilter false
attr interpolationmode sample-hold
attr recordingmode timeavg
attr source "warmup(count(packetEnqueued) - count(packetDequeued))"
attr title "queue length, timeavg"
scalar FragmentationShowcase.wifiHost1.wlan[0].mac.dcf.channelAccess.contention channelAccessGranted:count 0
attr recordingmode count
attr title "channel access granted, count"
scalar FragmentationShowcase.wifiHost1.wlan[0].mac.dcf.channelAccess.contention stateChanged:count 42022
attr enum IDLE,DEFER,IFS_AND_BACKOFF
attr interpolationmode none
attr recordingmode count
attr title "contention state changed, count"
attr type enum
scalar FragmentationShowcase.wifiHost1.wlan[0].mac.dcf.channelAccess channelOwnershipChanged:count 0
attr interpolationmode sample-hold
attr recordingmode count
attr title "channel ownership, count"
scalar FragmentationShowcase.wifiHost1.wlan[0].mac.dcf.originatorMacDataService packetAggregated:count 0
attr recordingmode count
attr title "packets aggregated, count"
scalar FragmentationShowcase.wifiHost1.wlan[0].mac.dcf.originatorMacDataService packetFragmented:count 0
attr recordingmode count
attr title "packets fragmented, count"
scalar FragmentationShowcase.wifiHost1.wlan[0].mac.dcf.recipientMacDataService packetDeaggregated:count 0
attr recordingmode count
attr title "packets deaggregated, count"
scalar FragmentationShowcase.wifiHost1.wlan[0].mac.dcf.recipientMacDataService packetDefragmented:count 0
attr recordingmode count
attr title "packets defragmented, count"
scalar FragmentationShowcase.wifiHost1.wlan[0].mac.dcf.recipientMacDataService packetDropDuplicateDetected:count 0
attr interpolationmode none
attr recordingmode count
attr source packetDropReasonIsDuplicateDetected(packetDropped)
attr title "packet drops: duplicate detected, count"
scalar FragmentationShowcase.wifiHost1.wlan[0].mac.dcf.recipientMacDataService packetDropDuplicateDetected:sum(packetBytes) 0
attr interpolationmode none
attr recordingmode sum(packetBytes)
attr source packetDropReasonIsDuplicateDetected(packetDropped)
attr title "packet drops: duplicate detected, sum(packetBytes)"
scalar FragmentationShowcase.wifiHost1.wlan[0].mac.dcf.recoveryProcedure retryLimitReached:count 0
attr recordingmode count
attr title "retry limit reached, count"
scalar FragmentationShowcase.wifiHost1.wlan[0].mac.dcf frameSequenceFinished:count 0
attr recordingmode count
attr title "finished frame sequences, count"
statistic FragmentationShowcase.wifiHost1.wlan[0].mac.dcf frameSequenceDuration:histogram
field count 0
field mean -nan
field stddev nan
field min nan
field max nan
field sum 0
field sqrsum 0
attr recordingmode histogram
attr source frameSequenceDuration(frameSequenceFinished)
attr title "frame sequence durations"
bin	-inf	0
bin	0	0
bin	1	0
statistic FragmentationShowcase.wifiHost1.wlan[0].mac.dcf frameSequenceNumPackets:histogram
field count 0
field mean -nan
field stddev nan
field min nan
field max nan
field sum 0
field sqrsum 0
attr recordingmode histogram
attr source frameSequenceNumPackets(frameSequenceFinished)
attr title "frame sequences: number of packets"
bin	-inf	0
bin	0	0
bin	1	0
scalar FragmentationShowcase.wifiHost1.wlan[0].mac.dcf packetReceivedFromPeer:count 0
attr interpolationmode none
attr recordingmode count
attr title "packets received, count"
scalar FragmentationShowcase.wifiHost1.wlan[0].mac.dcf packetReceivedFromPeer:sum(packetBytes) 0
attr interpolationmode none
attr recordingmode sum(packetBytes)
attr title "packets received, sum(packetBytes)"
scalar FragmentationShowcase.wifiHost1.wlan[0].mac.dcf packetReceivedFromPeerUnicast:count 0
attr interpolationmode none
attr recordingmode count
attr source ieee80211Unicast(packetReceivedFromPeer)
attr title "packets received: unicast, count"
scalar FragmentationShowcase.wifiHost1.wlan[0].mac.dcf packetReceivedFromPeerUnicast:sum(packetBytes) 0
attr interpolationmode none
attr recordingmode sum(packetBytes)
attr source ieee80211Unicast(packetReceivedFromPeer)
attr title "packets received: unicast, sum(packetBytes)"
scalar FragmentationShowcase.wifiHost1.wlan[0].mac.dcf packetReceivedFromPeerMulticast:count 0
attr interpolationmode none
attr recordingmode count
attr source ieee80211Multicast(packetReceivedFromPeer)
attr title "packets received: multicast, count"
scalar FragmentationShowcase.wifiHost1.wlan[0].mac.dcf packetReceivedFromPeerMulticast:sum(packetBytes) 0
attr interpolationmode none
attr recordingmode sum(packetBytes)
attr source ieee80211Multicast(packetReceivedFromPeer)
attr title "packets received: multicast, sum(packetBytes)"
scalar FragmentationShowcase.wifiHost1.wlan[0].mac.dcf packetReceivedFromPeerBroadcast:count 0
attr interpolationmode none
attr recordingmode count
attr source ieee80211Broadcast(packetReceivedFromPeer)
attr title "packets received: broadcast, count"
scalar FragmentationShowcase.wifiHost1.wlan[0].mac.dcf packetReceivedFromPeerBroadcast:sum(packetBytes) 0
attr interpolationmode none
attr recordingmode sum(packetBytes)
attr source ieee80211Broadcast(packetReceivedFromPeer)
attr title "packets received: broadcast, sum(packetBytes)"
scalar FragmentationShowcase.wifiHost1.wlan[0].mac.dcf packetReceivedFromPeerWithRetry:count 0
attr interpolationmode none
attr recordingmode count
attr source ieee80211Retry(packetReceivedFromPeer)
attr title "packets received: with retry, count"
scalar FragmentationShowcase.wifiHost1.wlan[0].mac.dcf packetReceivedFromPeerWithRetry:sum(packetBytes) 0
attr interpolationmode none
attr recordingmode sum(packetBytes)
attr source ieee80211Retry(packetReceivedFromPeer)
attr title "packets received: with retry, sum(packetBytes)"
scalar FragmentationShowcase.wifiHost1.wlan[0].mac.dcf packetReceivedFromPeerWithoutRetry:count 0
attr interpolationmode none
attr recordingmode count
attr source ieee80211NotRetry(packetReceivedFromPeer)
attr title "packets received: without retry, count"
scalar FragmentationShowcase.wifiHost1.wlan[0].mac.dcf packetReceivedFromPeerWithoutRetry:sum(packetBytes) 0
attr interpolationmode none
attr recordingmode sum(packetBytes)
attr source ieee80211NotRetry(packetReceivedFromPeer)
attr title "packets received: without retry, sum(packetBytes)"
scalar FragmentationShowcase.wifiHost1.wlan[0].mac.dcf packetSentToPeer:count 0
attr interpolationmode none
attr recordingmode count
attr title "packets sent, count"
scalar FragmentationShowcase.wifiHost1.wlan[0].mac.dcf packetSentToPeer:sum(packetBytes) 0
attr interpolationmode none
attr recordingmode sum(packetBytes)
attr title "packets sent, sum(packetBytes)"
scalar FragmentationShowcase.wifiHost1.wlan[0].mac.dcf packetSentToPeerUnicast:count 0
attr interpolationmode none
attr recordingmode count
attr source ieee80211Unicast(packetSentToPeer)
attr title "packets sent: unicast, count"
scalar FragmentationShowcase.wifiHost1.wlan[0].mac.dcf packetSentToPeerUnicast:sum(packetBytes) 0
attr interpolationmode none
attr recordingmode sum(packetBytes)
attr source ieee80211Unicast(packetSentToPeer)
attr title "packets sent: unicast, sum(packetBytes)"
scalar FragmentationShowcase.wifiHost1.wlan[0].mac.dcf packetSentToPeerMulticast:count 0
attr interpolationmode none
attr recordingmode count
attr source ieee80211Multicast(packetSentToPeer)
attr title "packets sent: multicast, count"
scalar FragmentationShowcase.wifiHost1.wlan[0].mac.dcf packetSentToPeerMulticast:sum(packetBytes) 0
attr interpolationmode none
attr recordingmode sum(packetBytes)
attr source ieee80211Multicast(packetSentToPeer)
attr title "packets sent: multicast, sum(packetBytes)"
scalar FragmentationShowcase.wifiHost1.wlan[0].mac.dcf packetSentToPeerBroadcast:count 0
attr interpolationmode none
attr recordingmode count
attr source ieee80211Broadcast(packetSentToPeer)
attr title "packets sent: broadcast , count"
scalar FragmentationShowcase.wifiHost1.wlan[0].mac.dcf packetSentToPeerBroadcast:sum(packetBytes) 0
attr interpolationmode none
attr recordingmode sum(packetBytes)
attr source ieee80211Broadcast(packetSentToPeer)
attr title "packets sent: broadcast , sum(packetBytes)"
scalar FragmentationShowcase.wifiHost1.wlan[0].mac.dcf packetSentToPeerWithRetry:count 0
attr interpolationmode none
attr recordingmode count
attr source ieee80211Retry(packetSentToPeer)
attr title "packets sent: with retry, count"
scalar FragmentationShowcase.wifiHost1.wlan[0].mac.dcf packetSentToPeerWithRetry:sum(packetBytes) 0
attr interpolationmode none
attr recordingmode sum(packetBytes)
attr source ieee80211Retry(packetSentToPeer)
attr title "packets sent: with retry, sum(packetBytes)"
scalar FragmentationShowcase.wifiHost1.wlan[0].mac.dcf packetSentToPeerWithoutRetry:count 0
attr interpolationmode none
attr recordingmode count
attr source ieee80211NotRetry(packetSentToPeer)
attr title "packets sent: without retry, count"
scalar FragmentationShowcase.wifiHost1.wlan[0].mac.dcf packetSentToPeerWithoutRetry:sum(packetBytes) 0
attr interpolationmode none
attr recordingmode sum(packetBytes)
attr source ieee80211NotRetry(packetSentToPeer)
attr title "packets sent: without retry, sum(packetBytes)"
scalar FragmentationShowcase.wifiHost1.wlan[0].mac.dcf packetDrop:count 0
attr interpolationmode none
attr recordingmode count
attr source packetDropped
attr title "packet drops, count"
scalar FragmentationShowcase.wifiHost1.wlan[0].mac.dcf packetDrop:sum(packetBytes) 0
attr interpolationmode none
attr recordingmode sum(packetBytes)
attr source packetDropped
attr title "packet drops, sum(packetBytes)"
scalar FragmentationShowcase.wifiHost1.wlan[0].mac.dcf packetDropNotAddressedToUs:count 0
attr interpolationmode none
attr recordingmode count
attr source packetDropReasonIsNotAddressedToUs(packetDropped)
attr title "packet drops: not addressed to us, count"
scalar FragmentationShowcase.wifiHost1.wlan[0].mac.dcf packetDropNotAddressedToUs:sum(packetBytes) 0
attr interpolationmode none
attr recordingmode sum(packetBytes)
attr source packetDropReasonIsNotAddressedToUs(packetDropped)
attr title "packet drops: not addressed to us, sum(packetBytes)"
scalar FragmentationShowcase.wifiHost1.wlan[0].mac.dcf packetDropQueueOverflow:count 0
attr interpolationmode none
attr recordingmode count
attr source packetDropReasonIsQueueOverflow(packetDropped)
attr title "packet drops: queue overflow, count"
scalar FragmentationShowcase.wifiHost1.wlan[0].mac.dcf packetDropQueueOverflow:sum(packetBytes) 0
attr interpolationmode none
attr recordingmode sum(packetBytes)
attr source packetDropReasonIsQueueOverflow(packetDropped)
attr title "packet drops: queue overflow, sum(packetBytes)"
scalar FragmentationShowcase.wifiHost1.wlan[0].mac.dcf packetDropRetryLimitReached:count 0
attr interpolationmode none
attr recordingmode count
attr source packetDropReasonIsRetryLimitReached(packetDropped)
attr title "packet drops: retry limit reached, count"
scalar FragmentationShowcase.wifiHost1.wlan[0].mac.dcf packetDropRetryLimitReached:sum(packetBytes) 0
attr interpolationmode none
attr recordingmode sum(packetBytes)
attr source packetDropReasonIsRetryLimitReached(packetDropped)
attr title "packet drops: retry limit reached, sum(packetBytes)"
scalar FragmentationShowcase.wifiHost1.wlan[0].mac.dcf linkBroken:count 0
attr interpolationmode none
attr recordingmode count
attr title "link breaks, count"
scalar FragmentationShowcase.wifiHost1.wlan[0].mac.hcf.edca.edcaf[0].pendingQueue queueLength:last 0
attr autoWarmupFilter false
attr interpolationmode sample-hold
attr recordingmode last
attr source "warmup(atomic(constant0(packetPushEnded) + count(packetPushStarted) - count(packetPulled) - count(packetRemoved) - count(packetDropped)))"
attr title "queue length, last"
attr unit pk
scalar FragmentationShowcase.wifiHost1.wlan[0].mac.hcf.edca.edcaf[0].pendingQueue queueLength:max 0
attr autoWarmupFilter false
attr interpolationmode sample-hold
attr recordingmode max
attr source "warmup(atomic(constant0(packetPushEnded) + count(packetPushStarted) - count(packetPulled) - count(packetRemoved) - count(packetDropped)))"
attr title "queue length, max"
attr unit pk
scalar FragmentationShowcase.wifiHost1.wlan[0].mac.hcf.edca.edcaf[0].pendingQueue queueLength:timeavg 0
attr autoWarmupFilter false
attr interpolationmode sample-hold
attr recordingmode timeavg
attr source "warmup(atomic(constant0(packetPushEnded) + count(packetPushStarted) - count(packetPulled) - count(packetRemoved) - count(packetDropped)))"
attr title "queue length, timeavg"
attr unit pk
scalar FragmentationShowcase.wifiHost1.wlan[0].mac.hcf.edca.edcaf[0].pendingQueue queueBitLength:last 0
attr autoWarmupFilter false
attr interpolationmode sample-hold
attr recordingmode last
attr source "warmup(atomic(constant0(packetPushEnded) + sum(packetLength(packetPushStarted)) - sum(packetLength(packetPulled)) - sum(packetLength(packetRemoved)) - sum(packetLength(packetDropped))))"
attr title "queue bit length, last"
attr unit b
scalar FragmentationShowcase.wifiHost1.wlan[0].mac.hcf.edca.edcaf[0].pendingQueue queueBitLength:max 0
attr autoWarmupFilter false
attr interpolationmode sample-hold
attr recordingmode max
attr source "warmup(atomic(constant0(packetPushEnded) + sum(packetLength(packetPushStarted)) - sum(packetLength(packetPulled)) - sum(packetLength(packetRemoved)) - sum(packetLength(packetDropped))))"
attr title "queue bit length, max"
attr unit b
scalar FragmentationShowcase.wifiHost1.wlan[0].mac.hcf.edca.edcaf[0].pendingQueue queueBitLength:timeavg 0
attr autoWarmupFilter false
attr interpolationmode sample-hold
attr recordingmode timeavg
attr source "warmup(atomic(constant0(packetPushEnded) + sum(packetLength(packetPushStarted)) - sum(packetLength(packetPulled)) - sum(packetLength(packetRemoved)) - sum(packetLength(packetDropped))))"
attr title "queue bit length, timeavg"
attr unit b
statistic FragmentationShowcase.wifiHost1.wlan[0].mac.hcf.edca.edcaf[0].pendingQueue queueingTime:histogram
field count 0
field mean -nan
field stddev nan
field min nan
field max nan
field sum 0
field sqrsum 0
attr interpolationmode none
attr recordingmode histogram
attr source queueingTime(packetPulled)
attr title "queueing times"
attr unit s
bin	-inf	0
bin	0	0
bin	1	0
scalar FragmentationShowcase.wifiHost1.wlan[0].mac.hcf.edca.edcaf[0].pendingQueue outgoingPackets:count 0
attr recordingmode count
attr source packetPulled
attr title "outgoing packets, count"
attr unit pk
scalar FragmentationShowcase.wifiHost1.wlan[0].mac.hcf.edca.edcaf[0].pendingQueue outgoingPacketLengths:sum 0
attr interpolationmode none
attr recordingmode sum
attr source packetLength(packetPulled)
attr title "outgoing packet lengths, sum"
attr unit b
statistic FragmentationShowcase.wifiHost1.wlan[0].mac.hcf.edca.edcaf[0].pendingQueue outgoingPacketLengths:histogram
field count 0
field mean -nan
field stddev nan
field min nan
field max nan
field sum 0
field sqrsum 0
attr interpolationmode none
attr recordingmode histogram
attr source packetLength(packetPulled)
attr title "outgoing packet lengths"
attr unit b
bin	-inf	0
bin	0	0
bin	1	0
statistic FragmentationShowcase.wifiHost1.wlan[0].mac.hcf.edca.edcaf[0].pendingQueue flowQueueingTime:histogram
field count 0
field mean -nan
field stddev nan
field min nan
field max nan
field sum 0
field sqrsum 0
attr interpolationmode none
attr recordingmode histogram
attr source queueingTime(demuxFlow(packetPulled))
attr title "flow queueing times"
attr unit s
bin	-inf	0
bin	0	0
bin	1	0
scalar FragmentationShowcase.wifiHost1.wlan[0].mac.hcf.edca.edcaf[0].pendingQueue incomingPackets:count 0
attr recordingmode count
attr source packetPushStarted
attr title "incoming packets, count"
attr unit pk
scalar FragmentationShowcase.wifiHost1.wlan[0].mac.hcf.edca.edcaf[0].pendingQueue incomingPacketLengths:sum 0
attr interpolationmode none
attr recordingmode sum
attr source packetLength(packetPushStarted)
attr title "incoming packet lengths, sum"
attr unit b
statistic FragmentationShowcase.wifiHost1.wlan[0].mac.hcf.edca.edcaf[0].pendingQueue incomingPacketLengths:histogram
field count 0
field mean -nan
field stddev nan
field min nan
field max nan
field sum 0
field sqrsum 0
attr interpolationmode none
attr recordingmode histogram
attr source packetLength(packetPushStarted)
attr title "incoming packet lengths"
attr unit b
bin	-inf	0
bin	0	0
bin	1	0
scalar FragmentationShowcase.wifiHost1.wlan[0].mac.hcf.edca.edcaf[0].pendingQueue droppedPacketsQueueOverflow:count 0
attr interpolationmode none
attr recordingmode count
attr source packetDropReasonIsQueueOverflow(packetDropped)
attr title "dropped packets: queue overflow, count"
attr unit pk
scalar FragmentationShowcase.wifiHost1.wlan[0].mac.hcf.edca.edcaf[0].pendingQueue droppedPacketLengthsQueueOverflow:sum 0
attr interpolationmode none
attr recordingmode sum
attr source packetLength(packetDropReasonIsQueueOverflow(packetDropped))
attr title "dropped packet lengths: queue overflow, sum"
attr unit b
statistic FragmentationShowcase.wifiHost1.wlan[0].mac.hcf.edca.edcaf[0].inProgressFrames queueingTime:histogram
field count 0
field mean -nan
field stddev nan
field min nan
field max nan
field sum 0
field sqrsum 0
attr interpolationmode none
attr recordingmode histogram
attr source queueingTime(packetDequeued)
attr title "queueing times"
bin	-inf	0
bin	0	0
bin	1	0
scalar FragmentationShowcase.wifiHost1.wlan[0].mac.hcf.edca.edcaf[0].inProgressFrames queueLength:max 0
attr autoWarmupFilter false
attr interpolationmode sample-hold
attr recordingmode max
attr source "warmup(count(packetEnqueued) - count(packetDequeued))"
attr title "queue length, max"
scalar FragmentationShowcase.wifiHost1.wlan[0].mac.hcf.edca.edcaf[0].inProgressFrames queueLength:timeavg 0
attr autoWarmupFilter false
attr interpolationmode sample-hold
attr recordingmode timeavg
attr source "warmup(count(packetEnqueued) - count(packetDequeued))"
attr title "queue length, timeavg"
scalar FragmentationShowcase.wifiHost1.wlan[0].mac.hcf.edca.edcaf[0].contention channelAccessGranted:count 0
attr recordingmode count
attr title "channel access granted, count"
scalar FragmentationShowcase.wifiHost1.wlan[0].mac.hcf.edca.edcaf[0].contention stateChanged:count 42022
attr enum IDLE,DEFER,IFS_AND_BACKOFF
attr interpolationmode none
attr recordingmode count
attr title "contention state changed, count"
attr type enum
scalar FragmentationShowcase.wifiHost1.wlan[0].mac.hcf.edca.edcaf[0].txopProcedure txopEnded:count 0
attr interpolationmode none
attr recordingmode count
attr source txopEnded
attr title "txops ended, count"
statistic FragmentationShowcase.wifiHost1.wlan[0].mac.hcf.edca.edcaf[0].txopProcedure txopDuration:histogram
field count 0
field mean -nan
field stddev nan
field min nan
field max nan
field sum 0
field sqrsum 0
attr interpolationmode none
attr recordingmode histogram
attr source txopDuration(txopEnded)
attr title "txop duration"
bin	-inf	0
bin	0	0
bin	1	0
scalar FragmentationShowcase.wifiHost1.wlan[0].mac.hcf.edca.edcaf[0].recoveryProcedure retryLimitReached:count 0
attr recordingmode count
attr title "retry limit reached, count"
scalar FragmentationShowcase.wifiHost1.wlan[0].mac.hcf.edca.edcaf[0] channelOwnershipChanged:count 0
attr interpolationmode sample-hold
attr recordingmode count
attr title "channel ownership, count"
scalar FragmentationShowcase.wifiHost1.wlan[0].mac.hcf.edca.edcaf[0] packetSentToPeer:count 0
attr interpolationmode none
attr recordingmode count
attr title "packets sent, count"
scalar FragmentationShowcase.wifiHost1.wlan[0].mac.hcf.edca.edcaf[0] packetSentToPeer:sum(packetBytes) 0
attr interpolationmode none
attr recordingmode sum(packetBytes)
attr title "packets sent, sum(packetBytes)"
scalar FragmentationShowcase.wifiHost1.wlan[0].mac.hcf.edca.edcaf[0] packetSentToPeerUnicast:count 0
attr interpolationmode none
attr recordingmode count
attr source ieee80211Unicast(packetSentToPeer)
attr title "packets sent: unicast, count"
scalar FragmentationShowcase.wifiHost1.wlan[0].mac.hcf.edca.edcaf[0] packetSentToPeerUnicast:sum(packetBytes) 0
attr interpolationmode none
attr recordingmode sum(packetBytes)
attr source ieee80211Unicast(packetSentToPeer)
attr title "packets sent: unicast, sum(packetBytes)"
scalar FragmentationShowcase.wifiHost1.wlan[0].mac.hcf.edca.edcaf[0] packetSentToPeerMulticast:count 0
attr interpolationmode none
attr recordingmode count
attr source ieee80211Multicast(packetSentToPeer)
attr title "packets sent: multicast, count"
scalar FragmentationShowcase.wifiHost1.wlan[0].mac.hcf.edca.edcaf[0] packetSentToPeerMulticast:sum(packetBytes) 0
attr interpolationmode none
attr recordingmode sum(packetBytes)
attr source ieee80211Multicast(packetSentToPeer)
attr title "packets sent: multicast, sum(packetBytes)"
scalar FragmentationShowcase.wifiHost1.wlan[0].mac.hcf.edca.edcaf[0] packetSentToPeerBroadcast:count 0
attr interpolationmode none
attr recordingmode count
attr source ieee80211Broadcast(packetSentToPeer)
attr title "packets sent: broadcast , count"
scalar FragmentationShowcase.wifiHost1.wlan[0].mac.hcf.edca.edcaf[0] packetSentToPeerBroadcast:sum(packetBytes) 0
attr interpolationmode none
attr recordingmode sum(packetBytes)
attr source ieee80211Broadcast(packetSentToPeer)
attr title "packets sent: broadcast , sum(packetBytes)"
scalar FragmentationShowcase.wifiHost1.wlan[0].mac.hcf.edca.edcaf[0] packetSentToPeerWithRetry:count 0
attr interpolationmode none
attr recordingmode count
attr source ieee80211Retry(packetSentToPeer)
attr title "packets sent: with retry, count"
scalar FragmentationShowcase.wifiHost1.wlan[0].mac.hcf.edca.edcaf[0] packetSentToPeerWithRetry:sum(packetBytes) 0
attr interpolationmode none
attr recordingmode sum(packetBytes)
attr source ieee80211Retry(packetSentToPeer)
attr title "packets sent: with retry, sum(packetBytes)"
scalar FragmentationShowcase.wifiHost1.wlan[0].mac.hcf.edca.edcaf[0] packetSentToPeerWithoutRetry:count 0
attr interpolationmode none
attr recordingmode count
attr source ieee80211NotRetry(packetSentToPeer)
attr title "packets sent: without retry, count"
scalar FragmentationShowcase.wifiHost1.wlan[0].mac.hcf.edca.edcaf[0] packetSentToPeerWithoutRetry:sum(packetBytes) 0
attr interpolationmode none
attr recordingmode sum(packetBytes)
attr source ieee80211NotRetry(packetSentToPeer)
attr title "packets sent: without retry, sum(packetBytes)"
scalar FragmentationShowcase.wifiHost1.wlan[0].mac.hcf.edca.edcaf[1].pendingQueue queueLength:last 0
attr autoWarmupFilter false
attr interpolationmode sample-hold
attr recordingmode last
attr source "warmup(atomic(constant0(packetPushEnded) + count(packetPushStarted) - count(packetPulled) - count(packetRemoved) - count(packetDropped)))"
attr title "queue length, last"
attr unit pk
scalar FragmentationShowcase.wifiHost1.wlan[0].mac.hcf.edca.edcaf[1].pendingQueue queueLength:max 0
attr autoWarmupFilter false
attr interpolationmode sample-hold
attr recordingmode max
attr source "warmup(atomic(constant0(packetPushEnded) + count(packetPushStarted) - count(packetPulled) - count(packetRemoved) - count(packetDropped)))"
attr title "queue length, max"
attr unit pk
scalar FragmentationShowcase.wifiHost1.wlan[0].mac.hcf.edca.edcaf[1].pendingQueue queueLength:timeavg 0
attr autoWarmupFilter false
attr interpolationmode sample-hold
attr recordingmode timeavg
attr source "warmup(atomic(constant0(packetPushEnded) + count(packetPushStarted) - count(packetPulled) - count(packetRemoved) - count(packetDropped)))"
attr title "queue length, timeavg"
attr unit pk
scalar FragmentationShowcase.wifiHost1.wlan[0].mac.hcf.edca.edcaf[1].pendingQueue queueBitLength:last 0
attr autoWarmupFilter false
attr interpolationmode sample-hold
attr recordingmode last
attr source "warmup(atomic(constant0(packetPushEnded) + sum(packetLength(packetPushStarted)) - sum(packetLength(packetPulled)) - sum(packetLength(packetRemoved)) - sum(packetLength(packetDropped))))"
attr title "queue bit length, last"
attr unit b
scalar FragmentationShowcase.wifiHost1.wlan[0].mac.hcf.edca.edcaf[1].pendingQueue queueBitLength:max 0
attr autoWarmupFilter false
attr interpolationmode sample-hold
attr recordingmode max
attr source "warmup(atomic(constant0(packetPushEnded) + sum(packetLength(packetPushStarted)) - sum(packetLength(packetPulled)) - sum(packetLength(packetRemoved)) - sum(packetLength(packetDropped))))"
attr title "queue bit length, max"
attr unit b
scalar FragmentationShowcase.wifiHost1.wlan[0].mac.hcf.edca.edcaf[1].pendingQueue queueBitLength:timeavg 0
attr autoWarmupFilter false
attr interpolationmode sample-hold
attr recordingmode timeavg
attr source "warmup(atomic(constant0(packetPushEnded) + sum(packetLength(packetPushStarted)) - sum(packetLength(packetPulled)) - sum(packetLength(packetRemoved)) - sum(packetLength(packetDropped))))"
attr title "queue bit length, timeavg"
attr unit b
statistic FragmentationShowcase.wifiHost1.wlan[0].mac.hcf.edca.edcaf[1].pendingQueue queueingTime:histogram
field count 0
field mean -nan
field stddev nan
field min nan
field max nan
field sum 0
field sqrsum 0
attr interpolationmode none
attr recordingmode histogram
attr source queueingTime(packetPulled)
attr title "queueing times"
attr unit s
bin	-inf	0
bin	0	0
bin	1	0
scalar FragmentationShowcase.wifiHost1.wlan[0].mac.hcf.edca.edcaf[1].pendingQueue outgoingPackets:count 0
attr recordingmode count
attr source packetPulled
attr title "outgoing packets, count"
attr unit pk
scalar FragmentationShowcase.wifiHost1.wlan[0].mac.hcf.edca.edcaf[1].pendingQueue outgoingPacketLengths:sum 0
attr interpolationmode none
attr recordingmode sum
attr source packetLength(packetPulled)
attr title "outgoing packet lengths, sum"
attr unit b
statistic FragmentationShowcase.wifiHost1.wlan[0].mac.hcf.edca.edcaf[1].pendingQueue outgoingPacketLengths:histogram
field count 0
field mean -nan
field stddev nan
field min nan
field max nan
field sum 0
field sqrsum 0
attr interpolationmode none
attr recordingmode histogram
attr source packetLength(packetPulled)
attr title "outgoing packet lengths"
attr unit b
bin	-inf	0
bin	0	0
bin	1	0
statistic FragmentationShowcase.wifiHost1.wlan[0].mac.hcf.edca.edcaf[1].pendingQueue flowQueueingTime:histogram
field count 0
field mean -nan
field stddev nan
field min nan
field max nan
field sum 0
field sqrsum 0
attr interpolationmode none
attr recordingmode histogram
attr source queueingTime(demuxFlow(packetPulled))
attr title "flow queueing times"
attr unit s
bin	-inf	0
bin	0	0
bin	1	0
scalar FragmentationShowcase.wifiHost1.wlan[0].mac.hcf.edca.edcaf[1].pendingQueue incomingPackets:count 0
attr recordingmode count
attr source packetPushStarted
attr title "incoming packets, count"
attr unit pk
scalar FragmentationShowcase.wifiHost1.wlan[0].mac.hcf.edca.edcaf[1].pendingQueue incomingPacketLengths:sum 0
attr interpolationmode none
attr recordingmode sum
attr source packetLength(packetPushStarted)
attr title "incoming packet lengths, sum"
attr unit b
statistic FragmentationShowcase.wifiHost1.wlan[0].mac.hcf.edca.edcaf[1].pendingQueue incomingPacketLengths:histogram
field count 0
field mean -nan
field stddev nan
field min nan
field max nan
field sum 0
field sqrsum 0
attr interpolationmode none
attr recordingmode histogram
attr source packetLength(packetPushStarted)
attr title "incoming packet lengths"
attr unit b
bin	-inf	0
bin	0	0
bin	1	0
scalar FragmentationShowcase.wifiHost1.wlan[0].mac.hcf.edca.edcaf[1].pendingQueue droppedPacketsQueueOverflow:count 0
attr interpolationmode none
attr recordingmode count
attr source packetDropReasonIsQueueOverflow(packetDropped)
attr title "dropped packets: queue overflow, count"
attr unit pk
scalar FragmentationShowcase.wifiHost1.wlan[0].mac.hcf.edca.edcaf[1].pendingQueue droppedPacketLengthsQueueOverflow:sum 0
attr interpolationmode none
attr recordingmode sum
attr source packetLength(packetDropReasonIsQueueOverflow(packetDropped))
attr title "dropped packet lengths: queue overflow, sum"
attr unit b
statistic FragmentationShowcase.wifiHost1.wlan[0].mac.hcf.edca.edcaf[1].inProgressFrames queueingTime:histogram
field count 0
field mean -nan
field stddev nan
field min nan
field max nan
field sum 0
field sqrsum 0
attr interpolationmode none
attr recordingmode histogram
attr source queueingTime(packetDequeued)
attr title "queueing times"
bin	-inf	0
bin	0	0
bin	1	0
scalar FragmentationShowcase.wifiHost1.wlan[0].mac.hcf.edca.edcaf[1].inProgressFrames queueLength:max 0
attr autoWarmupFilter false
attr interpolationmode sample-hold
attr recordingmode max
attr source "warmup(count(packetEnqueued) - count(packetDequeued))"
attr title "queue length, max"
scalar FragmentationShowcase.wifiHost1.wlan[0].mac.hcf.edca.edcaf[1].inProgressFrames queueLength:timeavg 0
attr autoWarmupFilter false
attr interpolationmode sample-hold
attr recordingmode timeavg
attr source "warmup(count(packetEnqueued) - count(packetDequeued))"
attr title "queue length, timeavg"
scalar FragmentationShowcase.wifiHost1.wlan[0].mac.hcf.edca.edcaf[1].contention channelAccessGranted:count 0
attr recordingmode count
attr title "channel access granted, count"
scalar FragmentationShowcase.wifiHost1.wlan[0].mac.hcf.edca.edcaf[1].contention stateChanged:count 42022
attr enum IDLE,DEFER,IFS_AND_BACKOFF
attr interpolationmode none
attr recordingmode count
attr title "contention state changed, count"
attr type enum
scalar FragmentationShowcase.wifiHost1.wlan[0].mac.hcf.edca.edcaf[1].txopProcedure txopEnded:count 0
attr interpolationmode none
attr recordingmode count
attr source txopEnded
attr title "txops ended, count"
statistic FragmentationShowcase.wifiHost1.wlan[0].mac.hcf.edca.edcaf[1].txopProcedure txopDuration:histogram
field count 0
field mean -nan
field stddev nan
field min nan
field max nan
field sum 0
field sqrsum 0
attr interpolationmode none
attr recordingmode histogram
attr source txopDuration(txopEnded)
attr title "txop duration"
bin	-inf	0
bin	0	0
bin	1	0
scalar FragmentationShowcase.wifiHost1.wlan[0].mac.hcf.edca.edcaf[1].recoveryProcedure retryLimitReached:count 0
attr recordingmode count
attr title "retry limit reached, count"
scalar FragmentationShowcase.wifiHost1.wlan[0].mac.hcf.edca.edcaf[1] channelOwnershipChanged:count 0
attr interpolationmode sample-hold
attr recordingmode count
attr title "channel ownership, count"
scalar FragmentationShowcase.wifiHost1.wlan[0].mac.hcf.edca.edcaf[1] packetSentToPeer:count 0
attr interpolationmode none
attr recordingmode count
attr title "packets sent, count"
scalar FragmentationShowcase.wifiHost1.wlan[0].mac.hcf.edca.edcaf[1] packetSentToPeer:sum(packetBytes) 0
attr interpolationmode none
attr recordingmode sum(packetBytes)
attr title "packets sent, sum(packetBytes)"
scalar FragmentationShowcase.wifiHost1.wlan[0].mac.hcf.edca.edcaf[1] packetSentToPeerUnicast:count 0
attr interpolationmode none
attr recordingmode count
attr source ieee80211Unicast(packetSentToPeer)
attr title "packets sent: unicast, count"
scalar FragmentationShowcase.wifiHost1.wlan[0].mac.hcf.edca.edcaf[1] packetSentToPeerUnicast:sum(packetBytes) 0
attr interpolationmode none
attr recordingmode sum(packetBytes)
attr source ieee80211Unicast(packetSentToPeer)
attr title "packets sent: unicast, sum(packetBytes)"
scalar FragmentationShowcase.wifiHost1.wlan[0].mac.hcf.edca.edcaf[1] packetSentToPeerMulticast:count 0
attr interpolationmode none
attr recordingmode count
attr source ieee80211Multicast(packetSentToPeer)
attr title "packets sent: multicast, count"
scalar FragmentationShowcase.wifiHost1.wlan[0].mac.hcf.edca.edcaf[1] packetSentToPeerMulticast:sum(packetBytes) 0
attr interpolationmode none
attr recordingmode sum(packetBytes)
attr source ieee80211Multicast(packetSentToPeer)
attr title "packets sent: multicast, sum(packetBytes)"
scalar FragmentationShowcase.wifiHost1.wlan[0].mac.hcf.edca.edcaf[1] packetSentToPeerBroadcast:count 0
attr interpolationmode none
attr recordingmode count
attr source ieee80211Broadcast(packetSentToPeer)
attr title "packets sent: broadcast , count"
scalar FragmentationShowcase.wifiHost1.wlan[0].mac.hcf.edca.edcaf[1] packetSentToPeerBroadcast:sum(packetBytes) 0
attr interpolationmode none
attr recordingmode sum(packetBytes)
attr source ieee80211Broadcast(packetSentToPeer)
attr title "packets sent: broadcast , sum(packetBytes)"
scalar FragmentationShowcase.wifiHost1.wlan[0].mac.hcf.edca.edcaf[1] packetSentToPeerWithRetry:count 0
attr interpolationmode none
attr recordingmode count
attr source ieee80211Retry(packetSentToPeer)
attr title "packets sent: with retry, count"
scalar FragmentationShowcase.wifiHost1.wlan[0].mac.hcf.edca.edcaf[1] packetSentToPeerWithRetry:sum(packetBytes) 0
attr interpolationmode none
attr recordingmode sum(packetBytes)
attr source ieee80211Retry(packetSentToPeer)
attr title "packets sent: with retry, sum(packetBytes)"
scalar FragmentationShowcase.wifiHost1.wlan[0].mac.hcf.edca.edcaf[1] packetSentToPeerWithoutRetry:count 0
attr interpolationmode none
attr recordingmode count
attr source ieee80211NotRetry(packetSentToPeer)
attr title "packets sent: without retry, count"
scalar FragmentationShowcase.wifiHost1.wlan[0].mac.hcf.edca.edcaf[1] packetSentToPeerWithoutRetry:sum(packetBytes) 0
attr interpolationmode none
attr recordingmode sum(packetBytes)
attr source ieee80211NotRetry(packetSentToPeer)
attr title "packets sent: without retry, sum(packetBytes)"
scalar FragmentationShowcase.wifiHost1.wlan[0].mac.hcf.edca.edcaf[2].pendingQueue queueLength:last 100
attr autoWarmupFilter false
attr interpolationmode sample-hold
attr recordingmode last
attr source "warmup(atomic(constant0(packetPushEnded) + count(packetPushStarted) - count(packetPulled) - count(packetRemoved) - count(packetDropped)))"
attr title "queue length, last"
attr unit pk
scalar FragmentationShowcase.wifiHost1.wlan[0].mac.hcf.edca.edcaf[2].pendingQueue queueLength:max 100
attr autoWarmupFilter false
attr interpolationmode sample-hold
attr recordingmode max
attr source "warmup(atomic(constant0(packetPushEnded) + count(packetPushStarted) - count(packetPulled) - count(packetRemoved) - count(packetDropped)))"
attr title "queue length, max"
attr unit pk
scalar FragmentationShowcase.wifiHost1.wlan[0].mac.hcf.edca.edcaf[2].pendingQueue queueLength:timeavg 99.589501625507
attr autoWarmupFilter false
attr interpolationmode sample-hold
attr recordingmode timeavg
attr source "warmup(atomic(constant0(packetPushEnded) + count(packetPushStarted) - count(packetPulled) - count(packetRemoved) - count(packetDropped)))"
attr title "queue length, timeavg"
attr unit pk
scalar FragmentationShowcase.wifiHost1.wlan[0].mac.hcf.edca.edcaf[2].pendingQueue queueBitLength:last 852800
attr autoWarmupFilter false
attr interpolationmode sample-hold
attr recordingmode last
attr source "warmup(atomic(constant0(packetPushEnded) + sum(packetLength(packetPushStarted)) - sum(packetLength(packetPulled)) - sum(packetLength(packetRemoved)) - sum(packetLength(packetDropped))))"
attr title "queue bit length, last"
attr unit b
scalar FragmentationShowcase.wifiHost1.wlan[0].mac.hcf.edca.edcaf[2].pendingQueue queueBitLength:max 852800
attr autoWarmupFilter false
attr interpolationmode sample-hold
attr recordingmode max
attr source "warmup(atomic(constant0(packetPushEnded) + sum(packetLength(packetPushStarted)) - sum(packetLength(packetPulled)) - sum(packetLength(packetRemoved)) - sum(packetLength(packetDropped))))"
attr title "queue bit length, max"
attr unit b
scalar FragmentationShowcase.wifiHost1.wlan[0].mac.hcf.edca.edcaf[2].pendingQueue queueBitLength:timeavg 849299.26986282
attr autoWarmupFilter false
attr interpolationmode sample-hold
attr recordingmode timeavg
attr source "warmup(atomic(constant0(packetPushEnded) + sum(packetLength(packetPushStarted)) - sum(packetLength(packetPulled)) - sum(packetLength(packetRemoved)) - sum(packetLength(packetDropped))))"
attr title "queue bit length, timeavg"
attr unit b
statistic FragmentationShowcase.wifiHost1.wlan[0].mac.hcf.edca.edcaf[2].pendingQueue queueingTime:histogram
field count 3800
field mean 0.25886592533036
field stddev 0.028977592918268
field min 0
field max 0.285175927712
field sum 983.69051625536
field sqrsum 257.83397941533
attr interpolationmode none
attr recordingmode histogram
attr source queueingTime(packetPulled)
attr title "queueing times"
attr unit s
bin	-inf	0
bin	0	3
bin	0.005	2
bin	0.01	3
bin	0.015	2
bin	0.02	3
bin	0.025	3
bin	0.03	2
bin	0.035	2
bin	0.04	2
bin	0.045	3
bin	0.05	3
bin	0.055	3
bin	0.06	3
bin	0.065	2
bin	0.07	1
bin	0.075	3
bin	0.08	4
bin	0.085	1
bin	0.09	4
bin	0.095	2
bin	0.1	3
bin	0.105	2
bin	0.11	2
bin	0.115	1
bin	0.12	3
bin	0.125	2
bin	0.13	2
bin	0.135	2
bin	0.14	3
bin	0.145	2
bin	0.15	2
bin	0.155	2
bin	0.16	2
bin	0.165	3
bin	0.17	2
bin	0.175	3
bin	0.18	2
bin	0.185	2
bin	0.19	4
bin	0.195	3
bin	0.2	3
bin	0.205	2
bin	0.21	2
bin	0.215	2
bin	0.22	2
bin	0.225	3
bin	0.23	4
bin	0.235	3
bin	0.24	41
bin	0.245	158
bin	0.25	365
bin	0.255	663
bin	0.26	987
bin	0.265	650
bin	0.27	491
bin	0.275	280
bin	0.28	44
bin	0.285	2
bin	0.29	0
bin	0.295	0
bin	0.3	0
bin	0.305	0
bin	0.31	0
bin	0.315	0
bin	0.32	0
bin	0.325	0
scalar FragmentationShowcase.wifiHost1.wlan[0].mac.hcf.edca.edcaf[2].pendingQueue outgoingPackets:count 3800
attr recordingmode count
attr source packetPulled
attr title "outgoing packets, count"
attr unit pk
scalar FragmentationShowcase.wifiHost1.wlan[0].mac.hcf.edca.edcaf[2].pendingQueue outgoingPacketLengths:sum 32406400
attr interpolationmode none
attr recordingmode sum
attr source packetLength(packetPulled)
attr title "outgoing packet lengths, sum"
attr unit b
statistic FragmentationShowcase.wifiHost1.wlan[0].mac.hcf.edca.edcaf[2].pendingQueue outgoingPacketLengths:histogram
field count 3800
field mean 8528
field stddev 0
field min 8528
field max 8528
field sum 32406400
field sqrsum 276361779200
attr interpolationmode none
attr recordingmode histogram
attr source packetLength(packetPulled)
attr title "outgoing packet lengths"
attr unit b
bin	-inf	0
bin	8527	0
bin	8528	3800
bin	8529	0
statistic FragmentationShowcase.wifiHost1.wlan[0].mac.hcf.edca.edcaf[2].pendingQueue flowQueueingTime:histogram
field count 0
field mean -nan
field stddev nan
field min nan
field max nan
field sum 0
field sqrsum 0
attr interpolationmode none
attr recordingmode histogram
attr source queueingTime(demuxFlow(packetPulled))
attr title "flow queueing times"
attr unit s
bin	-inf	0
bin	0	0
bin	1	0
scalar FragmentationShowcase.wifiHost1.wlan[0].mac.hcf.edca.edcaf[2].pendingQueue incomingPackets:count 20000
attr recordingmode count
attr source packetPushStarted
attr title "incoming packets, count"
attr unit pk
scalar FragmentationShowcase.wifiHost1.wlan[0].mac.hcf.edca.edcaf[2].pendingQueue incomingPacketLengths:sum 170560000
attr interpolationmode none
attr recordingmode sum
attr source packetLength(packetPushStarted)
attr title "incoming packet lengths, sum"
attr unit b
statistic FragmentationShowcase.wifiHost1.wlan[0].mac.hcf.edca.edcaf[2].pendingQueue incomingPacketLengths:histogram
field count 20000
field mean 8528
field stddev 0
field min 8528
field max 8528
field sum 170560000
field sqrsum 1454535680000
attr interpolationmode none
attr recordingmode histogram
attr source packetLength(packetPushStarted)
attr title "incoming packet lengths"
attr unit b
bin	-inf	0
bin	8527	0
bin	8528	20000
bin	8529	0
scalar FragmentationShowcase.wifiHost1.wlan[0].mac.hcf.edca.edcaf[2].pendingQueue droppedPacketsQueueOverflow:count 16100
attr interpolationmode none
attr recordingmode count
attr source packetDropReasonIsQueueOverflow(packetDropped)
attr title "dropped packets: queue overflow, count"
attr unit pk
scalar FragmentationShowcase.wifiHost1.wlan[0].mac.hcf.edca.edcaf[2].pendingQueue droppedPacketLengthsQueueOverflow:sum 137300800
attr interpolationmode none
attr recordingmode sum
attr source packetLength(packetDropReasonIsQueueOverflow(packetDropped))
attr title "dropped packet lengths: queue overflow, sum"
attr unit b
statistic FragmentationShowcase.wifiHost1.wlan[0].mac.hcf.edca.edcaf[2].inProgressFrames queueingTime:histogram
field count 56993
field mean 0.0022143543023702
field stddev 0.0012068344652543
field min 0.000107397088
field max 0.011719559232
field sum 126.20269475498
field sqrsum 0.36246344581796
attr interpolationmode none
attr recordingmode histogram
attr source queueingTime(packetDequeued)
attr title "queueing times"
bin	-inf	0
bin	0	1
bin	0.0002	1447
bin	0.0004	901
bin	0.0006	4291
bin	0.0008	2836
bin	0.001	1792
bin	0.0012	5071
bin	0.0014	3317
bin	0.0016	4138
bin	0.0018	4075
bin	0.002	3235
bin	0.0022	3299
bin	0.0024	3756
bin	0.0026	2807
bin	0.0028	2532
bin	0.003	2385
bin	0.0032	2205
bin	0.0034	1523
bin	0.0036	1414
bin	0.0038	1182
bin	0.004	923
bin	0.0042	857
bin	0.0044	692
bin	0.0046	495
bin	0.0048	441
bin	0.005	286
bin	0.0052	247
bin	0.0054	206
bin	0.0056	117
bin	0.0058	134
bin	0.006	87
bin	0.0062	90
bin	0.0064	44
bin	0.0066	43
bin	0.0068	14
bin	0.007	13
bin	0.0072	44
bin	0.0074	19
bin	0.0076	17
bin	0.0078	3
bin	0.008	9
bin	0.0082	0
bin	0.0084	1
bin	0.0086	0
bin	0.0088	0
bin	0.009	2
bin	0.0092	1
bin	0.0094	0
bin	0.0096	0
bin	0.0098	0
bin	0.01	0
bin	0.0102	0
bin	0.0104	0
bin	0.0106	0
bin	0.0108	0
bin	0.011	0
bin	0.0112	0
bin	0.0114	0
bin	0.0116	1
bin	0.0118	0
scalar FragmentationShowcase.wifiHost1.wlan[0].mac.hcf.edca.edcaf[2].inProgressFrames queueLength:max 21
attr autoWarmupFilter false
attr interpolationmode sample-hold
attr recordingmode max
attr source "warmup(count(packetEnqueued) - count(packetDequeued))"
attr title "queue length, max"
scalar FragmentationShowcase.wifiHost1.wlan[0].mac.hcf.edca.edcaf[2].inProgressFrames queueLength:timeavg 12.622707867102
attr autoWarmupFilter false
attr interpolationmode sample-hold
attr recordingmode timeavg
attr source "warmup(count(packetEnqueued) - count(packetDequeued))"
attr title "queue length, timeavg"
scalar FragmentationShowcase.wifiHost1.wlan[0].mac.hcf.edca.edcaf[2].contention channelAccessGranted:count 5086
attr recordingmode count
attr title "channel access granted, count"
scalar FragmentationShowcase.wifiHost1.wlan[0].mac.hcf.edca.edcaf[2].contention stateChanged:count 62366
attr enum IDLE,DEFER,IFS_AND_BACKOFF
attr interpolationmode none
attr recordingmode count
attr title "contention state changed, count"
attr type enum
scalar FragmentationShowcase.wifiHost1.wlan[0].mac.hcf.edca.edcaf[2].txopProcedure txopEnded:count 5085
attr interpolationmode none
attr recordingmode count
attr source txopEnded
attr title "txops ended, count"
statistic FragmentationShowcase.wifiHost1.wlan[0].mac.hcf.edca.edcaf[2].txopProcedure txopDuration:histogram
field count 5085
field mean 0.0017416817306934
field stddev 0.0013847707357128
field min 0.000385
field max 0.006066765056
field sum 8.856451600576
field sqrsum 0.025174147463128
attr interpolationmode none
attr recordingmode histogram
attr source txopDuration(txopEnded)
attr title "txop duration"
bin	-inf	0
bin	0	0
bin	0.0001	0
bin	0.0002	0
bin	0.0003	4
bin	0.0004	1409
bin	0.0005	0
bin	0.0006	0
bin	0.0007	0
bin	0.0008	6
bin	0.0009	1015
bin	0.001	0
bin	0.0011	0
bin	0.0012	0
bin	0.0013	1
bin	0.0014	750
bin	0.0015	0
bin	0.0016	0
bin	0.0017	0
bin	0.0018	1
bin	0.0019	518
bin	0.002	0
bin	0.0021	0
bin	0.0022	0
bin	0.0023	1
bin	0.0024	374
bin	0.0025	0
bin	0.0026	0
bin	0.0027	0
bin	0.0028	2
bin	0.0029	281
bin	0.003	1
bin	0.0031	0
bin	0.0032	0
bin	0.0033	1
bin	0.0034	185
bin	0.0035	0
bin	0.0036	0
bin	0.0037	0
bin	0.0038	2
bin	0.0039	151
bin	0.004	0
bin	0.0041	0
bin	0.0042	0
bin	0.0043	1
bin	0.0044	119
bin	0.0045	0
bin	0.0046	0
bin	0.0047	0
bin	0.0048	0
bin	0.0049	82
bin	0.005	0
bin	0.0051	0
bin	0.0052	0
bin	0.0053	0
bin	0.0054	55
bin	0.0055	0
bin	0.0056	0
bin	0.0057	0
bin	0.0058	1
bin	0.0059	33
bin	0.006	92
bin	0.0061	0
bin	0.0062	0
bin	0.0063	0
bin	0.0064	0
bin	0.0065	0
bin	0.0066	0
bin	0.0067	0
bin	0.0068	0
bin	0.0069	0
bin	0.007	0
bin	0.0071	0
bin	0.0072	0
bin	0.0073	0
bin	0.0074	0
bin	0.0075	0
scalar FragmentationShowcase.wifiHost1.wlan[0].mac.hcf.edca.edcaf[2].recoveryProcedure retryLimitReached:count 0
attr recordingmode count
attr title "retry limit reached, count"
scalar FragmentationShowcase.wifiHost1.wlan[0].mac.hcf.edca.edcaf[2] channelOwnershipChanged:count 10171
attr interpolationmode sample-hold
attr recordingmode count
attr title "channel ownership, count"
scalar FragmentationShowcase.wifiHost1.wlan[0].mac.hcf.edca.edcaf[2] packetSentToPeer:count 107430
attr interpolationmode none
attr recordingmode count
attr title "packets sent, count"
scalar FragmentationShowcase.wifiHost1.wlan[0].mac.hcf.edca.edcaf[2] packetSentToPeer:sum(packetBytes) 9621482
attr interpolationmode none
attr recordingmode sum(packetBytes)
attr title "packets sent, sum(packetBytes)"
scalar FragmentationShowcase.wifiHost1.wlan[0].mac.hcf.edca.edcaf[2] packetSentToPeerUnicast:count 107430
attr interpolationmode none
attr recordingmode count
attr source ieee80211Unicast(packetSentToPeer)
attr title "packets sent: unicast, count"
scalar FragmentationShowcase.wifiHost1.wlan[0].mac.hcf.edca.edcaf[2] packetSentToPeerUnicast:sum(packetBytes) 9621482
attr interpolationmode none
attr recordingmode sum(packetBytes)
attr source ieee80211Unicast(packetSentToPeer)
attr title "packets sent: unicast, sum(packetBytes)"
scalar FragmentationShowcase.wifiHost1.wlan[0].mac.hcf.edca.edcaf[2] packetSentToPeerMulticast:count 0
attr interpolationmode none
attr recordingmode count
attr source ieee80211Multicast(packetSentToPeer)
attr title "packets sent: multicast, count"
scalar FragmentationShowcase.wifiHost1.wlan[0].mac.hcf.edca.edcaf[2] packetSentToPeerMulticast:sum(packetBytes) 0
attr interpolationmode none
attr recordingmode sum(packetBytes)
attr source ieee80211Multicast(packetSentToPeer)
attr title "packets sent: multicast, sum(packetBytes)"
scalar FragmentationShowcase.wifiHost1.wlan[0].mac.hcf.edca.edcaf[2] packetSentToPeerBroadcast:count 0
attr interpolationmode none
attr recordingmode count
attr source ieee80211Broadcast(packetSentToPeer)
attr title "packets sent: broadcast , count"
scalar FragmentationShowcase.wifiHost1.wlan[0].mac.hcf.edca.edcaf[2] packetSentToPeerBroadcast:sum(packetBytes) 0
attr interpolationmode none
attr recordingmode sum(packetBytes)
attr source ieee80211Broadcast(packetSentToPeer)
attr title "packets sent: broadcast , sum(packetBytes)"
scalar FragmentationShowcase.wifiHost1.wlan[0].mac.hcf.edca.edcaf[2] packetSentToPeerWithRetry:count 2
attr interpolationmode none
attr recordingmode count
attr source ieee80211Retry(packetSentToPeer)
attr title "packets sent: with retry, count"
scalar FragmentationShowcase.wifiHost1.wlan[0].mac.hcf.edca.edcaf[2] packetSentToPeerWithRetry:sum(packetBytes) 200
attr interpolationmode none
attr recordingmode sum(packetBytes)
attr source ieee80211Retry(packetSentToPeer)
attr title "packets sent: with retry, sum(packetBytes)"
scalar FragmentationShowcase.wifiHost1.wlan[0].mac.hcf.edca.edcaf[2] packetSentToPeerWithoutRetry:count 107428
attr interpolationmode none
attr recordingmode count
attr source ieee80211NotRetry(packetSentToPeer)
attr title "packets sent: without retry, count"
scalar FragmentationShowcase.wifiHost1.wlan[0].mac.hcf.edca.edcaf[2] packetSentToPeerWithoutRetry:sum(packetBytes) 9621282
attr interpolationmode none
attr recordingmode sum(packetBytes)
attr source ieee80211NotRetry(packetSentToPeer)
attr title "packets sent: without retry, sum(packetBytes)"
scalar FragmentationShowcase.wifiHost1.wlan[0].mac.hcf.edca.edcaf[3].pendingQueue queueLength:last 0
attr autoWarmupFilter false
attr interpolationmode sample-hold
attr recordingmode last
attr source "warmup(atomic(constant0(packetPushEnded) + count(packetPushStarted) - count(packetPulled) - count(packetRemoved) - count(packetDropped)))"
attr title "queue length, last"
attr unit pk
scalar FragmentationShowcase.wifiHost1.wlan[0].mac.hcf.edca.edcaf[3].pendingQueue queueLength:max 1
attr autoWarmupFilter false
attr interpolationmode sample-hold
attr recordingmode max
attr source "warmup(atomic(constant0(packetPushEnded) + count(packetPushStarted) - count(packetPulled) - count(packetRemoved) - count(packetDropped)))"
attr title "queue length, max"
attr unit pk
scalar FragmentationShowcase.wifiHost1.wlan[0].mac.hcf.edca.edcaf[3].pendingQueue queueLength:timeavg 5.82191264e-05
attr autoWarmupFilter false
attr interpolationmode sample-hold
attr recordingmode timeavg
attr source "warmup(atomic(constant0(packetPushEnded) + count(packetPushStarted) - count(packetPulled) - count(packetRemoved) - count(packetDropped)))"
attr title "queue length, timeavg"
attr unit pk
scalar FragmentationShowcase.wifiHost1.wlan[0].mac.hcf.edca.edcaf[3].pendingQueue queueBitLength:last 0
attr autoWarmupFilter false
attr interpolationmode sample-hold
attr recordingmode last
attr source "warmup(atomic(constant0(packetPushEnded) + sum(packetLength(packetPushStarted)) - sum(packetLength(packetPulled)) - sum(packetLength(packetRemoved)) - sum(packetLength(packetDropped))))"
attr title "queue bit length, last"
attr unit b
scalar FragmentationShowcase.wifiHost1.wlan[0].mac.hcf.edca.edcaf[3].pendingQueue queueBitLength:max 296
attr autoWarmupFilter false
attr interpolationmode sample-hold
attr recordingmode max
attr source "warmup(atomic(constant0(packetPushEnded) + sum(packetLength(packetPushStarted)) - sum(packetLength(packetPulled)) - sum(packetLength(packetRemoved)) - sum(packetLength(packetDropped))))"
attr title "queue bit length, max"
attr unit b
scalar FragmentationShowcase.wifiHost1.wlan[0].mac.hcf.edca.edcaf[3].pendingQueue queueBitLength:timeavg 0.0172328614144
attr autoWarmupFilter false
attr interpolationmode sample-hold
attr recordingmode timeavg
attr source "warmup(atomic(constant0(packetPushEnded) + sum(packetLength(packetPushStarted)) - sum(packetLength(packetPulled)) - sum(packetLength(packetRemoved)) - sum(packetLength(packetDropped))))"
attr title "queue bit length, timeavg"
attr unit b
statistic FragmentationShowcase.wifiHost1.wlan[0].mac.hcf.edca.edcaf[3].pendingQueue queueingTime:histogram
field count 1
field mean 0.001144191264
field stddev nan
field min 0.001144191264
field max 0.001144191264
field sum 0.001144191264
field sqrsum 1.3091736486139e-06
attr interpolationmode none
attr recordingmode histogram
attr source queueingTime(packetPulled)
attr title "queueing times"
attr unit s
bin	-inf	0
bin	0	1
bin	0.01	0
bin	0.02	0
bin	0.03	0
bin	0.04	0
bin	0.05	0
bin	0.06	0
bin	0.07	0
bin	0.08	0
bin	0.09	0
bin	0.1	0
bin	0.11	0
bin	0.12	0
bin	0.13	0
bin	0.14	0
bin	0.15	0
bin	0.16	0
bin	0.17	0
bin	0.18	0
bin	0.19	0
bin	0.2	0
bin	0.21	0
bin	0.22	0
bin	0.23	0
bin	0.24	0
bin	0.25	0
bin	0.26	0
bin	0.27	0
bin	0.28	0
bin	0.29	0
bin	0.3	0
bin	0.31	0
bin	0.32	0
bin	0.33	0
bin	0.34	0
bin	0.35	0
bin	0.36	0
bin	0.37	0
bin	0.38	0
bin	0.39	0
bin	0.4	0
bin	0.41	0
bin	0.42	0
bin	0.43	0
bin	0.44	0
bin	0.45	0
bin	0.46	0
bin	0.47	0
bin	0.48	0
bin	0.49	0
bin	0.5	0
bin	0.51	0
scalar FragmentationShowcase.wifiHost1.wlan[0].mac.hcf.edca.edcaf[3].pendingQueue outgoingPackets:count 1
attr recordingmode count
attr source packetPulled
attr title "outgoing packets, count"
attr unit pk
scalar FragmentationShowcase.wifiHost1.wlan[0].mac.hcf.edca.edcaf[3].pendingQueue outgoingPacketLengths:sum 296
attr interpolationmode none
attr recordingmode sum
attr source packetLength(packetPulled)
attr title "outgoing packet lengths, sum"
attr unit b
statistic FragmentationShowcase.wifiHost1.wlan[0].mac.hcf.edca.edcaf[3].pendingQueue outgoingPacketLengths:histogram
field count 1
field mean 296
field stddev nan
field min 296
field max 296
field sum 296
field sqrsum 87616
attr interpolationmode none
attr recordingmode histogram
attr source packetLength(packetPulled)
attr title "outgoing packet lengths"
attr unit b
bin	-inf	0
bin	295	0
bin	296	1
bin	297	0
statistic FragmentationShowcase.wifiHost1.wlan[0].mac.hcf.edca.edcaf[3].pendingQueue flowQueueingTime:histogram
field count 0
field mean -nan
field stddev nan
field min nan
field max nan
field sum 0
field sqrsum 0
attr interpolationmode none
attr recordingmode histogram
attr source queueingTime(demuxFlow(packetPulled))
attr title "flow queueing times"
attr unit s
bin	-inf	0
bin	0	0
bin	1	0
scalar FragmentationShowcase.wifiHost1.wlan[0].mac.hcf.edca.edcaf[3].pendingQueue incomingPackets:count 1
attr recordingmode count
attr source packetPushStarted
attr title "incoming packets, count"
attr unit pk
scalar FragmentationShowcase.wifiHost1.wlan[0].mac.hcf.edca.edcaf[3].pendingQueue incomingPacketLengths:sum 296
attr interpolationmode none
attr recordingmode sum
attr source packetLength(packetPushStarted)
attr title "incoming packet lengths, sum"
attr unit b
statistic FragmentationShowcase.wifiHost1.wlan[0].mac.hcf.edca.edcaf[3].pendingQueue incomingPacketLengths:histogram
field count 1
field mean 296
field stddev nan
field min 296
field max 296
field sum 296
field sqrsum 87616
attr interpolationmode none
attr recordingmode histogram
attr source packetLength(packetPushStarted)
attr title "incoming packet lengths"
attr unit b
bin	-inf	0
bin	295	0
bin	296	1
bin	297	0
scalar FragmentationShowcase.wifiHost1.wlan[0].mac.hcf.edca.edcaf[3].pendingQueue droppedPacketsQueueOverflow:count 0
attr interpolationmode none
attr recordingmode count
attr source packetDropReasonIsQueueOverflow(packetDropped)
attr title "dropped packets: queue overflow, count"
attr unit pk
scalar FragmentationShowcase.wifiHost1.wlan[0].mac.hcf.edca.edcaf[3].pendingQueue droppedPacketLengthsQueueOverflow:sum 0
attr interpolationmode none
attr recordingmode sum
attr source packetLength(packetDropReasonIsQueueOverflow(packetDropped))
attr title "dropped packet lengths: queue overflow, sum"
attr unit b
statistic FragmentationShowcase.wifiHost1.wlan[0].mac.hcf.edca.edcaf[3].inProgressFrames queueingTime:histogram
field count 1
field mean 8.7397088e-05
field stddev nan
field min 8.7397088e-05
field max 8.7397088e-05
field sum 8.7397088e-05
field sqrsum 7.6382509908797e-09
attr interpolationmode none
attr recordingmode histogram
attr source queueingTime(packetDequeued)
attr title "queueing times"
bin	-inf	0
bin	0	1
bin	0.01	0
bin	0.02	0
bin	0.03	0
bin	0.04	0
bin	0.05	0
bin	0.06	0
bin	0.07	0
bin	0.08	0
bin	0.09	0
bin	0.1	0
bin	0.11	0
bin	0.12	0
bin	0.13	0
bin	0.14	0
bin	0.15	0
bin	0.16	0
bin	0.17	0
bin	0.18	0
bin	0.19	0
bin	0.2	0
bin	0.21	0
bin	0.22	0
bin	0.23	0
bin	0.24	0
bin	0.25	0
bin	0.26	0
bin	0.27	0
bin	0.28	0
bin	0.29	0
bin	0.3	0
bin	0.31	0
bin	0.32	0
bin	0.33	0
bin	0.34	0
bin	0.35	0
bin	0.36	0
bin	0.37	0
bin	0.38	0
bin	0.39	0
bin	0.4	0
bin	0.41	0
bin	0.42	0
bin	0.43	0
bin	0.44	0
bin	0.45	0
bin	0.46	0
bin	0.47	0
bin	0.48	0
bin	0.49	0
bin	0.5	0
bin	0.51	0
scalar FragmentationShowcase.wifiHost1.wlan[0].mac.hcf.edca.edcaf[3].inProgressFrames queueLength:max 1
attr autoWarmupFilter false
attr interpolationmode sample-hold
attr recordingmode max
attr source "warmup(count(packetEnqueued) - count(packetDequeued))"
attr title "queue length, max"
scalar FragmentationShowcase.wifiHost1.wlan[0].mac.hcf.edca.edcaf[3].inProgressFrames queueLength:timeavg 8.7397088e-06
attr autoWarmupFilter false
attr interpolationmode sample-hold
attr recordingmode timeavg
attr source "warmup(count(packetEnqueued) - count(packetDequeued))"
attr title "queue length, timeavg"
scalar FragmentationShowcase.wifiHost1.wlan[0].mac.hcf.edca.edcaf[3].contention channelAccessGranted:count 1
attr recordingmode count
attr title "channel access granted, count"
scalar FragmentationShowcase.wifiHost1.wlan[0].mac.hcf.edca.edcaf[3].contention stateChanged:count 42026
attr enum IDLE,DEFER,IFS_AND_BACKOFF
attr interpolationmode none
attr recordingmode count
attr title "contention state changed, count"
attr type enum
scalar FragmentationShowcase.wifiHost1.wlan[0].mac.hcf.edca.edcaf[3].txopProcedure txopEnded:count 1
attr interpolationmode none
attr recordingmode count
attr source txopEnded
attr title "txops ended, count"
statistic FragmentationShowcase.wifiHost1.wlan[0].mac.hcf.edca.edcaf[3].txopProcedure txopDuration:histogram
field count 1
field mean 8.7397088e-05
field stddev nan
field min 8.7397088e-05
field max 8.7397088e-05
field sum 8.7397088e-05
field sqrsum 7.6382509908797e-09
attr interpolationmode none
attr recordingmode histogram
attr source txopDuration(txopEnded)
attr title "txop duration"
bin	-inf	0
bin	0	1
bin	0.01	0
bin	0.02	0
bin	0.03	0
bin	0.04	0
bin	0.05	0
bin	0.06	0
bin	0.07	0
bin	0.08	0
bin	0.09	0
bin	0.1	0
bin	0.11	0
bin	0.12	0
bin	0.13	0
bin	0.14	0
bin	0.15	0
bin	0.16	0
bin	0.17	0
bin	0.18	0
bin	0.19	0
bin	0.2	0
bin	0.21	0
bin	0.22	0
bin	0.23	0
bin	0.24	0
bin	0.25	0
bin	0.26	0
bin	0.27	0
bin	0.28	0
bin	0.29	0
bin	0.3	0
bin	0.31	0
bin	0.32	0
bin	0.33	0
bin	0.34	0
bin	0.35	0
bin	0.36	0
bin	0.37	0
bin	0.38	0
bin	0.39	0
bin	0.4	0
bin	0.41	0
bin	0.42	0
bin	0.43	0
bin	0.44	0
bin	0.45	0
bin	0.46	0
bin	0.47	0
bin	0.48	0
bin	0.49	0
bin	0.5	0
bin	0.51	0
scalar FragmentationShowcase.wifiHost1.wlan[0].mac.hcf.edca.edcaf[3].recoveryProcedure retryLimitReached:count 0
attr recordingmode count
attr title "retry limit reached, count"
scalar FragmentationShowcase.wifiHost1.wlan[0].mac.hcf.edca.edcaf[3] channelOwnershipChanged:count 2
attr interpolationmode sample-hold
attr recordingmode count
attr title "channel ownership, count"
scalar FragmentationShowcase.wifiHost1.wlan[0].mac.hcf.edca.edcaf[3] packetSentToPeer:count 1
attr interpolationmode none
attr recordingmode count
attr title "packets sent, count"
scalar FragmentationShowcase.wifiHost1.wlan[0].mac.hcf.edca.edcaf[3] packetSentToPeer:sum(packetBytes) 37
attr interpolationmode none
attr recordingmode sum(packetBytes)
attr title "packets sent, sum(packetBytes)"
scalar FragmentationShowcase.wifiHost1.wlan[0].mac.hcf.edca.edcaf[3] packetSentToPeerUnicast:count 1
attr interpolationmode none
attr recordingmode count
attr source ieee80211Unicast(packetSentToPeer)
attr title "packets sent: unicast, count"
scalar FragmentationShowcase.wifiHost1.wlan[0].mac.hcf.edca.edcaf[3] packetSentToPeerUnicast:sum(packetBytes) 37
attr interpolationmode none
attr recordingmode sum(packetBytes)
attr source ieee80211Unicast(packetSentToPeer)
attr title "packets sent: unicast, sum(packetBytes)"
scalar FragmentationShowcase.wifiHost1.wlan[0].mac.hcf.edca.edcaf[3] packetSentToPeerMulticast:count 0
attr interpolationmode none
attr recordingmode count
attr source ieee80211Multicast(packetSentToPeer)
attr title "packets sent: multicast, count"
scalar FragmentationShowcase.wifiHost1.wlan[0].mac.hcf.edca.edcaf[3] packetSentToPeerMulticast:sum(packetBytes) 0
attr interpolationmode none
attr recordingmode sum(packetBytes)
attr source ieee80211Multicast(packetSentToPeer)
attr title "packets sent: multicast, sum(packetBytes)"
scalar FragmentationShowcase.wifiHost1.wlan[0].mac.hcf.edca.edcaf[3] packetSentToPeerBroadcast:count 0
attr interpolationmode none
attr recordingmode count
attr source ieee80211Broadcast(packetSentToPeer)
attr title "packets sent: broadcast , count"
scalar FragmentationShowcase.wifiHost1.wlan[0].mac.hcf.edca.edcaf[3] packetSentToPeerBroadcast:sum(packetBytes) 0
attr interpolationmode none
attr recordingmode sum(packetBytes)
attr source ieee80211Broadcast(packetSentToPeer)
attr title "packets sent: broadcast , sum(packetBytes)"
scalar FragmentationShowcase.wifiHost1.wlan[0].mac.hcf.edca.edcaf[3] packetSentToPeerWithRetry:count 0
attr interpolationmode none
attr recordingmode count
attr source ieee80211Retry(packetSentToPeer)
attr title "packets sent: with retry, count"
scalar FragmentationShowcase.wifiHost1.wlan[0].mac.hcf.edca.edcaf[3] packetSentToPeerWithRetry:sum(packetBytes) 0
attr interpolationmode none
attr recordingmode sum(packetBytes)
attr source ieee80211Retry(packetSentToPeer)
attr title "packets sent: with retry, sum(packetBytes)"
scalar FragmentationShowcase.wifiHost1.wlan[0].mac.hcf.edca.edcaf[3] packetSentToPeerWithoutRetry:count 1
attr interpolationmode none
attr recordingmode count
attr source ieee80211NotRetry(packetSentToPeer)
attr title "packets sent: without retry, count"
scalar FragmentationShowcase.wifiHost1.wlan[0].mac.hcf.edca.edcaf[3] packetSentToPeerWithoutRetry:sum(packetBytes) 37
attr interpolationmode none
attr recordingmode sum(packetBytes)
attr source ieee80211NotRetry(packetSentToPeer)
attr title "packets sent: without retry, sum(packetBytes)"
scalar FragmentationShowcase.wifiHost1.wlan[0].mac.hcf.edca.mgmtAndNonQoSRecoveryProcedure retryLimitReached:count 0
attr recordingmode count
attr title "retry limit reached, count"
scalar FragmentationShowcase.wifiHost1.wlan[0].mac.hcf.originatorMacDataService packetAggregated:count 0
attr recordingmode count
attr title "packets aggregated, count"
scalar FragmentationShowcase.wifiHost1.wlan[0].mac.hcf.originatorMacDataService packetFragmented:count 3800
attr recordingmode count
attr title "packets fragmented, count"
scalar FragmentationShowcase.wifiHost1.wlan[0].mac.hcf.recipientMacDataService packetDeaggregated:count 0
attr recordingmode count
attr title "packets deaggregated, count"
scalar FragmentationShowcase.wifiHost1.wlan[0].mac.hcf.recipientMacDataService packetDefragmented:count 1
attr recordingmode count
attr title "packets defragmented, count"
scalar FragmentationShowcase.wifiHost1.wlan[0].mac.hcf.recipientMacDataService packetDropDuplicateDetected:count 0
attr interpolationmode none
attr recordingmode count
attr source packetDropReasonIsDuplicateDetected(packetDropped)
attr title "packet drops: duplicate detected, count"
scalar FragmentationShowcase.wifiHost1.wlan[0].mac.hcf.recipientMacDataService packetDropDuplicateDetected:sum(packetBytes) 0
attr interpolationmode none
attr recordingmode sum(packetBytes)
attr source packetDropReasonIsDuplicateDetected(packetDropped)
attr title "packet drops: duplicate detected, sum(packetBytes)"
scalar FragmentationShowcase.wifiHost1.wlan[0].mac.hcf blockAckAgreementDeleted:count 0
attr recordingmode count
attr title "deleted block ack agreements, count"
scalar FragmentationShowcase.wifiHost1.wlan[0].mac.hcf blockAckAgreementAdded:count 1
attr recordingmode count
attr title "added block ack agreements, count"
scalar FragmentationShowcase.wifiHost1.wlan[0].mac.hcf edcaCollisionDetected:count 0
attr recordingmode count
attr title "EDCA collisions detected, count"
scalar FragmentationShowcase.wifiHost1.wlan[0].mac.hcf frameSequenceFinished:count 5086
attr recordingmode count
attr title "finished frame sequences, count"
statistic FragmentationShowcase.wifiHost1.wlan[0].mac.hcf frameSequenceDuration:histogram
field count 5086
field mean 0.0017413564682784
field stddev 0.0013848288558261
field min 8.7397088e-05
field max 0.006066765056
field sum 8.856538997664
field sqrsum 0.025174155101379
attr recordingmode histogram
attr source frameSequenceDuration(frameSequenceFinished)
attr title "frame sequence durations"
bin	-inf	0
bin	0	1
bin	0.0001	0
bin	0.0002	0
bin	0.0003	4
bin	0.0004	1409
bin	0.0005	0
bin	0.0006	0
bin	0.0007	0
bin	0.0008	6
bin	0.0009	1015
bin	0.001	0
bin	0.0011	0
bin	0.0012	0
bin	0.0013	1
bin	0.0014	750
bin	0.0015	0
bin	0.0016	0
bin	0.0017	0
bin	0.0018	1
bin	0.0019	518
bin	0.002	0
bin	0.0021	0
bin	0.0022	0
bin	0.0023	1
bin	0.0024	374
bin	0.0025	0
bin	0.0026	0
bin	0.0027	0
bin	0.0028	2
bin	0.0029	281
bin	0.003	1
bin	0.0031	0
bin	0.0032	0
bin	0.0033	1
bin	0.0034	185
bin	0.0035	0
bin	0.0036	0
bin	0.0037	0
bin	0.0038	2
bin	0.0039	151
bin	0.004	0
bin	0.0041	0
bin	0.0042	0
bin	0.0043	1
bin	0.0044	119
bin	0.0045	0
bin	0.0046	0
bin	0.0047	0
bin	0.0048	0
bin	0.0049	82
bin	0.005	0
bin	0.0051	0
bin	0.0052	0
bin	0.0053	0
bin	0.0054	55
bin	0.0055	0
bin	0.0056	0
bin	0.0057	0
bin	0.0058	1
bin	0.0059	33
bin	0.006	92
bin	0.0061	0
bin	0.0062	0
bin	0.0063	0
bin	0.0064	0
bin	0.0065	0
bin	0.0066	0
bin	0.0067	0
bin	0.0068	0
bin	0.0069	0
bin	0.007	0
bin	0.0071	0
bin	0.0072	0
bin	0.0073	0
bin	0.0074	0
bin	0.0075	0
bin	0.0076	0
statistic FragmentationShowcase.wifiHost1.wlan[0].mac.hcf frameSequenceNumPackets:histogram
field count 5086
field mean 24.646087298466
field stddev 19.377910957204
field min 2
field max 85
field sum 125350
field sqrsum 4998822
attr recordingmode histogram
attr source frameSequenceNumPackets(frameSequenceFinished)
attr title "frame sequences: number of packets"
bin	-inf	0
bin	0	0
bin	2	1
bin	4	0
bin	6	1411
bin	8	2
bin	10	0
bin	12	18
bin	14	1003
bin	16	0
bin	18	0
bin	20	751
bin	22	0
bin	24	0
bin	26	9
bin	28	510
bin	30	0
bin	32	0
bin	34	375
bin	36	0
bin	38	0
bin	40	6
bin	42	277
bin	44	0
bin	46	1
bin	48	186
bin	50	0
bin	52	0
bin	54	4
bin	56	149
bin	58	0
bin	60	0
bin	62	120
bin	64	0
bin	66	0
bin	68	1
bin	70	81
bin	72	0
bin	74	0
bin	76	55
bin	78	0
bin	80	0
bin	82	2
bin	84	124
bin	86	0
bin	88	0
bin	90	0
bin	92	0
bin	94	0
bin	96	0
bin	98	0
bin	100	0
bin	102	0
bin	104	0
bin	106	0
scalar FragmentationShowcase.wifiHost1.wlan[0].mac.hcf packetReceivedFromPeerUnicast:count 12928
attr interpolationmode none
attr recordingmode count
attr source ieee80211Unicast(packetReceivedFromPeer)
attr title "packets received: unicast, count"
scalar FragmentationShowcase.wifiHost1.wlan[0].mac.hcf packetReceivedFromPeerUnicast:sum(packetBytes) 1962733
attr interpolationmode none
attr recordingmode sum(packetBytes)
attr source ieee80211Unicast(packetReceivedFromPeer)
attr title "packets received: unicast, sum(packetBytes)"
scalar FragmentationShowcase.wifiHost1.wlan[0].mac.hcf packetReceivedFromPeerMulticast:count 0
attr interpolationmode none
attr recordingmode count
attr source ieee80211Multicast(packetReceivedFromPeer)
attr title "packets received: multicast, count"
scalar FragmentationShowcase.wifiHost1.wlan[0].mac.hcf packetReceivedFromPeerMulticast:sum(packetBytes) 0
attr interpolationmode none
attr recordingmode sum(packetBytes)
attr source ieee80211Multicast(packetReceivedFromPeer)
attr title "packets received: multicast, sum(packetBytes)"
scalar FragmentationShowcase.wifiHost1.wlan[0].mac.hcf packetReceivedFromPeerBroadcast:count 0
attr interpolationmode none
attr recordingmode count
attr source ieee80211Broadcast(packetReceivedFromPeer)
attr title "packets received: broadcast, count"
scalar FragmentationShowcase.wifiHost1.wlan[0].mac.hcf packetReceivedFromPeerBroadcast:sum(packetBytes) 0
attr interpolationmode none
attr recordingmode sum(packetBytes)
attr source ieee80211Broadcast(packetReceivedFromPeer)
attr title "packets received: broadcast, sum(packetBytes)"
scalar FragmentationShowcase.wifiHost1.wlan[0].mac.hcf packetReceivedFromPeerWithRetry:count 0
attr interpolationmode none
attr recordingmode count
attr source ieee80211Retry(packetReceivedFromPeer)
attr title "packets received: with retry, count"
scalar FragmentationShowcase.wifiHost1.wlan[0].mac.hcf packetReceivedFromPeerWithRetry:sum(packetBytes) 0
attr interpolationmode none
attr recordingmode sum(packetBytes)
attr source ieee80211Retry(packetReceivedFromPeer)
attr title "packets received: with retry, sum(packetBytes)"
scalar FragmentationShowcase.wifiHost1.wlan[0].mac.hcf packetReceivedFromPeerWithoutRetry:count 12928
attr interpolationmode none
attr recordingmode count
attr source ieee80211NotRetry(packetReceivedFromPeer)
attr title "packets received: without retry, count"
scalar FragmentationShowcase.wifiHost1.wlan[0].mac.hcf packetReceivedFromPeerWithoutRetry:sum(packetBytes) 1962733
attr interpolationmode none
attr recordingmode sum(packetBytes)
attr source ieee80211NotRetry(packetReceivedFromPeer)
attr title "packets received: without retry, sum(packetBytes)"
scalar FragmentationShowcase.wifiHost1.wlan[0].mac.hcf packetSentToPeer:count 107432
attr interpolationmode none
attr recordingmode count
attr title "packets sent, count"
scalar FragmentationShowcase.wifiHost1.wlan[0].mac.hcf packetSentToPeer:sum(packetBytes) 9621533
attr interpolationmode none
attr recordingmode sum(packetBytes)
attr title "packets sent, sum(packetBytes)"
scalar FragmentationShowcase.wifiHost1.wlan[0].mac.hcf packetSentToPeerUnicast:count 107432
attr interpolationmode none
attr recordingmode count
attr source ieee80211Unicast(packetSentToPeer)
attr title "packets sent: unicast, count"
scalar FragmentationShowcase.wifiHost1.wlan[0].mac.hcf packetSentToPeerUnicast:sum(packetBytes) 9621533
attr interpolationmode none
attr recordingmode sum(packetBytes)
attr source ieee80211Unicast(packetSentToPeer)
attr title "packets sent: unicast, sum(packetBytes)"
scalar FragmentationShowcase.wifiHost1.wlan[0].mac.hcf packetSentToPeerMulticast:count 0
attr interpolationmode none
attr recordingmode count
attr source ieee80211Multicast(packetSentToPeer)
attr title "packets sent: multicast, count"
scalar FragmentationShowcase.wifiHost1.wlan[0].mac.hcf packetSentToPeerMulticast:sum(packetBytes) 0
attr interpolationmode none
attr recordingmode sum(packetBytes)
attr source ieee80211Multicast(packetSentToPeer)
attr title "packets sent: multicast, sum(packetBytes)"
scalar FragmentationShowcase.wifiHost1.wlan[0].mac.hcf packetSentToPeerBroadcast:count 0
attr interpolationmode none
attr recordingmode count
attr source ieee80211Broadcast(packetSentToPeer)
attr title "packets sent: broadcast , count"
scalar FragmentationShowcase.wifiHost1.wlan[0].mac.hcf packetSentToPeerBroadcast:sum(packetBytes) 0
attr interpolationmode none
attr recordingmode sum(packetBytes)
attr source ieee80211Broadcast(packetSentToPeer)
attr title "packets sent: broadcast , sum(packetBytes)"
scalar FragmentationShowcase.wifiHost1.wlan[0].mac.hcf packetSentToPeerWithRetry:count 2
attr interpolationmode none
attr recordingmode count
attr source ieee80211Retry(packetSentToPeer)
attr title "packets sent: with retry, count"
scalar FragmentationShowcase.wifiHost1.wlan[0].mac.hcf packetSentToPeerWithRetry:sum(packetBytes) 200
attr interpolationmode none
attr recordingmode sum(packetBytes)
attr source ieee80211Retry(packetSentToPeer)
attr title "packets sent: with retry, sum(packetBytes)"
[...]
attr interpolationmode none
attr recordingmode count
attr source packetDropReasonIsNotAddressedToUs(packetDropped)
attr title "packet drops: not addressed to us, count"
scalar FragmentationShowcase.wifiHost2.wlan[0].mac.hcf packetDropNotAddressedToUs:sum(packetBytes) 0
attr interpolationmode none
attr recordingmode sum(packetBytes)
attr source packetDropReasonIsNotAddressedToUs(packetDropped)
attr title "packet drops: not addressed to us, sum(packetBytes)"
scalar FragmentationShowcase.wifiHost2.wlan[0].mac.hcf packetDropQueueOverflow:count 0
attr interpolationmode none
attr recordingmode count
attr source packetDropReasonIsQueueOverflow(packetDropped)
attr title "packet drops: queue overflow, count"
scalar FragmentationShowcase.wifiHost2.wlan[0].mac.hcf packetDropQueueOverflow:sum(packetBytes) 0
attr interpolationmode none
attr recordingmode sum(packetBytes)
attr source packetDropReasonIsQueueOverflow(packetDropped)
attr title "packet drops: queue overflow, sum(packetBytes)"
scalar FragmentationShowcase.wifiHost2.wlan[0].mac.hcf packetDropRetryLimitReached:count 0
attr interpolationmode none
attr recordingmode count
attr source packetDropReasonIsRetryLimitReached(packetDropped)
attr title "packet drops: retry limit reached, count"
scalar FragmentationShowcase.wifiHost2.wlan[0].mac.hcf packetDropRetryLimitReached:sum(packetBytes) 0
attr interpolationmode none
attr recordingmode sum(packetBytes)
attr source packetDropReasonIsRetryLimitReached(packetDropped)
attr title "packet drops: retry limit reached, sum(packetBytes)"
scalar FragmentationShowcase.wifiHost2.wlan[0].mac.hcf linkBroken:count 0
attr interpolationmode none
attr recordingmode count
attr title "link breaks, count"
scalar FragmentationShowcase.wifiHost2.wlan[0].mac packetReceivedFromLower:count 107432
attr interpolationmode none
attr recordingmode count
attr title "packets received from lower layer, count"
scalar FragmentationShowcase.wifiHost2.wlan[0].mac packetReceivedFromLower:sum(packetBytes) 9621533
attr interpolationmode none
attr recordingmode sum(packetBytes)
attr title "packets received from lower layer, sum(packetBytes)"
scalar FragmentationShowcase.wifiHost2.wlan[0].mac packetSentToLower:count 16555
attr interpolationmode none
attr recordingmode count
attr title "packets sent to lower layer, count"
scalar FragmentationShowcase.wifiHost2.wlan[0].mac packetSentToLower:sum(packetBytes) 2513899
attr interpolationmode none
attr recordingmode sum(packetBytes)
attr title "packets sent to lower layer, sum(packetBytes)"
scalar FragmentationShowcase.wifiHost2.wlan[0].mac packetReceivedFromUpper:count 0
attr interpolationmode none
attr recordingmode count
attr title "packets received from upper layer, count"
scalar FragmentationShowcase.wifiHost2.wlan[0].mac packetReceivedFromUpper:sum(packetBytes) 0
attr interpolationmode none
attr recordingmode sum(packetBytes)
attr title "packets received from upper layer, sum(packetBytes)"
scalar FragmentationShowcase.wifiHost2.wlan[0].mac packetSentToUpper:count 3798
attr interpolationmode none
attr recordingmode count
attr title "packets sent to upper layer, count"
scalar FragmentationShowcase.wifiHost2.wlan[0].mac packetSentToUpper:sum(packetBytes) 3934728
attr interpolationmode none
attr recordingmode sum(packetBytes)
attr title "packets sent to upper layer, sum(packetBytes)"
scalar FragmentationShowcase.wifiHost2.wlan[0].mac packetDrop:count 15225
attr interpolationmode none
attr recordingmode count
attr source packetDropped
attr title "packet drops, count"
scalar FragmentationShowcase.wifiHost2.wlan[0].mac packetDrop:sum(packetBytes) 1431374
attr interpolationmode none
attr recordingmode sum(packetBytes)
attr source packetDropped
attr title "packet drops, sum(packetBytes)"
scalar FragmentationShowcase.wifiHost2.wlan[0].mac packetDropIncorrectlyReceived:count 15224
attr interpolationmode none
attr recordingmode count
attr source packetDropReasonIsIncorrectlyReceived(packetDropped)
attr title "packet drops: incorrectly received, count"
scalar FragmentationShowcase.wifiHost2.wlan[0].mac packetDropIncorrectlyReceived:sum(packetBytes) 1431274
attr interpolationmode none
attr recordingmode sum(packetBytes)
attr source packetDropReasonIsIncorrectlyReceived(packetDropped)
attr title "packet drops: incorrectly received, sum(packetBytes)"
scalar FragmentationShowcase.wifiHost2.wlan[0].mac packetDropNotAddressedToUs:count 0
attr interpolationmode none
attr recordingmode count
attr source packetDropReasonIsNotAddressedToUs(packetDropped)
attr title "packet drops: not addressed to us, count"
scalar FragmentationShowcase.wifiHost2.wlan[0].mac packetDropNotAddressedToUs:sum(packetBytes) 0
attr interpolationmode none
attr recordingmode sum(packetBytes)
attr source packetDropReasonIsNotAddressedToUs(packetDropped)
attr title "packet drops: not addressed to us, sum(packetBytes)"
scalar FragmentationShowcase.wifiHost2.wlan[0].mac packetDropQueueOverflow:count 0
attr interpolationmode none
attr recordingmode count
attr source packetDropReasonIsQueueOverflow(packetDropped)
attr title "packet drops: queue overflow, count"
scalar FragmentationShowcase.wifiHost2.wlan[0].mac packetDropQueueOverflow:sum(packetBytes) 0
attr interpolationmode none
attr recordingmode sum(packetBytes)
attr source packetDropReasonIsQueueOverflow(packetDropped)
attr title "packet drops: queue overflow, sum(packetBytes)"
scalar FragmentationShowcase.wifiHost2.wlan[0].mac packetDropRetryLimitReached:count 0
attr interpolationmode none
attr recordingmode count
attr source packetDropReasonIsRetryLimitReached(packetDropped)
attr title "packet drops: retry limit reached, count"
scalar FragmentationShowcase.wifiHost2.wlan[0].mac packetDropRetryLimitReached:sum(packetBytes) 0
attr interpolationmode none
attr recordingmode sum(packetBytes)
attr source packetDropReasonIsRetryLimitReached(packetDropped)
attr title "packet drops: retry limit reached, sum(packetBytes)"
scalar FragmentationShowcase.wifiHost2.wlan[0].mac packetDropDuplicateDetected:count 1
attr interpolationmode none
attr recordingmode count
attr source packetDropReasonIsDuplicateDetected(packetDropped)
attr title "packet drops: duplicate detected, count"
scalar FragmentationShowcase.wifiHost2.wlan[0].mac packetDropDuplicateDetected:sum(packetBytes) 100
attr interpolationmode none
attr recordingmode sum(packetBytes)
attr source packetDropReasonIsDuplicateDetected(packetDropped)
attr title "packet drops: duplicate detected, sum(packetBytes)"
scalar FragmentationShowcase.wifiHost2.wlan[0].mac packetDropOther:count 0
attr interpolationmode none
attr recordingmode count
attr source packetDropReasonIsOther(packetDropped)
attr title "packet drops: other, count"
scalar FragmentationShowcase.wifiHost2.wlan[0].mac packetDropOther:sum(packetBytes) 0
attr interpolationmode none
attr recordingmode sum(packetBytes)
attr source packetDropReasonIsOther(packetDropped)
attr title "packet drops: other, sum(packetBytes)"
scalar FragmentationShowcase.wifiHost2.wlan[0].mac linkBroken:count 0
attr interpolationmode none
attr recordingmode count
attr title "link breaks, count"
statistic FragmentationShowcase.wifiHost2.wlan[0].radio radioChannel:histogram
field count 1
field mean 0
field stddev nan
field min 0
field max 0
field sum 0
field sqrsum 0
attr interpolationmode sample-hold
attr recordingmode histogram
attr source radioChannelChanged
attr title "Radio channel"
bin	-inf	0
bin	-0.5	0
bin	-0.48	0
bin	-0.46	0
bin	-0.44	0
bin	-0.42	0
bin	-0.4	0
bin	-0.38	0
bin	-0.36	0
bin	-0.34	0
bin	-0.32	0
bin	-0.3	0
bin	-0.28	0
bin	-0.26	0
bin	-0.24	0
bin	-0.22	0
bin	-0.2	0
bin	-0.18	0
bin	-0.16	0
bin	-0.14	0
bin	-0.12	0
bin	-0.1	0
bin	-0.08	0
bin	-0.06	0
bin	-0.04	0
bin	-0.02	0
bin	0	1
bin	0.02	0
bin	0.04	0
bin	0.06	0
bin	0.08	0
bin	0.1	0
bin	0.12	0
bin	0.14	0
bin	0.16	0
bin	0.18	0
bin	0.2	0
bin	0.22	0
bin	0.24	0
bin	0.26	0
bin	0.28	0
bin	0.3	0
bin	0.32	0
bin	0.34	0
bin	0.36	0
bin	0.38	0
bin	0.4	0
bin	0.42	0
bin	0.44	0
bin	0.46	0
bin	0.48	0
bin	0.5	0
scalar FragmentationShowcase.wifiHost2.wlan[0].radio radioMode:count 33113
attr interpolationmode sample-hold
attr recordingmode count
attr source radioModeChanged
attr title "Radio mode, count"
scalar FragmentationShowcase.wifiHost2.wlan[0].radio receptionState:count 247976
attr interpolationmode sample-hold
attr recordingmode count
attr source receptionStateChanged
attr title "Radio reception state, count"
scalar FragmentationShowcase.wifiHost2.wlan[0].radio transmissionState:count 66220
attr interpolationmode sample-hold
attr recordingmode count
attr source transmissionStateChanged
attr title "Radio transmission state, count"
statistic FragmentationShowcase.wifiHost2.wlan[0].radio minSnir:histogram
field count 107432
field mean 17.845472018467
field stddev 0
field min 17.845472018459
field max 17.845472018459
field sum 1917174.7498879
field sqrsum 34212888.353665
attr recordingmode histogram
attr source minimumSnir(packetSentToUpper)
attr title "Min SNIR"
bin	-inf	0
bin	17.34	0
bin	17.36	0
bin	17.38	0
bin	17.4	0
bin	17.42	0
bin	17.44	0
bin	17.46	0
bin	17.48	0
bin	17.5	0
bin	17.52	0
bin	17.54	0
bin	17.56	0
bin	17.58	0
bin	17.6	0
bin	17.62	0
bin	17.64	0
bin	17.66	0
bin	17.68	0
bin	17.7	0
bin	17.72	0
bin	17.74	0
bin	17.76	0
bin	17.78	0
bin	17.8	0
bin	17.82	0
bin	17.84	107432
bin	17.86	0
bin	17.88	0
bin	17.9	0
bin	17.92	0
bin	17.94	0
bin	17.96	0
bin	17.98	0
bin	18	0
bin	18.02	0
bin	18.04	0
bin	18.06	0
bin	18.08	0
bin	18.1	0
bin	18.12	0
bin	18.14	0
bin	18.16	0
bin	18.18	0
bin	18.2	0
bin	18.22	0
bin	18.24	0
bin	18.26	0
bin	18.28	0
bin	18.3	0
bin	18.32	0
bin	18.34	0
bin	18.36	0
statistic FragmentationShowcase.wifiHost2.wlan[0].radio packetErrorRate:histogram
field count 107432
field mean 0.14068328120908
field stddev 0.030786901317728
field min 0.036840217568255
field max 0.15541662232794
field sum 15113.886266853
field sqrsum 2228.0977903149
attr recordingmode histogram
attr source packetErrorRate(packetSentToUpper)
attr title "Packet error rate"
bin	-inf	0
bin	0.006	0
bin	0.008	0
bin	0.01	0
bin	0.012	0
bin	0.014	0
bin	0.016	0
bin	0.018	0
bin	0.02	0
bin	0.022	0
bin	0.024	0
bin	0.026	0
bin	0.028	0
bin	0.03	0
bin	0.032	0
bin	0.034	0
bin	0.036	1
bin	0.038	0
bin	0.04	0
bin	0.042	0
bin	0.044	0
bin	0.046	0
bin	0.048	0
bin	0.05	0
bin	0.052	0
bin	0.054	0
bin	0.056	0
bin	0.058	0
bin	0.06	0
bin	0.062	0
bin	0.064	0
bin	0.066	0
bin	0.068	0
bin	0.07	0
bin	0.072	17903
bin	0.074	0
bin	0.076	0
bin	0.078	0
bin	0.08	0
bin	0.082	0
bin	0.084	0
bin	0.086	0
bin	0.088	0
bin	0.09	0
bin	0.092	0
bin	0.094	0
bin	0.096	0
bin	0.098	0
bin	0.1	0
bin	0.102	0
bin	0.104	0
bin	0.106	0
bin	0.108	0
bin	0.11	0
bin	0.112	0
bin	0.114	0
bin	0.116	0
bin	0.118	0
bin	0.12	0
bin	0.122	0
bin	0.124	0
bin	0.126	0
bin	0.128	0
bin	0.13	0
bin	0.132	0
bin	0.134	0
bin	0.136	0
bin	0.138	5943
bin	0.14	0
bin	0.142	0
bin	0.144	0
bin	0.146	0
bin	0.148	0
bin	0.15	0
bin	0.152	0
bin	0.154	83585
bin	0.156	0
bin	0.158	0
bin	0.16	0
bin	0.162	0
bin	0.164	0
bin	0.166	0
bin	0.168	0
bin	0.17	0
bin	0.172	0
bin	0.174	0
bin	0.176	0
bin	0.178	0
bin	0.18	0
bin	0.182	0
bin	0.184	0
bin	0.186	0
statistic FragmentationShowcase.wifiHost2.wlan[0].radio bitErrorRate:histogram
field count 0
field mean -nan
field stddev nan
field min nan
field max nan
field sum 0
field sqrsum 0
attr recordingmode histogram
attr source bitErrorRate(packetSentToUpper)
attr title "Bit error rate"
bin	-inf	0
bin	0	0
bin	1	0
statistic FragmentationShowcase.wifiHost2.wlan[0].radio symbolErrorRate:histogram
field count 0
field mean -nan
field stddev nan
field min nan
field max nan
field sum 0
field sqrsum 0
attr recordingmode histogram
attr source symbolErrorRate(packetSentToUpper)
attr title "Symbol error rate"
bin	-inf	0
bin	0	0
bin	1	0
scalar FragmentationShowcase.wifiHost2.wlan[0] packetDropInterfaceDown:count 0
attr interpolationmode none
attr recordingmode count
attr source packetDropReasonIsInterfaceDown(packetDropped)
attr title "packet drops: interface down, count"
scalar FragmentationShowcase.wifiHost2.wlan[0] packetDropInterfaceDown:sum(packetBytes) 0
attr interpolationmode none
attr recordingmode sum(packetBytes)
attr source packetDropReasonIsInterfaceDown(packetDropped)
attr title "packet drops: interface down, sum(packetBytes)"
scalar FragmentationShowcase.wifiHost2.wlan[0] packetDropNoCarrier:count 0
attr interpolationmode none
attr recordingmode count
attr source packetDropReasonIsNoCarrier(packetDropped)
attr title "packet drops: no carrier, count"
scalar FragmentationShowcase.wifiHost2.wlan[0] packetDropNoCarrier:sum(packetBytes) 0
attr interpolationmode none
attr recordingmode sum(packetBytes)
attr source packetDropReasonIsNoCarrier(packetDropped)
attr title "packet drops: no carrier, sum(packetBytes)"
scalar FragmentationShowcase.wifiHost2.ipv4.ip packetDropAddressResolutionFailed:count 0
attr interpolationmode none
attr recordingmode count
attr source packetDropReasonIsAddressResolutionFailed(packetDropped)
attr title "packet drop: address resolution failed, count"
scalar FragmentationShowcase.wifiHost2.ipv4.ip packetDropAddressResolutionFailed:sum(packetBytes) 0
attr interpolationmode none
attr recordingmode sum(packetBytes)
attr source packetDropReasonIsAddressResolutionFailed(packetDropped)
attr title "packet drop: address resolution failed, sum(packetBytes)"
scalar FragmentationShowcase.wifiHost2.ipv4.ip packetDropHopLimitReached:count 0
attr interpolationmode none
attr recordingmode count
attr source packetDropReasonIsHopLimitReached(packetDropped)
attr title "packet drop: hop limit reached, count"
scalar FragmentationShowcase.wifiHost2.ipv4.ip packetDropHopLimitReached:sum(packetBytes) 0
attr interpolationmode none
attr recordingmode sum(packetBytes)
attr source packetDropReasonIsHopLimitReached(packetDropped)
attr title "packet drop: hop limit reached, sum(packetBytes)"
scalar FragmentationShowcase.wifiHost2.ipv4.ip packetDropForwardingDisabled:count 0
attr interpolationmode none
attr recordingmode count
attr source packetDropReasonIsForwardingDisabled(packetDropped)
attr title "packet drop: forwarding disabled, count"
scalar FragmentationShowcase.wifiHost2.ipv4.ip packetDropForwardingDisabled:sum(packetBytes) 0
attr interpolationmode none
attr recordingmode sum(packetBytes)
attr source packetDropReasonIsForwardingDisabled(packetDropped)
attr title "packet drop: forwarding disabled, sum(packetBytes)"
scalar FragmentationShowcase.wifiHost2.ipv4.ip packetDropNoInterfaceFound:count 0
attr interpolationmode none
attr recordingmode count
attr source packetDropReasonIsNoInterfaceFound(packetDropped)
attr title "packet drop: no interface found, count"
scalar FragmentationShowcase.wifiHost2.ipv4.ip packetDropNoInterfaceFound:sum(packetBytes) 0
attr interpolationmode none
attr recordingmode sum(packetBytes)
attr source packetDropReasonIsNoInterfaceFound(packetDropped)
attr title "packet drop: no interface found, sum(packetBytes)"
scalar FragmentationShowcase.wifiHost2.ipv4.ip packetDropNoRouteFound:count 0
attr interpolationmode none
attr recordingmode count
attr source packetDropReasonIsNoRouteFound(packetDropped)
attr title "packet drop: no route found, count"
scalar FragmentationShowcase.wifiHost2.ipv4.ip packetDropNoRouteFound:sum(packetBytes) 0
attr interpolationmode none
attr recordingmode sum(packetBytes)
attr source packetDropReasonIsNoRouteFound(packetDropped)
attr title "packet drop: no route found, sum(packetBytes)"
scalar FragmentationShowcase.wifiHost2.ipv4.ip packetDropUndefined:count 0
attr interpolationmode none
attr recordingmode count
attr source packetDropReasonIsUndefined(packetDropped)
attr title "packet drop: undefined, count"
scalar FragmentationShowcase.wifiHost2.ipv4.ip packetDropUndefined:sum(packetBytes) 0
attr interpolationmode none
attr recordingmode sum(packetBytes)
attr source packetDropReasonIsUndefined(packetDropped)
attr title "packet drop: undefined, sum(packetBytes)"
scalar FragmentationShowcase.wifiHost2.udp packetReceived:count 3798
attr interpolationmode none
attr recordingmode count
attr source packetReceived
attr title "packets received, count"
scalar FragmentationShowcase.wifiHost2.udp packetReceived:sum(packetBytes) 3828384
attr interpolationmode none
attr recordingmode sum(packetBytes)
attr source packetReceived
attr title "packets received, sum(packetBytes)"
scalar FragmentationShowcase.wifiHost2.udp packetSent:count 0
attr interpolationmode none
attr recordingmode count
attr source packetSent
attr title "packets sent, count"
scalar FragmentationShowcase.wifiHost2.udp packetSent:sum(packetBytes) 0
attr interpolationmode none
attr recordingmode sum(packetBytes)
attr source packetSent
attr title "packets sent, sum(packetBytes)"
scalar FragmentationShowcase.wifiHost2.udp passedUpPk:count 3798
attr interpolationmode none
attr recordingmode count
attr source packetSentToUpper
attr title "packets passed up, count"
scalar FragmentationShowcase.wifiHost2.udp droppedPkWrongPort:count 0
attr interpolationmode none
attr recordingmode count
attr source packetDropReasonIsNoPortFound(packetDropped)
attr title "packets dropped (wrong port), count"
scalar FragmentationShowcase.wifiHost2.udp droppedPkBadChecksum:count 0
attr interpolationmode none
attr recordingmode count
attr source packetDropReasonIsIncorrectlyReceived(packetDropped)
attr title "packets dropped (checksum error), count"
scalar FragmentationShowcase.wifiHost2.app[0] packetReceived:count 3798
attr interpolationmode none
attr recordingmode count
attr source packetReceived
attr title "packets received, count"
scalar FragmentationShowcase.wifiHost2.app[0] packetReceived:sum(packetBytes) 3798000
attr interpolationmode none
attr recordingmode sum(packetBytes)
attr source packetReceived
attr title "packets received, sum(packetBytes)"
statistic FragmentationShowcase.wifiHost2.app[0] endToEndDelay:histogram
field count 3798
field mean 0.26193367162063
field stddev 0.02869986030412
field min 0.004653243216
field max 0.288179345648
field sum 994.82408481517
field sqrsum 263.70544563594
attr interpolationmode none
attr recordingmode histogram
attr source dataAge(packetReceived)
attr title "end-to-end delay"
attr unit s
bin	-inf	0
bin	0	1
bin	0.005	2
bin	0.01	3
bin	0.015	2
bin	0.02	3
bin	0.025	2
bin	0.03	2
bin	0.035	3
bin	0.04	2
bin	0.045	2
bin	0.05	4
bin	0.055	3
bin	0.06	2
bin	0.065	2
bin	0.07	2
bin	0.075	3
bin	0.08	3
bin	0.085	2
bin	0.09	3
bin	0.095	2
bin	0.1	3
bin	0.105	2
bin	0.11	2
bin	0.115	2
bin	0.12	3
bin	0.125	2
bin	0.13	1
bin	0.135	2
bin	0.14	4
bin	0.145	2
bin	0.15	1
bin	0.155	3
bin	0.16	2
bin	0.165	2
bin	0.17	2
bin	0.175	4
bin	0.18	2
bin	0.185	2
bin	0.19	4
bin	0.195	3
bin	0.2	2
bin	0.205	3
bin	0.21	2
bin	0.215	2
bin	0.22	1
bin	0.225	4
bin	0.23	3
bin	0.235	3
bin	0.24	16
bin	0.245	77
bin	0.25	251
bin	0.255	439
bin	0.26	803
bin	0.265	921
bin	0.27	579
bin	0.275	432
bin	0.28	144
bin	0.285	20
bin	0.29	0
bin	0.295	0
bin	0.3	0
bin	0.305	0
bin	0.31	0
bin	0.315	0
bin	0.32	0
bin	0.325	0
bin	0.33	0
bin	0.335	0
bin	0.34	0
bin	0.345	0
bin	0.35	0
scalar FragmentationShowcase.radioMedium.propagation "Arrival computation count" 123988
scalar FragmentationShowcase.radioMedium "transmission count" 123988
scalar FragmentationShowcase.radioMedium "signal send count" 123988
scalar FragmentationShowcase.radioMedium "reception computation count" 123988
scalar FragmentationShowcase.radioMedium "interference computation count" 495953
scalar FragmentationShowcase.radioMedium "reception decision computation count" 123987
scalar FragmentationShowcase.radioMedium "listening decision computation count" 247978
scalar FragmentationShowcase.radioMedium "reception cache hit" 85.714219874826
attr unit %
scalar FragmentationShowcase.radioMedium "interference cache hit" 66.666666666667
attr unit %
scalar FragmentationShowcase.radioMedium "noise cache hit" 0
attr unit %
scalar FragmentationShowcase.radioMedium "snir cache hit" 50
attr unit %
scalar FragmentationShowcase.radioMedium "reception decision cache hit" 50
attr unit %
scalar FragmentationShowcase.radioMedium "reception result cache hit" 0
attr unit %

