version 3
run MacEdca-0-20250108-11:31:46-12712
attr configname MacEdca
attr datetime 20250108-11:31:46
attr datetimef 20250108-113146
attr experiment MacEdca
attr inifile omnetpp.ini
attr iterationvars ""
attr iterationvarsd ""
attr iterationvarsf ""
attr measurement ""
attr network MacTest
attr processid 12712
attr repetition 0
attr replication #0
attr resultdir results
attr runnumber 0
attr seedset 0
config **.param-recording false
config image-path /home/levy/workspace/inet/images
config output-scalar-file results/omnetpp.ini-MacEdca-#0.sca
config output-vector-file results/omnetpp.ini-MacEdca-#0.vec
config sim-time-limit 100s
config sim-time-limit 100s
config extends MacBase
config **.cliHost.numApps 2
config **.cliHost.app[*].typename UdpBasicApp
config **.cliHost.app[*].destAddresses "\"srvHost\""
config **.cliHost.app[0].destPort 21
config **.cliHost.app[1].destPort 5000
config **.cliHost.app[0].packetName "\"FTP\""
config **.cliHost.app[1].packetName "\"Voice\""
config **.cliHost.app[*].startTime 1.0s+this.sendInterval*index/4
config **.cliHost.app[*].stopTime 6.0s
config **.cliHost.app[0].messageLength "intuniform(500B, 1500B)"
config **.cliHost.app[1].messageLength "intuniform(50B, 4000B)"
config **.cliHost.app[*].sendInterval exponential(0.1s)
config **.srvHost.numApps 2
config **.srvHost.app[*].typename UdpSink
config **.srvHost.app[0].localPort 21
config **.srvHost.app[1].localPort 5000
config **.wlan[*].classifier.typename ExampleQosClassifier
config **.wlan[*].mac.qosStation true
config **.wlan[*].mac.typename Ieee80211Mac
config network MacTest
config **.constraintAreaMinX 0m
config **.constraintAreaMinY 0m
config **.constraintAreaMinZ 0m
config **.constraintAreaMaxX 400m
config **.constraintAreaMaxY 400m
config **.constraintAreaMaxZ 0m
config **.mobility.initFromDisplayString false
config **.cliHost.mobility.initialX 100m
config **.cliHost.mobility.initialY 100m
config **.srvHost.mobility.initialX 300m
config **.srvHost.mobility.initialY 100m
config **.mobility.initialZ 0m
config **.opMode "\"g(mixed)\""
config **.arp.typename GlobalArp
config **.mtu 10000B
config **.radio.transmitter.power 2000mW
config **.radio.receiver.sensitivity -85dBm
config **.radio.receiver.snirThreshold 4dB

scalar MacTest.srvHost.lo[0].lo rcvdPkFromHl:count 0
scalar MacTest.srvHost.lo[0].lo rcvdPkFromHl:sum(packetBytes) 0
scalar MacTest.srvHost.lo[0].lo passedUpPk:count 0
scalar MacTest.srvHost.lo[0].lo passedUpPk:sum(packetBytes) 0
scalar MacTest.srvHost.lo[0] packetDropInterfaceDown:count 0
scalar MacTest.srvHost.lo[0] packetDropInterfaceDown:sum(packetBytes) 0
scalar MacTest.srvHost.lo[0] packetDropNoCarrier:count 0
scalar MacTest.srvHost.lo[0] packetDropNoCarrier:sum(packetBytes) 0
scalar MacTest.srvHost.wlan[0].mac.dcf.channelAccess.pendingQueue queueLength:last 0
scalar MacTest.srvHost.wlan[0].mac.dcf.channelAccess.pendingQueue queueLength:max 0
scalar MacTest.srvHost.wlan[0].mac.dcf.channelAccess.pendingQueue queueLength:timeavg 0
scalar MacTest.srvHost.wlan[0].mac.dcf.channelAccess.pendingQueue queueBitLength:last 0
scalar MacTest.srvHost.wlan[0].mac.dcf.channelAccess.pendingQueue queueBitLength:max 0
scalar MacTest.srvHost.wlan[0].mac.dcf.channelAccess.pendingQueue queueBitLength:timeavg 0
scalar MacTest.srvHost.wlan[0].mac.dcf.channelAccess.pendingQueue outgoingPackets:count 0
scalar MacTest.srvHost.wlan[0].mac.dcf.channelAccess.pendingQueue outgoingPacketLengths:sum 0
scalar MacTest.srvHost.wlan[0].mac.dcf.channelAccess.pendingQueue incomingPackets:count 0
scalar MacTest.srvHost.wlan[0].mac.dcf.channelAccess.pendingQueue incomingPacketLengths:sum 0
scalar MacTest.srvHost.wlan[0].mac.dcf.channelAccess.pendingQueue droppedPacketsQueueOverflow:count 0
scalar MacTest.srvHost.wlan[0].mac.dcf.channelAccess.pendingQueue droppedPacketLengthsQueueOverflow:sum 0
scalar MacTest.srvHost.wlan[0].mac.dcf.channelAccess.inProgressFrames queueLength:max 0
scalar MacTest.srvHost.wlan[0].mac.dcf.channelAccess.inProgressFrames queueLength:timeavg 0
scalar MacTest.srvHost.wlan[0].mac.dcf.channelAccess.contention channelAccessGranted:count 0
scalar MacTest.srvHost.wlan[0].mac.dcf.channelAccess.contention stateChanged:count 866
scalar MacTest.srvHost.wlan[0].mac.dcf.channelAccess channelOwnershipChanged:count 0
scalar MacTest.srvHost.wlan[0].mac.dcf.originatorMacDataService packetAggregated:count 0
scalar MacTest.srvHost.wlan[0].mac.dcf.originatorMacDataService packetFragmented:count 0
scalar MacTest.srvHost.wlan[0].mac.dcf.recipientMacDataService packetDeaggregated:count 0
scalar MacTest.srvHost.wlan[0].mac.dcf.recipientMacDataService packetDefragmented:count 0
scalar MacTest.srvHost.wlan[0].mac.dcf.recipientMacDataService packetDropDuplicateDetected:count 0
scalar MacTest.srvHost.wlan[0].mac.dcf.recipientMacDataService packetDropDuplicateDetected:sum(packetBytes) 0
scalar MacTest.srvHost.wlan[0].mac.dcf.recoveryProcedure retryLimitReached:count 0
scalar MacTest.srvHost.wlan[0].mac.dcf frameSequenceFinished:count 0
scalar MacTest.srvHost.wlan[0].mac.dcf packetReceivedFromPeer:count 0
scalar MacTest.srvHost.wlan[0].mac.dcf packetReceivedFromPeer:sum(packetBytes) 0
scalar MacTest.srvHost.wlan[0].mac.dcf packetReceivedFromPeerUnicast:count 0
scalar MacTest.srvHost.wlan[0].mac.dcf packetReceivedFromPeerUnicast:sum(packetBytes) 0
scalar MacTest.srvHost.wlan[0].mac.dcf packetReceivedFromPeerMulticast:count 0
scalar MacTest.srvHost.wlan[0].mac.dcf packetReceivedFromPeerMulticast:sum(packetBytes) 0
scalar MacTest.srvHost.wlan[0].mac.dcf packetReceivedFromPeerBroadcast:count 0
scalar MacTest.srvHost.wlan[0].mac.dcf packetReceivedFromPeerBroadcast:sum(packetBytes) 0
scalar MacTest.srvHost.wlan[0].mac.dcf packetReceivedFromPeerWithRetry:count 0
scalar MacTest.srvHost.wlan[0].mac.dcf packetReceivedFromPeerWithRetry:sum(packetBytes) 0
scalar MacTest.srvHost.wlan[0].mac.dcf packetReceivedFromPeerWithoutRetry:count 0
scalar MacTest.srvHost.wlan[0].mac.dcf packetReceivedFromPeerWithoutRetry:sum(packetBytes) 0
scalar MacTest.srvHost.wlan[0].mac.dcf packetSentToPeer:count 0
scalar MacTest.srvHost.wlan[0].mac.dcf packetSentToPeer:sum(packetBytes) 0
scalar MacTest.srvHost.wlan[0].mac.dcf packetSentToPeerUnicast:count 0
scalar MacTest.srvHost.wlan[0].mac.dcf packetSentToPeerUnicast:sum(packetBytes) 0
scalar MacTest.srvHost.wlan[0].mac.dcf packetSentToPeerMulticast:count 0
scalar MacTest.srvHost.wlan[0].mac.dcf packetSentToPeerMulticast:sum(packetBytes) 0
scalar MacTest.srvHost.wlan[0].mac.dcf packetSentToPeerBroadcast:count 0
scalar MacTest.srvHost.wlan[0].mac.dcf packetSentToPeerBroadcast:sum(packetBytes) 0
scalar MacTest.srvHost.wlan[0].mac.dcf packetSentToPeerWithRetry:count 0
scalar MacTest.srvHost.wlan[0].mac.dcf packetSentToPeerWithRetry:sum(packetBytes) 0
scalar MacTest.srvHost.wlan[0].mac.dcf packetSentToPeerWithoutRetry:count 0
scalar MacTest.srvHost.wlan[0].mac.dcf packetSentToPeerWithoutRetry:sum(packetBytes) 0
scalar MacTest.srvHost.wlan[0].mac.dcf packetDrop:count 0
scalar MacTest.srvHost.wlan[0].mac.dcf packetDrop:sum(packetBytes) 0
scalar MacTest.srvHost.wlan[0].mac.dcf packetDropNotAddressedToUs:count 0
scalar MacTest.srvHost.wlan[0].mac.dcf packetDropNotAddressedToUs:sum(packetBytes) 0
scalar MacTest.srvHost.wlan[0].mac.dcf packetDropQueueOverflow:count 0
scalar MacTest.srvHost.wlan[0].mac.dcf packetDropQueueOverflow:sum(packetBytes) 0
scalar MacTest.srvHost.wlan[0].mac.dcf packetDropRetryLimitReached:count 0
scalar MacTest.srvHost.wlan[0].mac.dcf packetDropRetryLimitReached:sum(packetBytes) 0
scalar MacTest.srvHost.wlan[0].mac.dcf linkBroken:count 0
scalar MacTest.srvHost.wlan[0].mac.hcf.edca.edcaf[0].pendingQueue queueLength:last 0
scalar MacTest.srvHost.wlan[0].mac.hcf.edca.edcaf[0].pendingQueue queueLength:max 0
scalar MacTest.srvHost.wlan[0].mac.hcf.edca.edcaf[0].pendingQueue queueLength:timeavg 0
scalar MacTest.srvHost.wlan[0].mac.hcf.edca.edcaf[0].pendingQueue queueBitLength:last 0
scalar MacTest.srvHost.wlan[0].mac.hcf.edca.edcaf[0].pendingQueue queueBitLength:max 0
scalar MacTest.srvHost.wlan[0].mac.hcf.edca.edcaf[0].pendingQueue queueBitLength:timeavg 0
scalar MacTest.srvHost.wlan[0].mac.hcf.edca.edcaf[0].pendingQueue outgoingPackets:count 0
scalar MacTest.srvHost.wlan[0].mac.hcf.edca.edcaf[0].pendingQueue outgoingPacketLengths:sum 0
scalar MacTest.srvHost.wlan[0].mac.hcf.edca.edcaf[0].pendingQueue incomingPackets:count 0
scalar MacTest.srvHost.wlan[0].mac.hcf.edca.edcaf[0].pendingQueue incomingPacketLengths:sum 0
scalar MacTest.srvHost.wlan[0].mac.hcf.edca.edcaf[0].pendingQueue droppedPacketsQueueOverflow:count 0
scalar MacTest.srvHost.wlan[0].mac.hcf.edca.edcaf[0].pendingQueue droppedPacketLengthsQueueOverflow:sum 0
scalar MacTest.srvHost.wlan[0].mac.hcf.edca.edcaf[0].inProgressFrames queueLength:max 0
scalar MacTest.srvHost.wlan[0].mac.hcf.edca.edcaf[0].inProgressFrames queueLength:timeavg 0
scalar MacTest.srvHost.wlan[0].mac.hcf.edca.edcaf[0].contention channelAccessGranted:count 0
scalar MacTest.srvHost.wlan[0].mac.hcf.edca.edcaf[0].contention stateChanged:count 866
scalar MacTest.srvHost.wlan[0].mac.hcf.edca.edcaf[0].txopProcedure txopEnded:count 0
scalar MacTest.srvHost.wlan[0].mac.hcf.edca.edcaf[0].recoveryProcedure retryLimitReached:count 0
scalar MacTest.srvHost.wlan[0].mac.hcf.edca.edcaf[0] channelOwnershipChanged:count 0
scalar MacTest.srvHost.wlan[0].mac.hcf.edca.edcaf[0] packetSentToPeer:count 0
scalar MacTest.srvHost.wlan[0].mac.hcf.edca.edcaf[0] packetSentToPeer:sum(packetBytes) 0
scalar MacTest.srvHost.wlan[0].mac.hcf.edca.edcaf[0] packetSentToPeerUnicast:count 0
scalar MacTest.srvHost.wlan[0].mac.hcf.edca.edcaf[0] packetSentToPeerUnicast:sum(packetBytes) 0
scalar MacTest.srvHost.wlan[0].mac.hcf.edca.edcaf[0] packetSentToPeerMulticast:count 0
scalar MacTest.srvHost.wlan[0].mac.hcf.edca.edcaf[0] packetSentToPeerMulticast:sum(packetBytes) 0
scalar MacTest.srvHost.wlan[0].mac.hcf.edca.edcaf[0] packetSentToPeerBroadcast:count 0
scalar MacTest.srvHost.wlan[0].mac.hcf.edca.edcaf[0] packetSentToPeerBroadcast:sum(packetBytes) 0
scalar MacTest.srvHost.wlan[0].mac.hcf.edca.edcaf[0] packetSentToPeerWithRetry:count 0
scalar MacTest.srvHost.wlan[0].mac.hcf.edca.edcaf[0] packetSentToPeerWithRetry:sum(packetBytes) 0
scalar MacTest.srvHost.wlan[0].mac.hcf.edca.edcaf[0] packetSentToPeerWithoutRetry:count 0
scalar MacTest.srvHost.wlan[0].mac.hcf.edca.edcaf[0] packetSentToPeerWithoutRetry:sum(packetBytes) 0
scalar MacTest.srvHost.wlan[0].mac.hcf.edca.edcaf[1].pendingQueue queueLength:last 0
scalar MacTest.srvHost.wlan[0].mac.hcf.edca.edcaf[1].pendingQueue queueLength:max 0
scalar MacTest.srvHost.wlan[0].mac.hcf.edca.edcaf[1].pendingQueue queueLength:timeavg 0
scalar MacTest.srvHost.wlan[0].mac.hcf.edca.edcaf[1].pendingQueue queueBitLength:last 0
scalar MacTest.srvHost.wlan[0].mac.hcf.edca.edcaf[1].pendingQueue queueBitLength:max 0
scalar MacTest.srvHost.wlan[0].mac.hcf.edca.edcaf[1].pendingQueue queueBitLength:timeavg 0
scalar MacTest.srvHost.wlan[0].mac.hcf.edca.edcaf[1].pendingQueue outgoingPackets:count 0
scalar MacTest.srvHost.wlan[0].mac.hcf.edca.edcaf[1].pendingQueue outgoingPacketLengths:sum 0
scalar MacTest.srvHost.wlan[0].mac.hcf.edca.edcaf[1].pendingQueue incomingPackets:count 0
scalar MacTest.srvHost.wlan[0].mac.hcf.edca.edcaf[1].pendingQueue incomingPacketLengths:sum 0
scalar MacTest.srvHost.wlan[0].mac.hcf.edca.edcaf[1].pendingQueue droppedPacketsQueueOverflow:count 0
scalar MacTest.srvHost.wlan[0].mac.hcf.edca.edcaf[1].pendingQueue droppedPacketLengthsQueueOverflow:sum 0
scalar MacTest.srvHost.wlan[0].mac.hcf.edca.edcaf[1].inProgressFrames queueLength:max 0
scalar MacTest.srvHost.wlan[0].mac.hcf.edca.edcaf[1].inProgressFrames queueLength:timeavg 0
scalar MacTest.srvHost.wlan[0].mac.hcf.edca.edcaf[1].contention channelAccessGranted:count 0
scalar MacTest.srvHost.wlan[0].mac.hcf.edca.edcaf[1].contention stateChanged:count 866
scalar MacTest.srvHost.wlan[0].mac.hcf.edca.edcaf[1].txopProcedure txopEnded:count 0
scalar MacTest.srvHost.wlan[0].mac.hcf.edca.edcaf[1].recoveryProcedure retryLimitReached:count 0
scalar MacTest.srvHost.wlan[0].mac.hcf.edca.edcaf[1] channelOwnershipChanged:count 0
scalar MacTest.srvHost.wlan[0].mac.hcf.edca.edcaf[1] packetSentToPeer:count 0
scalar MacTest.srvHost.wlan[0].mac.hcf.edca.edcaf[1] packetSentToPeer:sum(packetBytes) 0
scalar MacTest.srvHost.wlan[0].mac.hcf.edca.edcaf[1] packetSentToPeerUnicast:count 0
scalar MacTest.srvHost.wlan[0].mac.hcf.edca.edcaf[1] packetSentToPeerUnicast:sum(packetBytes) 0
scalar MacTest.srvHost.wlan[0].mac.hcf.edca.edcaf[1] packetSentToPeerMulticast:count 0
scalar MacTest.srvHost.wlan[0].mac.hcf.edca.edcaf[1] packetSentToPeerMulticast:sum(packetBytes) 0
scalar MacTest.srvHost.wlan[0].mac.hcf.edca.edcaf[1] packetSentToPeerBroadcast:count 0
scalar MacTest.srvHost.wlan[0].mac.hcf.edca.edcaf[1] packetSentToPeerBroadcast:sum(packetBytes) 0
scalar MacTest.srvHost.wlan[0].mac.hcf.edca.edcaf[1] packetSentToPeerWithRetry:count 0
scalar MacTest.srvHost.wlan[0].mac.hcf.edca.edcaf[1] packetSentToPeerWithRetry:sum(packetBytes) 0
scalar MacTest.srvHost.wlan[0].mac.hcf.edca.edcaf[1] packetSentToPeerWithoutRetry:count 0
scalar MacTest.srvHost.wlan[0].mac.hcf.edca.edcaf[1] packetSentToPeerWithoutRetry:sum(packetBytes) 0
scalar MacTest.srvHost.wlan[0].mac.hcf.edca.edcaf[2].pendingQueue queueLength:last 0
scalar MacTest.srvHost.wlan[0].mac.hcf.edca.edcaf[2].pendingQueue queueLength:max 0
scalar MacTest.srvHost.wlan[0].mac.hcf.edca.edcaf[2].pendingQueue queueLength:timeavg 0
scalar MacTest.srvHost.wlan[0].mac.hcf.edca.edcaf[2].pendingQueue queueBitLength:last 0
scalar MacTest.srvHost.wlan[0].mac.hcf.edca.edcaf[2].pendingQueue queueBitLength:max 0
scalar MacTest.srvHost.wlan[0].mac.hcf.edca.edcaf[2].pendingQueue queueBitLength:timeavg 0
scalar MacTest.srvHost.wlan[0].mac.hcf.edca.edcaf[2].pendingQueue outgoingPackets:count 0
scalar MacTest.srvHost.wlan[0].mac.hcf.edca.edcaf[2].pendingQueue outgoingPacketLengths:sum 0
scalar MacTest.srvHost.wlan[0].mac.hcf.edca.edcaf[2].pendingQueue incomingPackets:count 0
scalar MacTest.srvHost.wlan[0].mac.hcf.edca.edcaf[2].pendingQueue incomingPacketLengths:sum 0
scalar MacTest.srvHost.wlan[0].mac.hcf.edca.edcaf[2].pendingQueue droppedPacketsQueueOverflow:count 0
scalar MacTest.srvHost.wlan[0].mac.hcf.edca.edcaf[2].pendingQueue droppedPacketLengthsQueueOverflow:sum 0
scalar MacTest.srvHost.wlan[0].mac.hcf.edca.edcaf[2].inProgressFrames queueLength:max 0
scalar MacTest.srvHost.wlan[0].mac.hcf.edca.edcaf[2].inProgressFrames queueLength:timeavg 0
scalar MacTest.srvHost.wlan[0].mac.hcf.edca.edcaf[2].contention channelAccessGranted:count 0
scalar MacTest.srvHost.wlan[0].mac.hcf.edca.edcaf[2].contention stateChanged:count 866
scalar MacTest.srvHost.wlan[0].mac.hcf.edca.edcaf[2].txopProcedure txopEnded:count 0
scalar MacTest.srvHost.wlan[0].mac.hcf.edca.edcaf[2].recoveryProcedure retryLimitReached:count 0
scalar MacTest.srvHost.wlan[0].mac.hcf.edca.edcaf[2] channelOwnershipChanged:count 0
scalar MacTest.srvHost.wlan[0].mac.hcf.edca.edcaf[2] packetSentToPeer:count 0
scalar MacTest.srvHost.wlan[0].mac.hcf.edca.edcaf[2] packetSentToPeer:sum(packetBytes) 0
scalar MacTest.srvHost.wlan[0].mac.hcf.edca.edcaf[2] packetSentToPeerUnicast:count 0
scalar MacTest.srvHost.wlan[0].mac.hcf.edca.edcaf[2] packetSentToPeerUnicast:sum(packetBytes) 0
scalar MacTest.srvHost.wlan[0].mac.hcf.edca.edcaf[2] packetSentToPeerMulticast:count 0
scalar MacTest.srvHost.wlan[0].mac.hcf.edca.edcaf[2] packetSentToPeerMulticast:sum(packetBytes) 0
scalar MacTest.srvHost.wlan[0].mac.hcf.edca.edcaf[2] packetSentToPeerBroadcast:count 0
scalar MacTest.srvHost.wlan[0].mac.hcf.edca.edcaf[2] packetSentToPeerBroadcast:sum(packetBytes) 0
scalar MacTest.srvHost.wlan[0].mac.hcf.edca.edcaf[2] packetSentToPeerWithRetry:count 0
scalar MacTest.srvHost.wlan[0].mac.hcf.edca.edcaf[2] packetSentToPeerWithRetry:sum(packetBytes) 0
scalar MacTest.srvHost.wlan[0].mac.hcf.edca.edcaf[2] packetSentToPeerWithoutRetry:count 0
scalar MacTest.srvHost.wlan[0].mac.hcf.edca.edcaf[2] packetSentToPeerWithoutRetry:sum(packetBytes) 0
scalar MacTest.srvHost.wlan[0].mac.hcf.edca.edcaf[3].pendingQueue queueLength:last 0
scalar MacTest.srvHost.wlan[0].mac.hcf.edca.edcaf[3].pendingQueue queueLength:max 0
scalar MacTest.srvHost.wlan[0].mac.hcf.edca.edcaf[3].pendingQueue queueLength:timeavg 0
scalar MacTest.srvHost.wlan[0].mac.hcf.edca.edcaf[3].pendingQueue queueBitLength:last 0
scalar MacTest.srvHost.wlan[0].mac.hcf.edca.edcaf[3].pendingQueue queueBitLength:max 0
scalar MacTest.srvHost.wlan[0].mac.hcf.edca.edcaf[3].pendingQueue queueBitLength:timeavg 0
scalar MacTest.srvHost.wlan[0].mac.hcf.edca.edcaf[3].pendingQueue outgoingPackets:count 0
scalar MacTest.srvHost.wlan[0].mac.hcf.edca.edcaf[3].pendingQueue outgoingPacketLengths:sum 0
scalar MacTest.srvHost.wlan[0].mac.hcf.edca.edcaf[3].pendingQueue incomingPackets:count 0
scalar MacTest.srvHost.wlan[0].mac.hcf.edca.edcaf[3].pendingQueue incomingPacketLengths:sum 0
scalar MacTest.srvHost.wlan[0].mac.hcf.edca.edcaf[3].pendingQueue droppedPacketsQueueOverflow:count 0
scalar MacTest.srvHost.wlan[0].mac.hcf.edca.edcaf[3].pendingQueue droppedPacketLengthsQueueOverflow:sum 0
scalar MacTest.srvHost.wlan[0].mac.hcf.edca.edcaf[3].inProgressFrames queueLength:max 0
scalar MacTest.srvHost.wlan[0].mac.hcf.edca.edcaf[3].inProgressFrames queueLength:timeavg 0
scalar MacTest.srvHost.wlan[0].mac.hcf.edca.edcaf[3].contention channelAccessGranted:count 0
scalar MacTest.srvHost.wlan[0].mac.hcf.edca.edcaf[3].contention stateChanged:count 866
scalar MacTest.srvHost.wlan[0].mac.hcf.edca.edcaf[3].txopProcedure txopEnded:count 0
scalar MacTest.srvHost.wlan[0].mac.hcf.edca.edcaf[3].recoveryProcedure retryLimitReached:count 0
scalar MacTest.srvHost.wlan[0].mac.hcf.edca.edcaf[3] channelOwnershipChanged:count 0
scalar MacTest.srvHost.wlan[0].mac.hcf.edca.edcaf[3] packetSentToPeer:count 0
scalar MacTest.srvHost.wlan[0].mac.hcf.edca.edcaf[3] packetSentToPeer:sum(packetBytes) 0
scalar MacTest.srvHost.wlan[0].mac.hcf.edca.edcaf[3] packetSentToPeerUnicast:count 0
scalar MacTest.srvHost.wlan[0].mac.hcf.edca.edcaf[3] packetSentToPeerUnicast:sum(packetBytes) 0
scalar MacTest.srvHost.wlan[0].mac.hcf.edca.edcaf[3] packetSentToPeerMulticast:count 0
scalar MacTest.srvHost.wlan[0].mac.hcf.edca.edcaf[3] packetSentToPeerMulticast:sum(packetBytes) 0
scalar MacTest.srvHost.wlan[0].mac.hcf.edca.edcaf[3] packetSentToPeerBroadcast:count 0
scalar MacTest.srvHost.wlan[0].mac.hcf.edca.edcaf[3] packetSentToPeerBroadcast:sum(packetBytes) 0
scalar MacTest.srvHost.wlan[0].mac.hcf.edca.edcaf[3] packetSentToPeerWithRetry:count 0
scalar MacTest.srvHost.wlan[0].mac.hcf.edca.edcaf[3] packetSentToPeerWithRetry:sum(packetBytes) 0
scalar MacTest.srvHost.wlan[0].mac.hcf.edca.edcaf[3] packetSentToPeerWithoutRetry:count 0
scalar MacTest.srvHost.wlan[0].mac.hcf.edca.edcaf[3] packetSentToPeerWithoutRetry:sum(packetBytes) 0
scalar MacTest.srvHost.wlan[0].mac.hcf.edca.mgmtAndNonQoSRecoveryProcedure retryLimitReached:count 0
scalar MacTest.srvHost.wlan[0].mac.hcf.originatorMacDataService packetAggregated:count 0
scalar MacTest.srvHost.wlan[0].mac.hcf.originatorMacDataService packetFragmented:count 0
scalar MacTest.srvHost.wlan[0].mac.hcf.recipientMacDataService packetDeaggregated:count 0
scalar MacTest.srvHost.wlan[0].mac.hcf.recipientMacDataService packetDefragmented:count 105
scalar MacTest.srvHost.wlan[0].mac.hcf.recipientMacDataService packetDropDuplicateDetected:count 0
scalar MacTest.srvHost.wlan[0].mac.hcf.recipientMacDataService packetDropDuplicateDetected:sum(packetBytes) 0
scalar MacTest.srvHost.wlan[0].mac.hcf blockAckAgreementDeleted:count 0
scalar MacTest.srvHost.wlan[0].mac.hcf blockAckAgreementAdded:count 0
scalar MacTest.srvHost.wlan[0].mac.hcf edcaCollisionDetected:count 0
scalar MacTest.srvHost.wlan[0].mac.hcf frameSequenceFinished:count 0
scalar MacTest.srvHost.wlan[0].mac.hcf packetReceivedFromPeerUnicast:count 164
scalar MacTest.srvHost.wlan[0].mac.hcf packetReceivedFromPeerUnicast:sum(packetBytes) 180438
scalar MacTest.srvHost.wlan[0].mac.hcf packetReceivedFromPeerMulticast:count 0
scalar MacTest.srvHost.wlan[0].mac.hcf packetReceivedFromPeerMulticast:sum(packetBytes) 0
scalar MacTest.srvHost.wlan[0].mac.hcf packetReceivedFromPeerBroadcast:count 0
scalar MacTest.srvHost.wlan[0].mac.hcf packetReceivedFromPeerBroadcast:sum(packetBytes) 0
scalar MacTest.srvHost.wlan[0].mac.hcf packetReceivedFromPeerWithRetry:count 0
scalar MacTest.srvHost.wlan[0].mac.hcf packetReceivedFromPeerWithRetry:sum(packetBytes) 0
scalar MacTest.srvHost.wlan[0].mac.hcf packetReceivedFromPeerWithoutRetry:count 164
scalar MacTest.srvHost.wlan[0].mac.hcf packetReceivedFromPeerWithoutRetry:sum(packetBytes) 180438
scalar MacTest.srvHost.wlan[0].mac.hcf packetSentToPeer:count 164
scalar MacTest.srvHost.wlan[0].mac.hcf packetSentToPeer:sum(packetBytes) 2296
scalar MacTest.srvHost.wlan[0].mac.hcf packetSentToPeerUnicast:count 164
scalar MacTest.srvHost.wlan[0].mac.hcf packetSentToPeerUnicast:sum(packetBytes) 2296
scalar MacTest.srvHost.wlan[0].mac.hcf packetSentToPeerMulticast:count 0
scalar MacTest.srvHost.wlan[0].mac.hcf packetSentToPeerMulticast:sum(packetBytes) 0
scalar MacTest.srvHost.wlan[0].mac.hcf packetSentToPeerBroadcast:count 0
scalar MacTest.srvHost.wlan[0].mac.hcf packetSentToPeerBroadcast:sum(packetBytes) 0
scalar MacTest.srvHost.wlan[0].mac.hcf packetSentToPeerWithRetry:count 0
scalar MacTest.srvHost.wlan[0].mac.hcf packetSentToPeerWithRetry:sum(packetBytes) 0
scalar MacTest.srvHost.wlan[0].mac.hcf packetSentToPeerWithoutRetry:count 164
scalar MacTest.srvHost.wlan[0].mac.hcf packetSentToPeerWithoutRetry:sum(packetBytes) 2296
scalar MacTest.srvHost.wlan[0].mac.hcf packetDrop:count 0
scalar MacTest.srvHost.wlan[0].mac.hcf packetDrop:sum(packetBytes) 0
scalar MacTest.srvHost.wlan[0].mac.hcf packetDropNotAddressedToUs:count 0
scalar MacTest.srvHost.wlan[0].mac.hcf packetDropNotAddressedToUs:sum(packetBytes) 0
scalar MacTest.srvHost.wlan[0].mac.hcf packetDropQueueOverflow:count 0
scalar MacTest.srvHost.wlan[0].mac.hcf packetDropQueueOverflow:sum(packetBytes) 0
scalar MacTest.srvHost.wlan[0].mac.hcf packetDropRetryLimitReached:count 0
scalar MacTest.srvHost.wlan[0].mac.hcf packetDropRetryLimitReached:sum(packetBytes) 0
scalar MacTest.srvHost.wlan[0].mac.hcf linkBroken:count 0
scalar MacTest.srvHost.wlan[0].mac packetReceivedFromLower:count 164
scalar MacTest.srvHost.wlan[0].mac packetReceivedFromLower:sum(packetBytes) 180438
scalar MacTest.srvHost.wlan[0].mac packetSentToLower:count 164
scalar MacTest.srvHost.wlan[0].mac packetSentToLower:sum(packetBytes) 2296
scalar MacTest.srvHost.wlan[0].mac packetReceivedFromUpper:count 0
scalar MacTest.srvHost.wlan[0].mac packetReceivedFromUpper:sum(packetBytes) 0
scalar MacTest.srvHost.wlan[0].mac packetSentToUpper:count 105
scalar MacTest.srvHost.wlan[0].mac packetSentToUpper:sum(packetBytes) 175518
scalar MacTest.srvHost.wlan[0].mac packetDrop:count 0
scalar MacTest.srvHost.wlan[0].mac packetDrop:sum(packetBytes) 0
scalar MacTest.srvHost.wlan[0].mac packetDropIncorrectlyReceived:count 0
scalar MacTest.srvHost.wlan[0].mac packetDropIncorrectlyReceived:sum(packetBytes) 0
scalar MacTest.srvHost.wlan[0].mac packetDropNotAddressedToUs:count 0
scalar MacTest.srvHost.wlan[0].mac packetDropNotAddressedToUs:sum(packetBytes) 0
scalar MacTest.srvHost.wlan[0].mac packetDropQueueOverflow:count 0
scalar MacTest.srvHost.wlan[0].mac packetDropQueueOverflow:sum(packetBytes) 0
scalar MacTest.srvHost.wlan[0].mac packetDropRetryLimitReached:count 0
scalar MacTest.srvHost.wlan[0].mac packetDropRetryLimitReached:sum(packetBytes) 0
scalar MacTest.srvHost.wlan[0].mac packetDropDuplicateDetected:count 0
scalar MacTest.srvHost.wlan[0].mac packetDropDuplicateDetected:sum(packetBytes) 0
scalar MacTest.srvHost.wlan[0].mac packetDropOther:count 0
scalar MacTest.srvHost.wlan[0].mac packetDropOther:sum(packetBytes) 0
scalar MacTest.srvHost.wlan[0].mac linkBroken:count 0
scalar MacTest.srvHost.wlan[0].radio radioMode:count 331
scalar MacTest.srvHost.wlan[0].radio receptionState:count 657
scalar MacTest.srvHost.wlan[0].radio transmissionState:count 656
scalar MacTest.srvHost.wlan[0] packetDropInterfaceDown:count 0
scalar MacTest.srvHost.wlan[0] packetDropInterfaceDown:sum(packetBytes) 0
scalar MacTest.srvHost.wlan[0] packetDropNoCarrier:count 0
scalar MacTest.srvHost.wlan[0] packetDropNoCarrier:sum(packetBytes) 0
scalar MacTest.srvHost.ipv4.ip packetDropAddressResolutionFailed:count 0
scalar MacTest.srvHost.ipv4.ip packetDropAddressResolutionFailed:sum(packetBytes) 0
scalar MacTest.srvHost.ipv4.ip packetDropHopLimitReached:count 0
scalar MacTest.srvHost.ipv4.ip packetDropHopLimitReached:sum(packetBytes) 0
scalar MacTest.srvHost.ipv4.ip packetDropForwardingDisabled:count 0
scalar MacTest.srvHost.ipv4.ip packetDropForwardingDisabled:sum(packetBytes) 0
scalar MacTest.srvHost.ipv4.ip packetDropLifetimeExpired:count 0
scalar MacTest.srvHost.ipv4.ip packetDropLifetimeExpired:sum(packetBytes) 0
scalar MacTest.srvHost.ipv4.ip packetDropNoInterfaceFound:count 0
scalar MacTest.srvHost.ipv4.ip packetDropNoInterfaceFound:sum(packetBytes) 0
scalar MacTest.srvHost.ipv4.ip packetDropNoRouteFound:count 0
scalar MacTest.srvHost.ipv4.ip packetDropNoRouteFound:sum(packetBytes) 0
scalar MacTest.srvHost.ipv4.ip packetDropUndefined:count 0
scalar MacTest.srvHost.ipv4.ip packetDropUndefined:sum(packetBytes) 0
scalar MacTest.srvHost.udp packetReceived:count 105
scalar MacTest.srvHost.udp packetReceived:sum(packetBytes) 172578
scalar MacTest.srvHost.udp packetSent:count 0
scalar MacTest.srvHost.udp packetSent:sum(packetBytes) 0
scalar MacTest.srvHost.udp passedUpPk:count 105
scalar MacTest.srvHost.udp droppedPkWrongPort:count 0
scalar MacTest.srvHost.udp droppedPkBadChecksum:count 0
scalar MacTest.srvHost.app[0] packetReceived:count 48
scalar MacTest.srvHost.app[0] packetReceived:sum(packetBytes) 49691
scalar MacTest.srvHost.app[1] packetReceived:count 57
scalar MacTest.srvHost.app[1] packetReceived:sum(packetBytes) 122047
scalar MacTest.cliHost.lo[0].lo rcvdPkFromHl:count 0
scalar MacTest.cliHost.lo[0].lo rcvdPkFromHl:sum(packetBytes) 0
scalar MacTest.cliHost.lo[0].lo passedUpPk:count 0
scalar MacTest.cliHost.lo[0].lo passedUpPk:sum(packetBytes) 0
scalar MacTest.cliHost.lo[0] packetDropInterfaceDown:count 0
scalar MacTest.cliHost.lo[0] packetDropInterfaceDown:sum(packetBytes) 0
scalar MacTest.cliHost.lo[0] packetDropNoCarrier:count 0
scalar MacTest.cliHost.lo[0] packetDropNoCarrier:sum(packetBytes) 0
scalar MacTest.cliHost.wlan[0].mac.dcf.channelAccess.pendingQueue queueLength:last 0
scalar MacTest.cliHost.wlan[0].mac.dcf.channelAccess.pendingQueue queueLength:max 0
scalar MacTest.cliHost.wlan[0].mac.dcf.channelAccess.pendingQueue queueLength:timeavg 0
scalar MacTest.cliHost.wlan[0].mac.dcf.channelAccess.pendingQueue queueBitLength:last 0
scalar MacTest.cliHost.wlan[0].mac.dcf.channelAccess.pendingQueue queueBitLength:max 0
scalar MacTest.cliHost.wlan[0].mac.dcf.channelAccess.pendingQueue queueBitLength:timeavg 0
scalar MacTest.cliHost.wlan[0].mac.dcf.channelAccess.pendingQueue outgoingPackets:count 0
scalar MacTest.cliHost.wlan[0].mac.dcf.channelAccess.pendingQueue outgoingPacketLengths:sum 0
scalar MacTest.cliHost.wlan[0].mac.dcf.channelAccess.pendingQueue incomingPackets:count 0
scalar MacTest.cliHost.wlan[0].mac.dcf.channelAccess.pendingQueue incomingPacketLengths:sum 0
scalar MacTest.cliHost.wlan[0].mac.dcf.channelAccess.pendingQueue droppedPacketsQueueOverflow:count 0
scalar MacTest.cliHost.wlan[0].mac.dcf.channelAccess.pendingQueue droppedPacketLengthsQueueOverflow:sum 0
scalar MacTest.cliHost.wlan[0].mac.dcf.channelAccess.inProgressFrames queueLength:max 0
scalar MacTest.cliHost.wlan[0].mac.dcf.channelAccess.inProgressFrames queueLength:timeavg 0
scalar MacTest.cliHost.wlan[0].mac.dcf.channelAccess.contention channelAccessGranted:count 0
scalar MacTest.cliHost.wlan[0].mac.dcf.channelAccess.contention stateChanged:count 434
scalar MacTest.cliHost.wlan[0].mac.dcf.channelAccess channelOwnershipChanged:count 0
scalar MacTest.cliHost.wlan[0].mac.dcf.originatorMacDataService packetAggregated:count 0
scalar MacTest.cliHost.wlan[0].mac.dcf.originatorMacDataService packetFragmented:count 0
scalar MacTest.cliHost.wlan[0].mac.dcf.recipientMacDataService packetDeaggregated:count 0
scalar MacTest.cliHost.wlan[0].mac.dcf.recipientMacDataService packetDefragmented:count 0
scalar MacTest.cliHost.wlan[0].mac.dcf.recipientMacDataService packetDropDuplicateDetected:count 0
scalar MacTest.cliHost.wlan[0].mac.dcf.recipientMacDataService packetDropDuplicateDetected:sum(packetBytes) 0
scalar MacTest.cliHost.wlan[0].mac.dcf.recoveryProcedure retryLimitReached:count 0
scalar MacTest.cliHost.wlan[0].mac.dcf frameSequenceFinished:count 0
scalar MacTest.cliHost.wlan[0].mac.dcf packetReceivedFromPeer:count 0
scalar MacTest.cliHost.wlan[0].mac.dcf packetReceivedFromPeer:sum(packetBytes) 0
scalar MacTest.cliHost.wlan[0].mac.dcf packetReceivedFromPeerUnicast:count 0
scalar MacTest.cliHost.wlan[0].mac.dcf packetReceivedFromPeerUnicast:sum(packetBytes) 0
scalar MacTest.cliHost.wlan[0].mac.dcf packetReceivedFromPeerMulticast:count 0
scalar MacTest.cliHost.wlan[0].mac.dcf packetReceivedFromPeerMulticast:sum(packetBytes) 0
scalar MacTest.cliHost.wlan[0].mac.dcf packetReceivedFromPeerBroadcast:count 0
scalar MacTest.cliHost.wlan[0].mac.dcf packetReceivedFromPeerBroadcast:sum(packetBytes) 0
scalar MacTest.cliHost.wlan[0].mac.dcf packetReceivedFromPeerWithRetry:count 0
scalar MacTest.cliHost.wlan[0].mac.dcf packetReceivedFromPeerWithRetry:sum(packetBytes) 0
scalar MacTest.cliHost.wlan[0].mac.dcf packetReceivedFromPeerWithoutRetry:count 0
scalar MacTest.cliHost.wlan[0].mac.dcf packetReceivedFromPeerWithoutRetry:sum(packetBytes) 0
scalar MacTest.cliHost.wlan[0].mac.dcf packetSentToPeer:count 0
scalar MacTest.cliHost.wlan[0].mac.dcf packetSentToPeer:sum(packetBytes) 0
scalar MacTest.cliHost.wlan[0].mac.dcf packetSentToPeerUnicast:count 0
scalar MacTest.cliHost.wlan[0].mac.dcf packetSentToPeerUnicast:sum(packetBytes) 0
scalar MacTest.cliHost.wlan[0].mac.dcf packetSentToPeerMulticast:count 0
scalar MacTest.cliHost.wlan[0].mac.dcf packetSentToPeerMulticast:sum(packetBytes) 0
scalar MacTest.cliHost.wlan[0].mac.dcf packetSentToPeerBroadcast:count 0
scalar MacTest.cliHost.wlan[0].mac.dcf packetSentToPeerBroadcast:sum(packetBytes) 0
scalar MacTest.cliHost.wlan[0].mac.dcf packetSentToPeerWithRetry:count 0
scalar MacTest.cliHost.wlan[0].mac.dcf packetSentToPeerWithRetry:sum(packetBytes) 0
scalar MacTest.cliHost.wlan[0].mac.dcf packetSentToPeerWithoutRetry:count 0
scalar MacTest.cliHost.wlan[0].mac.dcf packetSentToPeerWithoutRetry:sum(packetBytes) 0
scalar MacTest.cliHost.wlan[0].mac.dcf packetDrop:count 0
scalar MacTest.cliHost.wlan[0].mac.dcf packetDrop:sum(packetBytes) 0
scalar MacTest.cliHost.wlan[0].mac.dcf packetDropNotAddressedToUs:count 0
scalar MacTest.cliHost.wlan[0].mac.dcf packetDropNotAddressedToUs:sum(packetBytes) 0
scalar MacTest.cliHost.wlan[0].mac.dcf packetDropQueueOverflow:count 0
scalar MacTest.cliHost.wlan[0].mac.dcf packetDropQueueOverflow:sum(packetBytes) 0
scalar MacTest.cliHost.wlan[0].mac.dcf packetDropRetryLimitReached:count 0
scalar MacTest.cliHost.wlan[0].mac.dcf packetDropRetryLimitReached:sum(packetBytes) 0
scalar MacTest.cliHost.wlan[0].mac.dcf linkBroken:count 0
scalar MacTest.cliHost.wlan[0].mac.hcf.edca.edcaf[0].pendingQueue queueLength:last 0
scalar MacTest.cliHost.wlan[0].mac.hcf.edca.edcaf[0].pendingQueue queueLength:max 1
scalar MacTest.cliHost.wlan[0].mac.hcf.edca.edcaf[0].pendingQueue queueLength:timeavg 0
scalar MacTest.cliHost.wlan[0].mac.hcf.edca.edcaf[0].pendingQueue queueBitLength:last 0
scalar MacTest.cliHost.wlan[0].mac.hcf.edca.edcaf[0].pendingQueue queueBitLength:max 12312
scalar MacTest.cliHost.wlan[0].mac.hcf.edca.edcaf[0].pendingQueue queueBitLength:timeavg 0
scalar MacTest.cliHost.wlan[0].mac.hcf.edca.edcaf[0].pendingQueue outgoingPackets:count 48
scalar MacTest.cliHost.wlan[0].mac.hcf.edca.edcaf[0].pendingQueue outgoingPacketLengths:sum 422872
scalar MacTest.cliHost.wlan[0].mac.hcf.edca.edcaf[0].pendingQueue incomingPackets:count 48
scalar MacTest.cliHost.wlan[0].mac.hcf.edca.edcaf[0].pendingQueue incomingPacketLengths:sum 422872
scalar MacTest.cliHost.wlan[0].mac.hcf.edca.edcaf[0].pendingQueue droppedPacketsQueueOverflow:count 0
scalar MacTest.cliHost.wlan[0].mac.hcf.edca.edcaf[0].pendingQueue droppedPacketLengthsQueueOverflow:sum 0
scalar MacTest.cliHost.wlan[0].mac.hcf.edca.edcaf[0].inProgressFrames queueLength:max 2
scalar MacTest.cliHost.wlan[0].mac.hcf.edca.edcaf[0].inProgressFrames queueLength:timeavg 0.00024526047056
scalar MacTest.cliHost.wlan[0].mac.hcf.edca.edcaf[0].contention channelAccessGranted:count 51
scalar MacTest.cliHost.wlan[0].mac.hcf.edca.edcaf[0].contention stateChanged:count 638
scalar MacTest.cliHost.wlan[0].mac.hcf.edca.edcaf[0].txopProcedure txopEnded:count 51
scalar MacTest.cliHost.wlan[0].mac.hcf.edca.edcaf[0].recoveryProcedure retryLimitReached:count 0
scalar MacTest.cliHost.wlan[0].mac.hcf.edca.edcaf[0] channelOwnershipChanged:count 102
scalar MacTest.cliHost.wlan[0].mac.hcf.edca.edcaf[0] packetSentToPeer:count 51
scalar MacTest.cliHost.wlan[0].mac.hcf.edca.edcaf[0] packetSentToPeer:sum(packetBytes) 52949
scalar MacTest.cliHost.wlan[0].mac.hcf.edca.edcaf[0] packetSentToPeerUnicast:count 51
scalar MacTest.cliHost.wlan[0].mac.hcf.edca.edcaf[0] packetSentToPeerUnicast:sum(packetBytes) 52949
scalar MacTest.cliHost.wlan[0].mac.hcf.edca.edcaf[0] packetSentToPeerMulticast:count 0
scalar MacTest.cliHost.wlan[0].mac.hcf.edca.edcaf[0] packetSentToPeerMulticast:sum(packetBytes) 0
scalar MacTest.cliHost.wlan[0].mac.hcf.edca.edcaf[0] packetSentToPeerBroadcast:count 0
scalar MacTest.cliHost.wlan[0].mac.hcf.edca.edcaf[0] packetSentToPeerBroadcast:sum(packetBytes) 0
scalar MacTest.cliHost.wlan[0].mac.hcf.edca.edcaf[0] packetSentToPeerWithRetry:count 0
scalar MacTest.cliHost.wlan[0].mac.hcf.edca.edcaf[0] packetSentToPeerWithRetry:sum(packetBytes) 0
scalar MacTest.cliHost.wlan[0].mac.hcf.edca.edcaf[0] packetSentToPeerWithoutRetry:count 51
scalar MacTest.cliHost.wlan[0].mac.hcf.edca.edcaf[0] packetSentToPeerWithoutRetry:sum(packetBytes) 52949
scalar MacTest.cliHost.wlan[0].mac.hcf.edca.edcaf[1].pendingQueue queueLength:last 0
scalar MacTest.cliHost.wlan[0].mac.hcf.edca.edcaf[1].pendingQueue queueLength:max 0
scalar MacTest.cliHost.wlan[0].mac.hcf.edca.edcaf[1].pendingQueue queueLength:timeavg 0
scalar MacTest.cliHost.wlan[0].mac.hcf.edca.edcaf[1].pendingQueue queueBitLength:last 0
scalar MacTest.cliHost.wlan[0].mac.hcf.edca.edcaf[1].pendingQueue queueBitLength:max 0
scalar MacTest.cliHost.wlan[0].mac.hcf.edca.edcaf[1].pendingQueue queueBitLength:timeavg 0
scalar MacTest.cliHost.wlan[0].mac.hcf.edca.edcaf[1].pendingQueue outgoingPackets:count 0
scalar MacTest.cliHost.wlan[0].mac.hcf.edca.edcaf[1].pendingQueue outgoingPacketLengths:sum 0
scalar MacTest.cliHost.wlan[0].mac.hcf.edca.edcaf[1].pendingQueue incomingPackets:count 0
scalar MacTest.cliHost.wlan[0].mac.hcf.edca.edcaf[1].pendingQueue incomingPacketLengths:sum 0
scalar MacTest.cliHost.wlan[0].mac.hcf.edca.edcaf[1].pendingQueue droppedPacketsQueueOverflow:count 0
scalar MacTest.cliHost.wlan[0].mac.hcf.edca.edcaf[1].pendingQueue droppedPacketLengthsQueueOverflow:sum 0
scalar MacTest.cliHost.wlan[0].mac.hcf.edca.edcaf[1].inProgressFrames queueLength:max 0
scalar MacTest.cliHost.wlan[0].mac.hcf.edca.edcaf[1].inProgressFrames queueLength:timeavg 0
scalar MacTest.cliHost.wlan[0].mac.hcf.edca.edcaf[1].contention channelAccessGranted:count 0
scalar MacTest.cliHost.wlan[0].mac.hcf.edca.edcaf[1].contention stateChanged:count 434
scalar MacTest.cliHost.wlan[0].mac.hcf.edca.edcaf[1].txopProcedure txopEnded:count 0
scalar MacTest.cliHost.wlan[0].mac.hcf.edca.edcaf[1].recoveryProcedure retryLimitReached:count 0
scalar MacTest.cliHost.wlan[0].mac.hcf.edca.edcaf[1] channelOwnershipChanged:count 0
scalar MacTest.cliHost.wlan[0].mac.hcf.edca.edcaf[1] packetSentToPeer:count 0
scalar MacTest.cliHost.wlan[0].mac.hcf.edca.edcaf[1] packetSentToPeer:sum(packetBytes) 0
scalar MacTest.cliHost.wlan[0].mac.hcf.edca.edcaf[1] packetSentToPeerUnicast:count 0
scalar MacTest.cliHost.wlan[0].mac.hcf.edca.edcaf[1] packetSentToPeerUnicast:sum(packetBytes) 0
scalar MacTest.cliHost.wlan[0].mac.hcf.edca.edcaf[1] packetSentToPeerMulticast:count 0
scalar MacTest.cliHost.wlan[0].mac.hcf.edca.edcaf[1] packetSentToPeerMulticast:sum(packetBytes) 0
scalar MacTest.cliHost.wlan[0].mac.hcf.edca.edcaf[1] packetSentToPeerBroadcast:count 0
scalar MacTest.cliHost.wlan[0].mac.hcf.edca.edcaf[1] packetSentToPeerBroadcast:sum(packetBytes) 0
scalar MacTest.cliHost.wlan[0].mac.hcf.edca.edcaf[1] packetSentToPeerWithRetry:count 0
scalar MacTest.cliHost.wlan[0].mac.hcf.edca.edcaf[1] packetSentToPeerWithRetry:sum(packetBytes) 0
scalar MacTest.cliHost.wlan[0].mac.hcf.edca.edcaf[1] packetSentToPeerWithoutRetry:count 0
scalar MacTest.cliHost.wlan[0].mac.hcf.edca.edcaf[1] packetSentToPeerWithoutRetry:sum(packetBytes) 0
scalar MacTest.cliHost.wlan[0].mac.hcf.edca.edcaf[2].pendingQueue queueLength:last 0
scalar MacTest.cliHost.wlan[0].mac.hcf.edca.edcaf[2].pendingQueue queueLength:max 0
scalar MacTest.cliHost.wlan[0].mac.hcf.edca.edcaf[2].pendingQueue queueLength:timeavg 0
scalar MacTest.cliHost.wlan[0].mac.hcf.edca.edcaf[2].pendingQueue queueBitLength:last 0
scalar MacTest.cliHost.wlan[0].mac.hcf.edca.edcaf[2].pendingQueue queueBitLength:max 0
scalar MacTest.cliHost.wlan[0].mac.hcf.edca.edcaf[2].pendingQueue queueBitLength:timeavg 0
scalar MacTest.cliHost.wlan[0].mac.hcf.edca.edcaf[2].pendingQueue outgoingPackets:count 0
scalar MacTest.cliHost.wlan[0].mac.hcf.edca.edcaf[2].pendingQueue outgoingPacketLengths:sum 0
scalar MacTest.cliHost.wlan[0].mac.hcf.edca.edcaf[2].pendingQueue incomingPackets:count 0
scalar MacTest.cliHost.wlan[0].mac.hcf.edca.edcaf[2].pendingQueue incomingPacketLengths:sum 0
scalar MacTest.cliHost.wlan[0].mac.hcf.edca.edcaf[2].pendingQueue droppedPacketsQueueOverflow:count 0
scalar MacTest.cliHost.wlan[0].mac.hcf.edca.edcaf[2].pendingQueue droppedPacketLengthsQueueOverflow:sum 0
scalar MacTest.cliHost.wlan[0].mac.hcf.edca.edcaf[2].inProgressFrames queueLength:max 0
scalar MacTest.cliHost.wlan[0].mac.hcf.edca.edcaf[2].inProgressFrames queueLength:timeavg 0
scalar MacTest.cliHost.wlan[0].mac.hcf.edca.edcaf[2].contention channelAccessGranted:count 0
scalar MacTest.cliHost.wlan[0].mac.hcf.edca.edcaf[2].contention stateChanged:count 434
scalar MacTest.cliHost.wlan[0].mac.hcf.edca.edcaf[2].txopProcedure txopEnded:count 0
scalar MacTest.cliHost.wlan[0].mac.hcf.edca.edcaf[2].recoveryProcedure retryLimitReached:count 0
scalar MacTest.cliHost.wlan[0].mac.hcf.edca.edcaf[2] channelOwnershipChanged:count 0
scalar MacTest.cliHost.wlan[0].mac.hcf.edca.edcaf[2] packetSentToPeer:count 0
scalar MacTest.cliHost.wlan[0].mac.hcf.edca.edcaf[2] packetSentToPeer:sum(packetBytes) 0
scalar MacTest.cliHost.wlan[0].mac.hcf.edca.edcaf[2] packetSentToPeerUnicast:count 0
scalar MacTest.cliHost.wlan[0].mac.hcf.edca.edcaf[2] packetSentToPeerUnicast:sum(packetBytes) 0
scalar MacTest.cliHost.wlan[0].mac.hcf.edca.edcaf[2] packetSentToPeerMulticast:count 0
scalar MacTest.cliHost.wlan[0].mac.hcf.edca.edcaf[2] packetSentToPeerMulticast:sum(packetBytes) 0
scalar MacTest.cliHost.wlan[0].mac.hcf.edca.edcaf[2] packetSentToPeerBroadcast:count 0
scalar MacTest.cliHost.wlan[0].mac.hcf.edca.edcaf[2] packetSentToPeerBroadcast:sum(packetBytes) 0
scalar MacTest.cliHost.wlan[0].mac.hcf.edca.edcaf[2] packetSentToPeerWithRetry:count 0
scalar MacTest.cliHost.wlan[0].mac.hcf.edca.edcaf[2] packetSentToPeerWithRetry:sum(packetBytes) 0
scalar MacTest.cliHost.wlan[0].mac.hcf.edca.edcaf[2] packetSentToPeerWithoutRetry:count 0
scalar MacTest.cliHost.wlan[0].mac.hcf.edca.edcaf[2] packetSentToPeerWithoutRetry:sum(packetBytes) 0
scalar MacTest.cliHost.wlan[0].mac.hcf.edca.edcaf[3].pendingQueue queueLength:last 0
scalar MacTest.cliHost.wlan[0].mac.hcf.edca.edcaf[3].pendingQueue queueLength:max 1
scalar MacTest.cliHost.wlan[0].mac.hcf.edca.edcaf[3].pendingQueue queueLength:timeavg 0
scalar MacTest.cliHost.wlan[0].mac.hcf.edca.edcaf[3].pendingQueue queueBitLength:last 0
scalar MacTest.cliHost.wlan[0].mac.hcf.edca.edcaf[3].pendingQueue queueBitLength:max 32392
scalar MacTest.cliHost.wlan[0].mac.hcf.edca.edcaf[3].pendingQueue queueBitLength:timeavg 0
scalar MacTest.cliHost.wlan[0].mac.hcf.edca.edcaf[3].pendingQueue outgoingPackets:count 57
scalar MacTest.cliHost.wlan[0].mac.hcf.edca.edcaf[3].pendingQueue outgoingPacketLengths:sum 1006472
scalar MacTest.cliHost.wlan[0].mac.hcf.edca.edcaf[3].pendingQueue incomingPackets:count 57
scalar MacTest.cliHost.wlan[0].mac.hcf.edca.edcaf[3].pendingQueue incomingPacketLengths:sum 1006472
scalar MacTest.cliHost.wlan[0].mac.hcf.edca.edcaf[3].pendingQueue droppedPacketsQueueOverflow:count 0
scalar MacTest.cliHost.wlan[0].mac.hcf.edca.edcaf[3].pendingQueue droppedPacketLengthsQueueOverflow:sum 0
scalar MacTest.cliHost.wlan[0].mac.hcf.edca.edcaf[3].inProgressFrames queueLength:max 3
scalar MacTest.cliHost.wlan[0].mac.hcf.edca.edcaf[3].inProgressFrames queueLength:timeavg 0.0009307283736
scalar MacTest.cliHost.wlan[0].mac.hcf.edca.edcaf[3].contention channelAccessGranted:count 57
scalar MacTest.cliHost.wlan[0].mac.hcf.edca.edcaf[3].contention stateChanged:count 662
scalar MacTest.cliHost.wlan[0].mac.hcf.edca.edcaf[3].txopProcedure txopEnded:count 57
scalar MacTest.cliHost.wlan[0].mac.hcf.edca.edcaf[3].recoveryProcedure retryLimitReached:count 0
scalar MacTest.cliHost.wlan[0].mac.hcf.edca.edcaf[3] channelOwnershipChanged:count 114
scalar MacTest.cliHost.wlan[0].mac.hcf.edca.edcaf[3] packetSentToPeer:count 113
scalar MacTest.cliHost.wlan[0].mac.hcf.edca.edcaf[3] packetSentToPeer:sum(packetBytes) 127489
scalar MacTest.cliHost.wlan[0].mac.hcf.edca.edcaf[3] packetSentToPeerUnicast:count 113
scalar MacTest.cliHost.wlan[0].mac.hcf.edca.edcaf[3] packetSentToPeerUnicast:sum(packetBytes) 127489
scalar MacTest.cliHost.wlan[0].mac.hcf.edca.edcaf[3] packetSentToPeerMulticast:count 0
scalar MacTest.cliHost.wlan[0].mac.hcf.edca.edcaf[3] packetSentToPeerMulticast:sum(packetBytes) 0
scalar MacTest.cliHost.wlan[0].mac.hcf.edca.edcaf[3] packetSentToPeerBroadcast:count 0
scalar MacTest.cliHost.wlan[0].mac.hcf.edca.edcaf[3] packetSentToPeerBroadcast:sum(packetBytes) 0
scalar MacTest.cliHost.wlan[0].mac.hcf.edca.edcaf[3] packetSentToPeerWithRetry:count 0
scalar MacTest.cliHost.wlan[0].mac.hcf.edca.edcaf[3] packetSentToPeerWithRetry:sum(packetBytes) 0
scalar MacTest.cliHost.wlan[0].mac.hcf.edca.edcaf[3] packetSentToPeerWithoutRetry:count 113
scalar MacTest.cliHost.wlan[0].mac.hcf.edca.edcaf[3] packetSentToPeerWithoutRetry:sum(packetBytes) 127489
scalar MacTest.cliHost.wlan[0].mac.hcf.edca.mgmtAndNonQoSRecoveryProcedure retryLimitReached:count 0
scalar MacTest.cliHost.wlan[0].mac.hcf.originatorMacDataService packetAggregated:count 0
scalar MacTest.cliHost.wlan[0].mac.hcf.originatorMacDataService packetFragmented:count 43
scalar MacTest.cliHost.wlan[0].mac.hcf.recipientMacDataService packetDeaggregated:count 0
scalar MacTest.cliHost.wlan[0].mac.hcf.recipientMacDataService packetDefragmented:count 0
scalar MacTest.cliHost.wlan[0].mac.hcf.recipientMacDataService packetDropDuplicateDetected:count 0
scalar MacTest.cliHost.wlan[0].mac.hcf.recipientMacDataService packetDropDuplicateDetected:sum(packetBytes) 0
scalar MacTest.cliHost.wlan[0].mac.hcf blockAckAgreementDeleted:count 0
scalar MacTest.cliHost.wlan[0].mac.hcf blockAckAgreementAdded:count 0
scalar MacTest.cliHost.wlan[0].mac.hcf edcaCollisionDetected:count 0
scalar MacTest.cliHost.wlan[0].mac.hcf frameSequenceFinished:count 108
scalar MacTest.cliHost.wlan[0].mac.hcf packetReceivedFromPeerUnicast:count 164
scalar MacTest.cliHost.wlan[0].mac.hcf packetReceivedFromPeerUnicast:sum(packetBytes) 2296
scalar MacTest.cliHost.wlan[0].mac.hcf packetReceivedFromPeerMulticast:count 0
scalar MacTest.cliHost.wlan[0].mac.hcf packetReceivedFromPeerMulticast:sum(packetBytes) 0
scalar MacTest.cliHost.wlan[0].mac.hcf packetReceivedFromPeerBroadcast:count 0
scalar MacTest.cliHost.wlan[0].mac.hcf packetReceivedFromPeerBroadcast:sum(packetBytes) 0
scalar MacTest.cliHost.wlan[0].mac.hcf packetReceivedFromPeerWithRetry:count 0
scalar MacTest.cliHost.wlan[0].mac.hcf packetReceivedFromPeerWithRetry:sum(packetBytes) 0
scalar MacTest.cliHost.wlan[0].mac.hcf packetReceivedFromPeerWithoutRetry:count 164
scalar MacTest.cliHost.wlan[0].mac.hcf packetReceivedFromPeerWithoutRetry:sum(packetBytes) 2296
scalar MacTest.cliHost.wlan[0].mac.hcf packetSentToPeer:count 164
scalar MacTest.cliHost.wlan[0].mac.hcf packetSentToPeer:sum(packetBytes) 180438
scalar MacTest.cliHost.wlan[0].mac.hcf packetSentToPeerUnicast:count 164
scalar MacTest.cliHost.wlan[0].mac.hcf packetSentToPeerUnicast:sum(packetBytes) 180438
scalar MacTest.cliHost.wlan[0].mac.hcf packetSentToPeerMulticast:count 0
scalar MacTest.cliHost.wlan[0].mac.hcf packetSentToPeerMulticast:sum(packetBytes) 0
scalar MacTest.cliHost.wlan[0].mac.hcf packetSentToPeerBroadcast:count 0
scalar MacTest.cliHost.wlan[0].mac.hcf packetSentToPeerBroadcast:sum(packetBytes) 0
scalar MacTest.cliHost.wlan[0].mac.hcf packetSentToPeerWithRetry:count 0
scalar MacTest.cliHost.wlan[0].mac.hcf packetSentToPeerWithRetry:sum(packetBytes) 0
scalar MacTest.cliHost.wlan[0].mac.hcf packetSentToPeerWithoutRetry:count 164
scalar MacTest.cliHost.wlan[0].mac.hcf packetSentToPeerWithoutRetry:sum(packetBytes) 180438
scalar MacTest.cliHost.wlan[0].mac.hcf packetDrop:count 0
scalar MacTest.cliHost.wlan[0].mac.hcf packetDrop:sum(packetBytes) 0
scalar MacTest.cliHost.wlan[0].mac.hcf packetDropNotAddressedToUs:count 0
scalar MacTest.cliHost.wlan[0].mac.hcf packetDropNotAddressedToUs:sum(packetBytes) 0
scalar MacTest.cliHost.wlan[0].mac.hcf packetDropQueueOverflow:count 0
scalar MacTest.cliHost.wlan[0].mac.hcf packetDropQueueOverflow:sum(packetBytes) 0
scalar MacTest.cliHost.wlan[0].mac.hcf packetDropRetryLimitReached:count 0
scalar MacTest.cliHost.wlan[0].mac.hcf packetDropRetryLimitReached:sum(packetBytes) 0
scalar MacTest.cliHost.wlan[0].mac.hcf linkBroken:count 0
scalar MacTest.cliHost.wlan[0].mac packetReceivedFromLower:count 164
scalar MacTest.cliHost.wlan[0].mac packetReceivedFromLower:sum(packetBytes) 2296
scalar MacTest.cliHost.wlan[0].mac packetSentToLower:count 164
scalar MacTest.cliHost.wlan[0].mac packetSentToLower:sum(packetBytes) 180438
scalar MacTest.cliHost.wlan[0].mac packetReceivedFromUpper:count 105
scalar MacTest.cliHost.wlan[0].mac packetReceivedFromUpper:sum(packetBytes) 175518
scalar MacTest.cliHost.wlan[0].mac packetSentToUpper:count 0
scalar MacTest.cliHost.wlan[0].mac packetSentToUpper:sum(packetBytes) 0
scalar MacTest.cliHost.wlan[0].mac packetDrop:count 0
scalar MacTest.cliHost.wlan[0].mac packetDrop:sum(packetBytes) 0
scalar MacTest.cliHost.wlan[0].mac packetDropIncorrectlyReceived:count 0
scalar MacTest.cliHost.wlan[0].mac packetDropIncorrectlyReceived:sum(packetBytes) 0
scalar MacTest.cliHost.wlan[0].mac packetDropNotAddressedToUs:count 0
scalar MacTest.cliHost.wlan[0].mac packetDropNotAddressedToUs:sum(packetBytes) 0
scalar MacTest.cliHost.wlan[0].mac packetDropQueueOverflow:count 0
scalar MacTest.cliHost.wlan[0].mac packetDropQueueOverflow:sum(packetBytes) 0
scalar MacTest.cliHost.wlan[0].mac packetDropRetryLimitReached:count 0
scalar MacTest.cliHost.wlan[0].mac packetDropRetryLimitReached:sum(packetBytes) 0
scalar MacTest.cliHost.wlan[0].mac packetDropDuplicateDetected:count 0
scalar MacTest.cliHost.wlan[0].mac packetDropDuplicateDetected:sum(packetBytes) 0
scalar MacTest.cliHost.wlan[0].mac packetDropOther:count 0
scalar MacTest.cliHost.wlan[0].mac packetDropOther:sum(packetBytes) 0
scalar MacTest.cliHost.wlan[0].mac linkBroken:count 0
scalar MacTest.cliHost.wlan[0].radio radioMode:count 331
scalar MacTest.cliHost.wlan[0].radio receptionState:count 657
scalar MacTest.cliHost.wlan[0].radio transmissionState:count 656
scalar MacTest.cliHost.wlan[0] packetDropInterfaceDown:count 0
scalar MacTest.cliHost.wlan[0] packetDropInterfaceDown:sum(packetBytes) 0
scalar MacTest.cliHost.wlan[0] packetDropNoCarrier:count 0
scalar MacTest.cliHost.wlan[0] packetDropNoCarrier:sum(packetBytes) 0
scalar MacTest.cliHost.ipv4.ip packetDropAddressResolutionFailed:count 0
scalar MacTest.cliHost.ipv4.ip packetDropAddressResolutionFailed:sum(packetBytes) 0
scalar MacTest.cliHost.ipv4.ip packetDropHopLimitReached:count 0
scalar MacTest.cliHost.ipv4.ip packetDropHopLimitReached:sum(packetBytes) 0
scalar MacTest.cliHost.ipv4.ip packetDropForwardingDisabled:count 0
scalar MacTest.cliHost.ipv4.ip packetDropForwardingDisabled:sum(packetBytes) 0
scalar MacTest.cliHost.ipv4.ip packetDropLifetimeExpired:count 0
scalar MacTest.cliHost.ipv4.ip packetDropLifetimeExpired:sum(packetBytes) 0
scalar MacTest.cliHost.ipv4.ip packetDropNoInterfaceFound:count 0
scalar MacTest.cliHost.ipv4.ip packetDropNoInterfaceFound:sum(packetBytes) 0
scalar MacTest.cliHost.ipv4.ip packetDropNoRouteFound:count 0
scalar MacTest.cliHost.ipv4.ip packetDropNoRouteFound:sum(packetBytes) 0
scalar MacTest.cliHost.ipv4.ip packetDropUndefined:count 0
scalar MacTest.cliHost.ipv4.ip packetDropUndefined:sum(packetBytes) 0
scalar MacTest.cliHost.udp packetReceived:count 0
scalar MacTest.cliHost.udp packetReceived:sum(packetBytes) 0
scalar MacTest.cliHost.udp packetSent:count 105
scalar MacTest.cliHost.udp packetSent:sum(packetBytes) 172578
scalar MacTest.cliHost.udp passedUpPk:count 0
scalar MacTest.cliHost.udp droppedPkWrongPort:count 0
scalar MacTest.cliHost.udp droppedPkBadChecksum:count 0
scalar MacTest.cliHost.app[0] "packets sent" 48
scalar MacTest.cliHost.app[0] "packets received" 0
scalar MacTest.cliHost.app[0] packetReceived:count 0
scalar MacTest.cliHost.app[0] packetReceived:sum(packetBytes) 0
scalar MacTest.cliHost.app[0] packetSent:count 48
scalar MacTest.cliHost.app[0] packetSent:sum(packetBytes) 49691
scalar MacTest.cliHost.app[1] "packets sent" 57
scalar MacTest.cliHost.app[1] "packets received" 0
scalar MacTest.cliHost.app[1] packetReceived:count 0
scalar MacTest.cliHost.app[1] packetReceived:sum(packetBytes) 0
scalar MacTest.cliHost.app[1] packetSent:count 57
scalar MacTest.cliHost.app[1] packetSent:sum(packetBytes) 122047
scalar MacTest.radioMedium.propagation "Arrival computation count" 328
scalar MacTest.radioMedium "transmission count" 328
scalar MacTest.radioMedium "signal send count" 328
scalar MacTest.radioMedium "reception computation count" 328
scalar MacTest.radioMedium "interference computation count" 1316
scalar MacTest.radioMedium "reception decision computation count" 328
scalar MacTest.radioMedium "listening decision computation count" 660
scalar MacTest.radioMedium "reception cache hit" 85.714285714286
scalar MacTest.radioMedium "interference cache hit" 66.666666666667
scalar MacTest.radioMedium "noise cache hit" 0
scalar MacTest.radioMedium "snir cache hit" 50
scalar MacTest.radioMedium "reception decision cache hit" 50
scalar MacTest.radioMedium "reception result cache hit" 0
scalar MacTest.cliHost.app[0] rcvdPkLifetime:stats:count 0
scalar MacTest.cliHost.app[0] rcvdPkLifetime:stats:sumweights 0
scalar MacTest.cliHost.app[0] rcvdPkLifetime:stats:mean -nan
scalar MacTest.cliHost.app[0] rcvdPkLifetime:stats:stddev nan
scalar MacTest.cliHost.app[0] rcvdPkLifetime:stats:min nan
scalar MacTest.cliHost.app[0] rcvdPkLifetime:stats:max nan
scalar MacTest.cliHost.app[0] rcvdPkLifetime:stats:numbins 0
scalar MacTest.cliHost.app[1] rcvdPkLifetime:stats:count 0
scalar MacTest.cliHost.app[1] rcvdPkLifetime:stats:sumweights 0
scalar MacTest.cliHost.app[1] rcvdPkLifetime:stats:mean -nan
scalar MacTest.cliHost.app[1] rcvdPkLifetime:stats:stddev nan
scalar MacTest.cliHost.app[1] rcvdPkLifetime:stats:min nan
scalar MacTest.cliHost.app[1] rcvdPkLifetime:stats:max nan
scalar MacTest.cliHost.app[1] rcvdPkLifetime:stats:numbins 0
scalar MacTest.srvHost.wlan[0].mac.dcf.channelAccess.pendingQueue queueingTime:histogram:count 0
scalar MacTest.srvHost.wlan[0].mac.dcf.channelAccess.pendingQueue queueingTime:histogram:sumweights 0
scalar MacTest.srvHost.wlan[0].mac.dcf.channelAccess.pendingQueue queueingTime:histogram:mean -nan
scalar MacTest.srvHost.wlan[0].mac.dcf.channelAccess.pendingQueue queueingTime:histogram:stddev nan
scalar MacTest.srvHost.wlan[0].mac.dcf.channelAccess.pendingQueue queueingTime:histogram:min nan
scalar MacTest.srvHost.wlan[0].mac.dcf.channelAccess.pendingQueue queueingTime:histogram:max nan
scalar MacTest.srvHost.wlan[0].mac.dcf.channelAccess.pendingQueue queueingTime:histogram:numbins 1
scalar MacTest.srvHost.wlan[0].mac.dcf.channelAccess.pendingQueue queueingTime:histogram:rangemin 0
scalar MacTest.srvHost.wlan[0].mac.dcf.channelAccess.pendingQueue queueingTime:histogram:rangemax 1
scalar MacTest.srvHost.wlan[0].mac.dcf.channelAccess.pendingQueue queueingTime:histogram:underflows 0
scalar MacTest.srvHost.wlan[0].mac.dcf.channelAccess.pendingQueue queueingTime:histogram:overflows 0
scalar MacTest.srvHost.wlan[0].mac.dcf.channelAccess.pendingQueue outgoingPacketLengths:histogram:count 0
scalar MacTest.srvHost.wlan[0].mac.dcf.channelAccess.pendingQueue outgoingPacketLengths:histogram:sumweights 0
scalar MacTest.srvHost.wlan[0].mac.dcf.channelAccess.pendingQueue outgoingPacketLengths:histogram:mean -nan
scalar MacTest.srvHost.wlan[0].mac.dcf.channelAccess.pendingQueue outgoingPacketLengths:histogram:stddev nan
scalar MacTest.srvHost.wlan[0].mac.dcf.channelAccess.pendingQueue outgoingPacketLengths:histogram:min nan
scalar MacTest.srvHost.wlan[0].mac.dcf.channelAccess.pendingQueue outgoingPacketLengths:histogram:max nan
scalar MacTest.srvHost.wlan[0].mac.dcf.channelAccess.pendingQueue outgoingPacketLengths:histogram:numbins 1
scalar MacTest.srvHost.wlan[0].mac.dcf.channelAccess.pendingQueue outgoingPacketLengths:histogram:rangemin 0
scalar MacTest.srvHost.wlan[0].mac.dcf.channelAccess.pendingQueue outgoingPacketLengths:histogram:rangemax 1
scalar MacTest.srvHost.wlan[0].mac.dcf.channelAccess.pendingQueue outgoingPacketLengths:histogram:underflows 0
scalar MacTest.srvHost.wlan[0].mac.dcf.channelAccess.pendingQueue outgoingPacketLengths:histogram:overflows 0
scalar MacTest.srvHost.wlan[0].mac.dcf.channelAccess.pendingQueue flowQueueingTime:histogram:count 0
scalar MacTest.srvHost.wlan[0].mac.dcf.channelAccess.pendingQueue flowQueueingTime:histogram:sumweights 0
scalar MacTest.srvHost.wlan[0].mac.dcf.channelAccess.pendingQueue flowQueueingTime:histogram:mean -nan
scalar MacTest.srvHost.wlan[0].mac.dcf.channelAccess.pendingQueue flowQueueingTime:histogram:stddev nan
scalar MacTest.srvHost.wlan[0].mac.dcf.channelAccess.pendingQueue flowQueueingTime:histogram:min nan
scalar MacTest.srvHost.wlan[0].mac.dcf.channelAccess.pendingQueue flowQueueingTime:histogram:max nan
scalar MacTest.srvHost.wlan[0].mac.dcf.channelAccess.pendingQueue flowQueueingTime:histogram:numbins 1
scalar MacTest.srvHost.wlan[0].mac.dcf.channelAccess.pendingQueue flowQueueingTime:histogram:rangemin 0
scalar MacTest.srvHost.wlan[0].mac.dcf.channelAccess.pendingQueue flowQueueingTime:histogram:rangemax 1
scalar MacTest.srvHost.wlan[0].mac.dcf.channelAccess.pendingQueue flowQueueingTime:histogram:underflows 0
scalar MacTest.srvHost.wlan[0].mac.dcf.channelAccess.pendingQueue flowQueueingTime:histogram:overflows 0
scalar MacTest.srvHost.wlan[0].mac.dcf.channelAccess.pendingQueue incomingPacketLengths:histogram:count 0
scalar MacTest.srvHost.wlan[0].mac.dcf.channelAccess.pendingQueue incomingPacketLengths:histogram:sumweights 0
scalar MacTest.srvHost.wlan[0].mac.dcf.channelAccess.pendingQueue incomingPacketLengths:histogram:mean -nan
scalar MacTest.srvHost.wlan[0].mac.dcf.channelAccess.pendingQueue incomingPacketLengths:histogram:stddev nan
scalar MacTest.srvHost.wlan[0].mac.dcf.channelAccess.pendingQueue incomingPacketLengths:histogram:min nan
scalar MacTest.srvHost.wlan[0].mac.dcf.channelAccess.pendingQueue incomingPacketLengths:histogram:max nan
scalar MacTest.srvHost.wlan[0].mac.dcf.channelAccess.pendingQueue incomingPacketLengths:histogram:numbins 1
scalar MacTest.srvHost.wlan[0].mac.dcf.channelAccess.pendingQueue incomingPacketLengths:histogram:rangemin 0
scalar MacTest.srvHost.wlan[0].mac.dcf.channelAccess.pendingQueue incomingPacketLengths:histogram:rangemax 1
scalar MacTest.srvHost.wlan[0].mac.dcf.channelAccess.pendingQueue incomingPacketLengths:histogram:underflows 0
scalar MacTest.srvHost.wlan[0].mac.dcf.channelAccess.pendingQueue incomingPacketLengths:histogram:overflows 0
scalar MacTest.srvHost.wlan[0].mac.dcf.channelAccess.inProgressFrames queueingTime:histogram:count 0
scalar MacTest.srvHost.wlan[0].mac.dcf.channelAccess.inProgressFrames queueingTime:histogram:sumweights 0
scalar MacTest.srvHost.wlan[0].mac.dcf.channelAccess.inProgressFrames queueingTime:histogram:mean -nan
scalar MacTest.srvHost.wlan[0].mac.dcf.channelAccess.inProgressFrames queueingTime:histogram:stddev nan
scalar MacTest.srvHost.wlan[0].mac.dcf.channelAccess.inProgressFrames queueingTime:histogram:min nan
scalar MacTest.srvHost.wlan[0].mac.dcf.channelAccess.inProgressFrames queueingTime:histogram:max nan
scalar MacTest.srvHost.wlan[0].mac.dcf.channelAccess.inProgressFrames queueingTime:histogram:numbins 1
scalar MacTest.srvHost.wlan[0].mac.dcf.channelAccess.inProgressFrames queueingTime:histogram:rangemin 0
scalar MacTest.srvHost.wlan[0].mac.dcf.channelAccess.inProgressFrames queueingTime:histogram:rangemax 1
scalar MacTest.srvHost.wlan[0].mac.dcf.channelAccess.inProgressFrames queueingTime:histogram:underflows 0
scalar MacTest.srvHost.wlan[0].mac.dcf.channelAccess.inProgressFrames queueingTime:histogram:overflows 0
scalar MacTest.srvHost.wlan[0].mac.dcf frameSequenceDuration:histogram:count 0
scalar MacTest.srvHost.wlan[0].mac.dcf frameSequenceDuration:histogram:sumweights 0
scalar MacTest.srvHost.wlan[0].mac.dcf frameSequenceDuration:histogram:mean -nan
scalar MacTest.srvHost.wlan[0].mac.dcf frameSequenceDuration:histogram:stddev nan
scalar MacTest.srvHost.wlan[0].mac.dcf frameSequenceDuration:histogram:min nan
scalar MacTest.srvHost.wlan[0].mac.dcf frameSequenceDuration:histogram:max nan
scalar MacTest.srvHost.wlan[0].mac.dcf frameSequenceDuration:histogram:numbins 1
scalar MacTest.srvHost.wlan[0].mac.dcf frameSequenceDuration:histogram:rangemin 0
scalar MacTest.srvHost.wlan[0].mac.dcf frameSequenceDuration:histogram:rangemax 1
scalar MacTest.srvHost.wlan[0].mac.dcf frameSequenceDuration:histogram:underflows 0
scalar MacTest.srvHost.wlan[0].mac.dcf frameSequenceDuration:histogram:overflows 0
scalar MacTest.srvHost.wlan[0].mac.dcf frameSequenceNumPackets:histogram:count 0
scalar MacTest.srvHost.wlan[0].mac.dcf frameSequenceNumPackets:histogram:sumweights 0
scalar MacTest.srvHost.wlan[0].mac.dcf frameSequenceNumPackets:histogram:mean -nan
scalar MacTest.srvHost.wlan[0].mac.dcf frameSequenceNumPackets:histogram:stddev nan
scalar MacTest.srvHost.wlan[0].mac.dcf frameSequenceNumPackets:histogram:min nan
scalar MacTest.srvHost.wlan[0].mac.dcf frameSequenceNumPackets:histogram:max nan
scalar MacTest.srvHost.wlan[0].mac.dcf frameSequenceNumPackets:histogram:numbins 1
scalar MacTest.srvHost.wlan[0].mac.dcf frameSequenceNumPackets:histogram:rangemin 0
scalar MacTest.srvHost.wlan[0].mac.dcf frameSequenceNumPackets:histogram:rangemax 1
scalar MacTest.srvHost.wlan[0].mac.dcf frameSequenceNumPackets:histogram:underflows 0
scalar MacTest.srvHost.wlan[0].mac.dcf frameSequenceNumPackets:histogram:overflows 0
scalar MacTest.srvHost.wlan[0].mac.hcf.edca.edcaf[0].pendingQueue queueingTime:histogram:count 0
scalar MacTest.srvHost.wlan[0].mac.hcf.edca.edcaf[0].pendingQueue queueingTime:histogram:sumweights 0
scalar MacTest.srvHost.wlan[0].mac.hcf.edca.edcaf[0].pendingQueue queueingTime:histogram:mean -nan
scalar MacTest.srvHost.wlan[0].mac.hcf.edca.edcaf[0].pendingQueue queueingTime:histogram:stddev nan
scalar MacTest.srvHost.wlan[0].mac.hcf.edca.edcaf[0].pendingQueue queueingTime:histogram:min nan
scalar MacTest.srvHost.wlan[0].mac.hcf.edca.edcaf[0].pendingQueue queueingTime:histogram:max nan
scalar MacTest.srvHost.wlan[0].mac.hcf.edca.edcaf[0].pendingQueue queueingTime:histogram:numbins 1
scalar MacTest.srvHost.wlan[0].mac.hcf.edca.edcaf[0].pendingQueue queueingTime:histogram:rangemin 0
scalar MacTest.srvHost.wlan[0].mac.hcf.edca.edcaf[0].pendingQueue queueingTime:histogram:rangemax 1
scalar MacTest.srvHost.wlan[0].mac.hcf.edca.edcaf[0].pendingQueue queueingTime:histogram:underflows 0
scalar MacTest.srvHost.wlan[0].mac.hcf.edca.edcaf[0].pendingQueue queueingTime:histogram:overflows 0
scalar MacTest.srvHost.wlan[0].mac.hcf.edca.edcaf[0].pendingQueue outgoingPacketLengths:histogram:count 0
scalar MacTest.srvHost.wlan[0].mac.hcf.edca.edcaf[0].pendingQueue outgoingPacketLengths:histogram:sumweights 0
scalar MacTest.srvHost.wlan[0].mac.hcf.edca.edcaf[0].pendingQueue outgoingPacketLengths:histogram:mean -nan
scalar MacTest.srvHost.wlan[0].mac.hcf.edca.edcaf[0].pendingQueue outgoingPacketLengths:histogram:stddev nan
scalar MacTest.srvHost.wlan[0].mac.hcf.edca.edcaf[0].pendingQueue outgoingPacketLengths:histogram:min nan
scalar MacTest.srvHost.wlan[0].mac.hcf.edca.edcaf[0].pendingQueue outgoingPacketLengths:histogram:max nan
scalar MacTest.srvHost.wlan[0].mac.hcf.edca.edcaf[0].pendingQueue outgoingPacketLengths:histogram:numbins 1
scalar MacTest.srvHost.wlan[0].mac.hcf.edca.edcaf[0].pendingQueue outgoingPacketLengths:histogram:rangemin 0
scalar MacTest.srvHost.wlan[0].mac.hcf.edca.edcaf[0].pendingQueue outgoingPacketLengths:histogram:rangemax 1
scalar MacTest.srvHost.wlan[0].mac.hcf.edca.edcaf[0].pendingQueue outgoingPacketLengths:histogram:underflows 0
scalar MacTest.srvHost.wlan[0].mac.hcf.edca.edcaf[0].pendingQueue outgoingPacketLengths:histogram:overflows 0
scalar MacTest.srvHost.wlan[0].mac.hcf.edca.edcaf[0].pendingQueue flowQueueingTime:histogram:count 0
scalar MacTest.srvHost.wlan[0].mac.hcf.edca.edcaf[0].pendingQueue flowQueueingTime:histogram:sumweights 0
scalar MacTest.srvHost.wlan[0].mac.hcf.edca.edcaf[0].pendingQueue flowQueueingTime:histogram:mean -nan
scalar MacTest.srvHost.wlan[0].mac.hcf.edca.edcaf[0].pendingQueue flowQueueingTime:histogram:stddev nan
scalar MacTest.srvHost.wlan[0].mac.hcf.edca.edcaf[0].pendingQueue flowQueueingTime:histogram:min nan
scalar MacTest.srvHost.wlan[0].mac.hcf.edca.edcaf[0].pendingQueue flowQueueingTime:histogram:max nan
scalar MacTest.srvHost.wlan[0].mac.hcf.edca.edcaf[0].pendingQueue flowQueueingTime:histogram:numbins 1
scalar MacTest.srvHost.wlan[0].mac.hcf.edca.edcaf[0].pendingQueue flowQueueingTime:histogram:rangemin 0
scalar MacTest.srvHost.wlan[0].mac.hcf.edca.edcaf[0].pendingQueue flowQueueingTime:histogram:rangemax 1
scalar MacTest.srvHost.wlan[0].mac.hcf.edca.edcaf[0].pendingQueue flowQueueingTime:histogram:underflows 0
scalar MacTest.srvHost.wlan[0].mac.hcf.edca.edcaf[0].pendingQueue flowQueueingTime:histogram:overflows 0
scalar MacTest.srvHost.wlan[0].mac.hcf.edca.edcaf[0].pendingQueue incomingPacketLengths:histogram:count 0
scalar MacTest.srvHost.wlan[0].mac.hcf.edca.edcaf[0].pendingQueue incomingPacketLengths:histogram:sumweights 0
scalar MacTest.srvHost.wlan[0].mac.hcf.edca.edcaf[0].pendingQueue incomingPacketLengths:histogram:mean -nan
scalar MacTest.srvHost.wlan[0].mac.hcf.edca.edcaf[0].pendingQueue incomingPacketLengths:histogram:stddev nan
scalar MacTest.srvHost.wlan[0].mac.hcf.edca.edcaf[0].pendingQueue incomingPacketLengths:histogram:min nan
scalar MacTest.srvHost.wlan[0].mac.hcf.edca.edcaf[0].pendingQueue incomingPacketLengths:histogram:max nan
scalar MacTest.srvHost.wlan[0].mac.hcf.edca.edcaf[0].pendingQueue incomingPacketLengths:histogram:numbins 1
scalar MacTest.srvHost.wlan[0].mac.hcf.edca.edcaf[0].pendingQueue incomingPacketLengths:histogram:rangemin 0
scalar MacTest.srvHost.wlan[0].mac.hcf.edca.edcaf[0].pendingQueue incomingPacketLengths:histogram:rangemax 1
scalar MacTest.srvHost.wlan[0].mac.hcf.edca.edcaf[0].pendingQueue incomingPacketLengths:histogram:underflows 0
scalar MacTest.srvHost.wlan[0].mac.hcf.edca.edcaf[0].pendingQueue incomingPacketLengths:histogram:overflows 0
scalar MacTest.srvHost.wlan[0].mac.hcf.edca.edcaf[0].inProgressFrames queueingTime:histogram:count 0
scalar MacTest.srvHost.wlan[0].mac.hcf.edca.edcaf[0].inProgressFrames queueingTime:histogram:sumweights 0
scalar MacTest.srvHost.wlan[0].mac.hcf.edca.edcaf[0].inProgressFrames queueingTime:histogram:mean -nan
scalar MacTest.srvHost.wlan[0].mac.hcf.edca.edcaf[0].inProgressFrames queueingTime:histogram:stddev nan
scalar MacTest.srvHost.wlan[0].mac.hcf.edca.edcaf[0].inProgressFrames queueingTime:histogram:min nan
scalar MacTest.srvHost.wlan[0].mac.hcf.edca.edcaf[0].inProgressFrames queueingTime:histogram:max nan
scalar MacTest.srvHost.wlan[0].mac.hcf.edca.edcaf[0].inProgressFrames queueingTime:histogram:numbins 1
scalar MacTest.srvHost.wlan[0].mac.hcf.edca.edcaf[0].inProgressFrames queueingTime:histogram:rangemin 0
scalar MacTest.srvHost.wlan[0].mac.hcf.edca.edcaf[0].inProgressFrames queueingTime:histogram:rangemax 1
scalar MacTest.srvHost.wlan[0].mac.hcf.edca.edcaf[0].inProgressFrames queueingTime:histogram:underflows 0
scalar MacTest.srvHost.wlan[0].mac.hcf.edca.edcaf[0].inProgressFrames queueingTime:histogram:overflows 0
scalar MacTest.srvHost.wlan[0].mac.hcf.edca.edcaf[0].txopProcedure txopDuration:histogram:count 0
scalar MacTest.srvHost.wlan[0].mac.hcf.edca.edcaf[0].txopProcedure txopDuration:histogram:sumweights 0
scalar MacTest.srvHost.wlan[0].mac.hcf.edca.edcaf[0].txopProcedure txopDuration:histogram:mean -nan
scalar MacTest.srvHost.wlan[0].mac.hcf.edca.edcaf[0].txopProcedure txopDuration:histogram:stddev nan
scalar MacTest.srvHost.wlan[0].mac.hcf.edca.edcaf[0].txopProcedure txopDuration:histogram:min nan
scalar MacTest.srvHost.wlan[0].mac.hcf.edca.edcaf[0].txopProcedure txopDuration:histogram:max nan
scalar MacTest.srvHost.wlan[0].mac.hcf.edca.edcaf[0].txopProcedure txopDuration:histogram:numbins 1
scalar MacTest.srvHost.wlan[0].mac.hcf.edca.edcaf[0].txopProcedure txopDuration:histogram:rangemin 0
scalar MacTest.srvHost.wlan[0].mac.hcf.edca.edcaf[0].txopProcedure txopDuration:histogram:rangemax 1
scalar MacTest.srvHost.wlan[0].mac.hcf.edca.edcaf[0].txopProcedure txopDuration:histogram:underflows 0
scalar MacTest.srvHost.wlan[0].mac.hcf.edca.edcaf[0].txopProcedure txopDuration:histogram:overflows 0
scalar MacTest.srvHost.wlan[0].mac.hcf.edca.edcaf[1].pendingQueue queueingTime:histogram:count 0
scalar MacTest.srvHost.wlan[0].mac.hcf.edca.edcaf[1].pendingQueue queueingTime:histogram:sumweights 0
scalar MacTest.srvHost.wlan[0].mac.hcf.edca.edcaf[1].pendingQueue queueingTime:histogram:mean -nan
scalar MacTest.srvHost.wlan[0].mac.hcf.edca.edcaf[1].pendingQueue queueingTime:histogram:stddev nan
scalar MacTest.srvHost.wlan[0].mac.hcf.edca.edcaf[1].pendingQueue queueingTime:histogram:min nan
scalar MacTest.srvHost.wlan[0].mac.hcf.edca.edcaf[1].pendingQueue queueingTime:histogram:max nan
scalar MacTest.srvHost.wlan[0].mac.hcf.edca.edcaf[1].pendingQueue queueingTime:histogram:numbins 1
scalar MacTest.srvHost.wlan[0].mac.hcf.edca.edcaf[1].pendingQueue queueingTime:histogram:rangemin 0
scalar MacTest.srvHost.wlan[0].mac.hcf.edca.edcaf[1].pendingQueue queueingTime:histogram:rangemax 1
scalar MacTest.srvHost.wlan[0].mac.hcf.edca.edcaf[1].pendingQueue queueingTime:histogram:underflows 0
scalar MacTest.srvHost.wlan[0].mac.hcf.edca.edcaf[1].pendingQueue queueingTime:histogram:overflows 0
scalar MacTest.srvHost.wlan[0].mac.hcf.edca.edcaf[1].pendingQueue outgoingPacketLengths:histogram:count 0
scalar MacTest.srvHost.wlan[0].mac.hcf.edca.edcaf[1].pendingQueue outgoingPacketLengths:histogram:sumweights 0
scalar MacTest.srvHost.wlan[0].mac.hcf.edca.edcaf[1].pendingQueue outgoingPacketLengths:histogram:mean -nan
scalar MacTest.srvHost.wlan[0].mac.hcf.edca.edcaf[1].pendingQueue outgoingPacketLengths:histogram:stddev nan
scalar MacTest.srvHost.wlan[0].mac.hcf.edca.edcaf[1].pendingQueue outgoingPacketLengths:histogram:min nan
scalar MacTest.srvHost.wlan[0].mac.hcf.edca.edcaf[1].pendingQueue outgoingPacketLengths:histogram:max nan
scalar MacTest.srvHost.wlan[0].mac.hcf.edca.edcaf[1].pendingQueue outgoingPacketLengths:histogram:numbins 1
scalar MacTest.srvHost.wlan[0].mac.hcf.edca.edcaf[1].pendingQueue outgoingPacketLengths:histogram:rangemin 0
scalar MacTest.srvHost.wlan[0].mac.hcf.edca.edcaf[1].pendingQueue outgoingPacketLengths:histogram:rangemax 1
scalar MacTest.srvHost.wlan[0].mac.hcf.edca.edcaf[1].pendingQueue outgoingPacketLengths:histogram:underflows 0
scalar MacTest.srvHost.wlan[0].mac.hcf.edca.edcaf[1].pendingQueue outgoingPacketLengths:histogram:overflows 0
scalar MacTest.srvHost.wlan[0].mac.hcf.edca.edcaf[1].pendingQueue flowQueueingTime:histogram:count 0
scalar MacTest.srvHost.wlan[0].mac.hcf.edca.edcaf[1].pendingQueue flowQueueingTime:histogram:sumweights 0
scalar MacTest.srvHost.wlan[0].mac.hcf.edca.edcaf[1].pendingQueue flowQueueingTime:histogram:mean -nan
scalar MacTest.srvHost.wlan[0].mac.hcf.edca.edcaf[1].pendingQueue flowQueueingTime:histogram:stddev nan
scalar MacTest.srvHost.wlan[0].mac.hcf.edca.edcaf[1].pendingQueue flowQueueingTime:histogram:min nan
scalar MacTest.srvHost.wlan[0].mac.hcf.edca.edcaf[1].pendingQueue flowQueueingTime:histogram:max nan
scalar MacTest.srvHost.wlan[0].mac.hcf.edca.edcaf[1].pendingQueue flowQueueingTime:histogram:numbins 1
scalar MacTest.srvHost.wlan[0].mac.hcf.edca.edcaf[1].pendingQueue flowQueueingTime:histogram:rangemin 0
scalar MacTest.srvHost.wlan[0].mac.hcf.edca.edcaf[1].pendingQueue flowQueueingTime:histogram:rangemax 1
scalar MacTest.srvHost.wlan[0].mac.hcf.edca.edcaf[1].pendingQueue flowQueueingTime:histogram:underflows 0
scalar MacTest.srvHost.wlan[0].mac.hcf.edca.edcaf[1].pendingQueue flowQueueingTime:histogram:overflows 0
scalar MacTest.srvHost.wlan[0].mac.hcf.edca.edcaf[1].pendingQueue incomingPacketLengths:histogram:count 0
scalar MacTest.srvHost.wlan[0].mac.hcf.edca.edcaf[1].pendingQueue incomingPacketLengths:histogram:sumweights 0
scalar MacTest.srvHost.wlan[0].mac.hcf.edca.edcaf[1].pendingQueue incomingPacketLengths:histogram:mean -nan
scalar MacTest.srvHost.wlan[0].mac.hcf.edca.edcaf[1].pendingQueue incomingPacketLengths:histogram:stddev nan
scalar MacTest.srvHost.wlan[0].mac.hcf.edca.edcaf[1].pendingQueue incomingPacketLengths:histogram:min nan
scalar MacTest.srvHost.wlan[0].mac.hcf.edca.edcaf[1].pendingQueue incomingPacketLengths:histogram:max nan
scalar MacTest.srvHost.wlan[0].mac.hcf.edca.edcaf[1].pendingQueue incomingPacketLengths:histogram:numbins 1
scalar MacTest.srvHost.wlan[0].mac.hcf.edca.edcaf[1].pendingQueue incomingPacketLengths:histogram:rangemin 0
scalar MacTest.srvHost.wlan[0].mac.hcf.edca.edcaf[1].pendingQueue incomingPacketLengths:histogram:rangemax 1
scalar MacTest.srvHost.wlan[0].mac.hcf.edca.edcaf[1].pendingQueue incomingPacketLengths:histogram:underflows 0
scalar MacTest.srvHost.wlan[0].mac.hcf.edca.edcaf[1].pendingQueue incomingPacketLengths:histogram:overflows 0
scalar MacTest.srvHost.wlan[0].mac.hcf.edca.edcaf[1].inProgressFrames queueingTime:histogram:count 0
scalar MacTest.srvHost.wlan[0].mac.hcf.edca.edcaf[1].inProgressFrames queueingTime:histogram:sumweights 0
scalar MacTest.srvHost.wlan[0].mac.hcf.edca.edcaf[1].inProgressFrames queueingTime:histogram:mean -nan
scalar MacTest.srvHost.wlan[0].mac.hcf.edca.edcaf[1].inProgressFrames queueingTime:histogram:stddev nan
scalar MacTest.srvHost.wlan[0].mac.hcf.edca.edcaf[1].inProgressFrames queueingTime:histogram:min nan
scalar MacTest.srvHost.wlan[0].mac.hcf.edca.edcaf[1].inProgressFrames queueingTime:histogram:max nan
scalar MacTest.srvHost.wlan[0].mac.hcf.edca.edcaf[1].inProgressFrames queueingTime:histogram:numbins 1
scalar MacTest.srvHost.wlan[0].mac.hcf.edca.edcaf[1].inProgressFrames queueingTime:histogram:rangemin 0
scalar MacTest.srvHost.wlan[0].mac.hcf.edca.edcaf[1].inProgressFrames queueingTime:histogram:rangemax 1
scalar MacTest.srvHost.wlan[0].mac.hcf.edca.edcaf[1].inProgressFrames queueingTime:histogram:underflows 0
scalar MacTest.srvHost.wlan[0].mac.hcf.edca.edcaf[1].inProgressFrames queueingTime:histogram:overflows 0
scalar MacTest.srvHost.wlan[0].mac.hcf.edca.edcaf[1].txopProcedure txopDuration:histogram:count 0
scalar MacTest.srvHost.wlan[0].mac.hcf.edca.edcaf[1].txopProcedure txopDuration:histogram:sumweights 0
scalar MacTest.srvHost.wlan[0].mac.hcf.edca.edcaf[1].txopProcedure txopDuration:histogram:mean -nan
scalar MacTest.srvHost.wlan[0].mac.hcf.edca.edcaf[1].txopProcedure txopDuration:histogram:stddev nan
scalar MacTest.srvHost.wlan[0].mac.hcf.edca.edcaf[1].txopProcedure txopDuration:histogram:min nan
scalar MacTest.srvHost.wlan[0].mac.hcf.edca.edcaf[1].txopProcedure txopDuration:histogram:max nan
scalar MacTest.srvHost.wlan[0].mac.hcf.edca.edcaf[1].txopProcedure txopDuration:histogram:numbins 1
scalar MacTest.srvHost.wlan[0].mac.hcf.edca.edcaf[1].txopProcedure txopDuration:histogram:rangemin 0
scalar MacTest.srvHost.wlan[0].mac.hcf.edca.edcaf[1].txopProcedure txopDuration:histogram:rangemax 1
scalar MacTest.srvHost.wlan[0].mac.hcf.edca.edcaf[1].txopProcedure txopDuration:histogram:underflows 0
scalar MacTest.srvHost.wlan[0].mac.hcf.edca.edcaf[1].txopProcedure txopDuration:histogram:overflows 0
scalar MacTest.srvHost.wlan[0].mac.hcf.edca.edcaf[2].pendingQueue queueingTime:histogram:count 0
scalar MacTest.srvHost.wlan[0].mac.hcf.edca.edcaf[2].pendingQueue queueingTime:histogram:sumweights 0
scalar MacTest.srvHost.wlan[0].mac.hcf.edca.edcaf[2].pendingQueue queueingTime:histogram:mean -nan
scalar MacTest.srvHost.wlan[0].mac.hcf.edca.edcaf[2].pendingQueue queueingTime:histogram:stddev nan
scalar MacTest.srvHost.wlan[0].mac.hcf.edca.edcaf[2].pendingQueue queueingTime:histogram:min nan
scalar MacTest.srvHost.wlan[0].mac.hcf.edca.edcaf[2].pendingQueue queueingTime:histogram:max nan
scalar MacTest.srvHost.wlan[0].mac.hcf.edca.edcaf[2].pendingQueue queueingTime:histogram:numbins 1
scalar MacTest.srvHost.wlan[0].mac.hcf.edca.edcaf[2].pendingQueue queueingTime:histogram:rangemin 0
scalar MacTest.srvHost.wlan[0].mac.hcf.edca.edcaf[2].pendingQueue queueingTime:histogram:rangemax 1
scalar MacTest.srvHost.wlan[0].mac.hcf.edca.edcaf[2].pendingQueue queueingTime:histogram:underflows 0
scalar MacTest.srvHost.wlan[0].mac.hcf.edca.edcaf[2].pendingQueue queueingTime:histogram:overflows 0
scalar MacTest.srvHost.wlan[0].mac.hcf.edca.edcaf[2].pendingQueue outgoingPacketLengths:histogram:count 0
scalar MacTest.srvHost.wlan[0].mac.hcf.edca.edcaf[2].pendingQueue outgoingPacketLengths:histogram:sumweights 0
scalar MacTest.srvHost.wlan[0].mac.hcf.edca.edcaf[2].pendingQueue outgoingPacketLengths:histogram:mean -nan
scalar MacTest.srvHost.wlan[0].mac.hcf.edca.edcaf[2].pendingQueue outgoingPacketLengths:histogram:stddev nan
scalar MacTest.srvHost.wlan[0].mac.hcf.edca.edcaf[2].pendingQueue outgoingPacketLengths:histogram:min nan
scalar MacTest.srvHost.wlan[0].mac.hcf.edca.edcaf[2].pendingQueue outgoingPacketLengths:histogram:max nan
scalar MacTest.srvHost.wlan[0].mac.hcf.edca.edcaf[2].pendingQueue outgoingPacketLengths:histogram:numbins 1
scalar MacTest.srvHost.wlan[0].mac.hcf.edca.edcaf[2].pendingQueue outgoingPacketLengths:histogram:rangemin 0
scalar MacTest.srvHost.wlan[0].mac.hcf.edca.edcaf[2].pendingQueue outgoingPacketLengths:histogram:rangemax 1
scalar MacTest.srvHost.wlan[0].mac.hcf.edca.edcaf[2].pendingQueue outgoingPacketLengths:histogram:underflows 0
scalar MacTest.srvHost.wlan[0].mac.hcf.edca.edcaf[2].pendingQueue outgoingPacketLengths:histogram:overflows 0
scalar MacTest.srvHost.wlan[0].mac.hcf.edca.edcaf[2].pendingQueue flowQueueingTime:histogram:count 0
scalar MacTest.srvHost.wlan[0].mac.hcf.edca.edcaf[2].pendingQueue flowQueueingTime:histogram:sumweights 0
scalar MacTest.srvHost.wlan[0].mac.hcf.edca.edcaf[2].pendingQueue flowQueueingTime:histogram:mean -nan
scalar MacTest.srvHost.wlan[0].mac.hcf.edca.edcaf[2].pendingQueue flowQueueingTime:histogram:stddev nan
scalar MacTest.srvHost.wlan[0].mac.hcf.edca.edcaf[2].pendingQueue flowQueueingTime:histogram:min nan
scalar MacTest.srvHost.wlan[0].mac.hcf.edca.edcaf[2].pendingQueue flowQueueingTime:histogram:max nan
scalar MacTest.srvHost.wlan[0].mac.hcf.edca.edcaf[2].pendingQueue flowQueueingTime:histogram:numbins 1
scalar MacTest.srvHost.wlan[0].mac.hcf.edca.edcaf[2].pendingQueue flowQueueingTime:histogram:rangemin 0
scalar MacTest.srvHost.wlan[0].mac.hcf.edca.edcaf[2].pendingQueue flowQueueingTime:histogram:rangemax 1
scalar MacTest.srvHost.wlan[0].mac.hcf.edca.edcaf[2].pendingQueue flowQueueingTime:histogram:underflows 0
scalar MacTest.srvHost.wlan[0].mac.hcf.edca.edcaf[2].pendingQueue flowQueueingTime:histogram:overflows 0
scalar MacTest.srvHost.wlan[0].mac.hcf.edca.edcaf[2].pendingQueue incomingPacketLengths:histogram:count 0
scalar MacTest.srvHost.wlan[0].mac.hcf.edca.edcaf[2].pendingQueue incomingPacketLengths:histogram:sumweights 0
scalar MacTest.srvHost.wlan[0].mac.hcf.edca.edcaf[2].pendingQueue incomingPacketLengths:histogram:mean -nan
scalar MacTest.srvHost.wlan[0].mac.hcf.edca.edcaf[2].pendingQueue incomingPacketLengths:histogram:stddev nan
scalar MacTest.srvHost.wlan[0].mac.hcf.edca.edcaf[2].pendingQueue incomingPacketLengths:histogram:min nan
scalar MacTest.srvHost.wlan[0].mac.hcf.edca.edcaf[2].pendingQueue incomingPacketLengths:histogram:max nan
scalar MacTest.srvHost.wlan[0].mac.hcf.edca.edcaf[2].pendingQueue incomingPacketLengths:histogram:numbins 1
scalar MacTest.srvHost.wlan[0].mac.hcf.edca.edcaf[2].pendingQueue incomingPacketLengths:histogram:rangemin 0
scalar MacTest.srvHost.wlan[0].mac.hcf.edca.edcaf[2].pendingQueue incomingPacketLengths:histogram:rangemax 1
scalar MacTest.srvHost.wlan[0].mac.hcf.edca.edcaf[2].pendingQueue incomingPacketLengths:histogram:underflows 0
scalar MacTest.srvHost.wlan[0].mac.hcf.edca.edcaf[2].pendingQueue incomingPacketLengths:histogram:overflows 0
scalar MacTest.srvHost.wlan[0].mac.hcf.edca.edcaf[2].inProgressFrames queueingTime:histogram:count 0
scalar MacTest.srvHost.wlan[0].mac.hcf.edca.edcaf[2].inProgressFrames queueingTime:histogram:sumweights 0
scalar MacTest.srvHost.wlan[0].mac.hcf.edca.edcaf[2].inProgressFrames queueingTime:histogram:mean -nan
scalar MacTest.srvHost.wlan[0].mac.hcf.edca.edcaf[2].inProgressFrames queueingTime:histogram:stddev nan
scalar MacTest.srvHost.wlan[0].mac.hcf.edca.edcaf[2].inProgressFrames queueingTime:histogram:min nan
scalar MacTest.srvHost.wlan[0].mac.hcf.edca.edcaf[2].inProgressFrames queueingTime:histogram:max nan
scalar MacTest.srvHost.wlan[0].mac.hcf.edca.edcaf[2].inProgressFrames queueingTime:histogram:numbins 1
scalar MacTest.srvHost.wlan[0].mac.hcf.edca.edcaf[2].inProgressFrames queueingTime:histogram:rangemin 0
scalar MacTest.srvHost.wlan[0].mac.hcf.edca.edcaf[2].inProgressFrames queueingTime:histogram:rangemax 1
scalar MacTest.srvHost.wlan[0].mac.hcf.edca.edcaf[2].inProgressFrames queueingTime:histogram:underflows 0
scalar MacTest.srvHost.wlan[0].mac.hcf.edca.edcaf[2].inProgressFrames queueingTime:histogram:overflows 0
scalar MacTest.srvHost.wlan[0].mac.hcf.edca.edcaf[2].txopProcedure txopDuration:histogram:count 0
scalar MacTest.srvHost.wlan[0].mac.hcf.edca.edcaf[2].txopProcedure txopDuration:histogram:sumweights 0
scalar MacTest.srvHost.wlan[0].mac.hcf.edca.edcaf[2].txopProcedure txopDuration:histogram:mean -nan
scalar MacTest.srvHost.wlan[0].mac.hcf.edca.edcaf[2].txopProcedure txopDuration:histogram:stddev nan
scalar MacTest.srvHost.wlan[0].mac.hcf.edca.edcaf[2].txopProcedure txopDuration:histogram:min nan
scalar MacTest.srvHost.wlan[0].mac.hcf.edca.edcaf[2].txopProcedure txopDuration:histogram:max nan
scalar MacTest.srvHost.wlan[0].mac.hcf.edca.edcaf[2].txopProcedure txopDuration:histogram:numbins 1
scalar MacTest.srvHost.wlan[0].mac.hcf.edca.edcaf[2].txopProcedure txopDuration:histogram:rangemin 0
scalar MacTest.srvHost.wlan[0].mac.hcf.edca.edcaf[2].txopProcedure txopDuration:histogram:rangemax 1
scalar MacTest.srvHost.wlan[0].mac.hcf.edca.edcaf[2].txopProcedure txopDuration:histogram:underflows 0
[...]
scalar MacTest.cliHost.wlan[0].mac packetDropDuplicateDetected:vector(packetBytes):sumweights 0
scalar MacTest.cliHost.wlan[0].mac packetDropDuplicateDetected:vector(packetBytes):mean -nan
scalar MacTest.cliHost.wlan[0].mac packetDropDuplicateDetected:vector(packetBytes):stddev nan
scalar MacTest.cliHost.wlan[0].mac packetDropDuplicateDetected:vector(packetBytes):min inf
scalar MacTest.cliHost.wlan[0].mac packetDropDuplicateDetected:vector(packetBytes):max -inf
scalar MacTest.cliHost.wlan[0].mac packetDropDuplicateDetected:vector(packetBytes):starttime nan
scalar MacTest.cliHost.wlan[0].mac packetDropDuplicateDetected:vector(packetBytes):endtime nan
scalar MacTest.cliHost.wlan[0].mac packetDropOther:vector(packetBytes):count 0
scalar MacTest.cliHost.wlan[0].mac packetDropOther:vector(packetBytes):sum 0
scalar MacTest.cliHost.wlan[0].mac packetDropOther:vector(packetBytes):sumweights 0
scalar MacTest.cliHost.wlan[0].mac packetDropOther:vector(packetBytes):mean -nan
scalar MacTest.cliHost.wlan[0].mac packetDropOther:vector(packetBytes):stddev nan
scalar MacTest.cliHost.wlan[0].mac packetDropOther:vector(packetBytes):min inf
scalar MacTest.cliHost.wlan[0].mac packetDropOther:vector(packetBytes):max -inf
scalar MacTest.cliHost.wlan[0].mac packetDropOther:vector(packetBytes):starttime nan
scalar MacTest.cliHost.wlan[0].mac packetDropOther:vector(packetBytes):endtime nan
scalar MacTest.cliHost.wlan[0].radio radioMode:vector:count 331
scalar MacTest.cliHost.wlan[0].radio radioMode:vector:sum 822
scalar MacTest.cliHost.wlan[0].radio radioMode:vector:sumweights 331
scalar MacTest.cliHost.wlan[0].radio radioMode:vector:mean 2.4833836858006
scalar MacTest.cliHost.wlan[0].radio radioMode:vector:stddev 0.53557844761643
scalar MacTest.cliHost.wlan[0].radio radioMode:vector:min 0
scalar MacTest.cliHost.wlan[0].radio radioMode:vector:max 3
scalar MacTest.cliHost.wlan[0].radio radioMode:vector:starttime 0
scalar MacTest.cliHost.wlan[0].radio radioMode:vector:endtime 5.982037390436
scalar MacTest.cliHost.wlan[0].radio receptionState:vector:count 657
scalar MacTest.cliHost.wlan[0].radio receptionState:vector:sum 821
scalar MacTest.cliHost.wlan[0].radio receptionState:vector:sumweights 657
scalar MacTest.cliHost.wlan[0].radio receptionState:vector:mean 1.2496194824962
scalar MacTest.cliHost.wlan[0].radio receptionState:vector:stddev 1.0897683833622
scalar MacTest.cliHost.wlan[0].radio receptionState:vector:min 0
scalar MacTest.cliHost.wlan[0].radio receptionState:vector:max 3
scalar MacTest.cliHost.wlan[0].radio receptionState:vector:starttime 0
scalar MacTest.cliHost.wlan[0].radio receptionState:vector:endtime 5.982082724692
scalar MacTest.cliHost.wlan[0].radio transmissionState:vector:count 656
scalar MacTest.cliHost.wlan[0].radio transmissionState:vector:sum 656
scalar MacTest.cliHost.wlan[0].radio transmissionState:vector:sumweights 656
scalar MacTest.cliHost.wlan[0].radio transmissionState:vector:mean 1
scalar MacTest.cliHost.wlan[0].radio transmissionState:vector:stddev 0.70764635149107
scalar MacTest.cliHost.wlan[0].radio transmissionState:vector:min 0
scalar MacTest.cliHost.wlan[0].radio transmissionState:vector:max 2
scalar MacTest.cliHost.wlan[0].radio transmissionState:vector:starttime 1
scalar MacTest.cliHost.wlan[0].radio transmissionState:vector:endtime 5.982037390436
scalar MacTest.cliHost.wlan[0].radio radioChannel:vector:count 1
scalar MacTest.cliHost.wlan[0].radio radioChannel:vector:sum 0
scalar MacTest.cliHost.wlan[0].radio radioChannel:vector:sumweights 1
scalar MacTest.cliHost.wlan[0].radio radioChannel:vector:mean 0
scalar MacTest.cliHost.wlan[0].radio radioChannel:vector:stddev nan
scalar MacTest.cliHost.wlan[0].radio radioChannel:vector:min 0
scalar MacTest.cliHost.wlan[0].radio radioChannel:vector:max 0
scalar MacTest.cliHost.wlan[0].radio radioChannel:vector:starttime 0
scalar MacTest.cliHost.wlan[0].radio radioChannel:vector:endtime 0
scalar MacTest.cliHost.wlan[0] packetDropInterfaceDown:vector(packetBytes):count 0
scalar MacTest.cliHost.wlan[0] packetDropInterfaceDown:vector(packetBytes):sum 0
scalar MacTest.cliHost.wlan[0] packetDropInterfaceDown:vector(packetBytes):sumweights 0
scalar MacTest.cliHost.wlan[0] packetDropInterfaceDown:vector(packetBytes):mean -nan
scalar MacTest.cliHost.wlan[0] packetDropInterfaceDown:vector(packetBytes):stddev nan
scalar MacTest.cliHost.wlan[0] packetDropInterfaceDown:vector(packetBytes):min inf
scalar MacTest.cliHost.wlan[0] packetDropInterfaceDown:vector(packetBytes):max -inf
scalar MacTest.cliHost.wlan[0] packetDropInterfaceDown:vector(packetBytes):starttime nan
scalar MacTest.cliHost.wlan[0] packetDropInterfaceDown:vector(packetBytes):endtime nan
scalar MacTest.cliHost.wlan[0] packetDropNoCarrier:vector(packetBytes):count 0
scalar MacTest.cliHost.wlan[0] packetDropNoCarrier:vector(packetBytes):sum 0
scalar MacTest.cliHost.wlan[0] packetDropNoCarrier:vector(packetBytes):sumweights 0
scalar MacTest.cliHost.wlan[0] packetDropNoCarrier:vector(packetBytes):mean -nan
scalar MacTest.cliHost.wlan[0] packetDropNoCarrier:vector(packetBytes):stddev nan
scalar MacTest.cliHost.wlan[0] packetDropNoCarrier:vector(packetBytes):min inf
scalar MacTest.cliHost.wlan[0] packetDropNoCarrier:vector(packetBytes):max -inf
scalar MacTest.cliHost.wlan[0] packetDropNoCarrier:vector(packetBytes):starttime nan
scalar MacTest.cliHost.wlan[0] packetDropNoCarrier:vector(packetBytes):endtime nan
scalar MacTest.cliHost.ipv4.ip packetDropAddressResolutionFailed:vector(packetBytes):count 0
scalar MacTest.cliHost.ipv4.ip packetDropAddressResolutionFailed:vector(packetBytes):sum 0
scalar MacTest.cliHost.ipv4.ip packetDropAddressResolutionFailed:vector(packetBytes):sumweights 0
scalar MacTest.cliHost.ipv4.ip packetDropAddressResolutionFailed:vector(packetBytes):mean -nan
scalar MacTest.cliHost.ipv4.ip packetDropAddressResolutionFailed:vector(packetBytes):stddev nan
scalar MacTest.cliHost.ipv4.ip packetDropAddressResolutionFailed:vector(packetBytes):min inf
scalar MacTest.cliHost.ipv4.ip packetDropAddressResolutionFailed:vector(packetBytes):max -inf
scalar MacTest.cliHost.ipv4.ip packetDropAddressResolutionFailed:vector(packetBytes):starttime nan
scalar MacTest.cliHost.ipv4.ip packetDropAddressResolutionFailed:vector(packetBytes):endtime nan
scalar MacTest.cliHost.ipv4.ip packetDropHopLimitReached:vector(packetBytes):count 0
scalar MacTest.cliHost.ipv4.ip packetDropHopLimitReached:vector(packetBytes):sum 0
scalar MacTest.cliHost.ipv4.ip packetDropHopLimitReached:vector(packetBytes):sumweights 0
scalar MacTest.cliHost.ipv4.ip packetDropHopLimitReached:vector(packetBytes):mean -nan
scalar MacTest.cliHost.ipv4.ip packetDropHopLimitReached:vector(packetBytes):stddev nan
scalar MacTest.cliHost.ipv4.ip packetDropHopLimitReached:vector(packetBytes):min inf
scalar MacTest.cliHost.ipv4.ip packetDropHopLimitReached:vector(packetBytes):max -inf
scalar MacTest.cliHost.ipv4.ip packetDropHopLimitReached:vector(packetBytes):starttime nan
scalar MacTest.cliHost.ipv4.ip packetDropHopLimitReached:vector(packetBytes):endtime nan
scalar MacTest.cliHost.ipv4.ip packetDropForwardingDisabled:vector(packetBytes):count 0
scalar MacTest.cliHost.ipv4.ip packetDropForwardingDisabled:vector(packetBytes):sum 0
scalar MacTest.cliHost.ipv4.ip packetDropForwardingDisabled:vector(packetBytes):sumweights 0
scalar MacTest.cliHost.ipv4.ip packetDropForwardingDisabled:vector(packetBytes):mean -nan
scalar MacTest.cliHost.ipv4.ip packetDropForwardingDisabled:vector(packetBytes):stddev nan
scalar MacTest.cliHost.ipv4.ip packetDropForwardingDisabled:vector(packetBytes):min inf
scalar MacTest.cliHost.ipv4.ip packetDropForwardingDisabled:vector(packetBytes):max -inf
scalar MacTest.cliHost.ipv4.ip packetDropForwardingDisabled:vector(packetBytes):starttime nan
scalar MacTest.cliHost.ipv4.ip packetDropForwardingDisabled:vector(packetBytes):endtime nan
scalar MacTest.cliHost.ipv4.ip packetDropLifetimeExpired:vector(packetBytes):count 0
scalar MacTest.cliHost.ipv4.ip packetDropLifetimeExpired:vector(packetBytes):sum 0
scalar MacTest.cliHost.ipv4.ip packetDropLifetimeExpired:vector(packetBytes):sumweights 0
scalar MacTest.cliHost.ipv4.ip packetDropLifetimeExpired:vector(packetBytes):mean -nan
scalar MacTest.cliHost.ipv4.ip packetDropLifetimeExpired:vector(packetBytes):stddev nan
scalar MacTest.cliHost.ipv4.ip packetDropLifetimeExpired:vector(packetBytes):min inf
scalar MacTest.cliHost.ipv4.ip packetDropLifetimeExpired:vector(packetBytes):max -inf
scalar MacTest.cliHost.ipv4.ip packetDropLifetimeExpired:vector(packetBytes):starttime nan
scalar MacTest.cliHost.ipv4.ip packetDropLifetimeExpired:vector(packetBytes):endtime nan
scalar MacTest.cliHost.ipv4.ip packetDropNoInterfaceFound:vector(packetBytes):count 0
scalar MacTest.cliHost.ipv4.ip packetDropNoInterfaceFound:vector(packetBytes):sum 0
scalar MacTest.cliHost.ipv4.ip packetDropNoInterfaceFound:vector(packetBytes):sumweights 0
scalar MacTest.cliHost.ipv4.ip packetDropNoInterfaceFound:vector(packetBytes):mean -nan
scalar MacTest.cliHost.ipv4.ip packetDropNoInterfaceFound:vector(packetBytes):stddev nan
scalar MacTest.cliHost.ipv4.ip packetDropNoInterfaceFound:vector(packetBytes):min inf
scalar MacTest.cliHost.ipv4.ip packetDropNoInterfaceFound:vector(packetBytes):max -inf
scalar MacTest.cliHost.ipv4.ip packetDropNoInterfaceFound:vector(packetBytes):starttime nan
scalar MacTest.cliHost.ipv4.ip packetDropNoInterfaceFound:vector(packetBytes):endtime nan
scalar MacTest.cliHost.ipv4.ip packetDropNoRouteFound:vector(packetBytes):count 0
scalar MacTest.cliHost.ipv4.ip packetDropNoRouteFound:vector(packetBytes):sum 0
scalar MacTest.cliHost.ipv4.ip packetDropNoRouteFound:vector(packetBytes):sumweights 0
scalar MacTest.cliHost.ipv4.ip packetDropNoRouteFound:vector(packetBytes):mean -nan
scalar MacTest.cliHost.ipv4.ip packetDropNoRouteFound:vector(packetBytes):stddev nan
scalar MacTest.cliHost.ipv4.ip packetDropNoRouteFound:vector(packetBytes):min inf
scalar MacTest.cliHost.ipv4.ip packetDropNoRouteFound:vector(packetBytes):max -inf
scalar MacTest.cliHost.ipv4.ip packetDropNoRouteFound:vector(packetBytes):starttime nan
scalar MacTest.cliHost.ipv4.ip packetDropNoRouteFound:vector(packetBytes):endtime nan
scalar MacTest.cliHost.ipv4.ip packetDropUndefined:vector(packetBytes):count 0
scalar MacTest.cliHost.ipv4.ip packetDropUndefined:vector(packetBytes):sum 0
scalar MacTest.cliHost.ipv4.ip packetDropUndefined:vector(packetBytes):sumweights 0
scalar MacTest.cliHost.ipv4.ip packetDropUndefined:vector(packetBytes):mean -nan
scalar MacTest.cliHost.ipv4.ip packetDropUndefined:vector(packetBytes):stddev nan
scalar MacTest.cliHost.ipv4.ip packetDropUndefined:vector(packetBytes):min inf
scalar MacTest.cliHost.ipv4.ip packetDropUndefined:vector(packetBytes):max -inf
scalar MacTest.cliHost.ipv4.ip packetDropUndefined:vector(packetBytes):starttime nan
scalar MacTest.cliHost.ipv4.ip packetDropUndefined:vector(packetBytes):endtime nan
scalar MacTest.cliHost.udp packetSent:vector(packetBytes):count 105
scalar MacTest.cliHost.udp packetSent:vector(packetBytes):sum 172578
scalar MacTest.cliHost.udp packetSent:vector(packetBytes):sumweights 105
scalar MacTest.cliHost.udp packetSent:vector(packetBytes):mean 1643.6
scalar MacTest.cliHost.udp packetSent:vector(packetBytes):stddev 1007.5548811164
scalar MacTest.cliHost.udp packetSent:vector(packetBytes):min 234
scalar MacTest.cliHost.udp packetSent:vector(packetBytes):max 3991
scalar MacTest.cliHost.udp packetSent:vector(packetBytes):starttime 1
scalar MacTest.cliHost.udp packetSent:vector(packetBytes):endtime 5.980564721924
scalar MacTest.cliHost.udp packetReceived:vector(packetBytes):count 0
scalar MacTest.cliHost.udp packetReceived:vector(packetBytes):sum 0
scalar MacTest.cliHost.udp packetReceived:vector(packetBytes):sumweights 0
scalar MacTest.cliHost.udp packetReceived:vector(packetBytes):mean -nan
scalar MacTest.cliHost.udp packetReceived:vector(packetBytes):stddev nan
scalar MacTest.cliHost.udp packetReceived:vector(packetBytes):min inf
scalar MacTest.cliHost.udp packetReceived:vector(packetBytes):max -inf
scalar MacTest.cliHost.udp packetReceived:vector(packetBytes):starttime nan
scalar MacTest.cliHost.udp packetReceived:vector(packetBytes):endtime nan
scalar MacTest.cliHost.udp passedUpPk:vector(count):count 1
scalar MacTest.cliHost.udp passedUpPk:vector(count):sum 0
scalar MacTest.cliHost.udp passedUpPk:vector(count):sumweights 1
scalar MacTest.cliHost.udp passedUpPk:vector(count):mean 0
scalar MacTest.cliHost.udp passedUpPk:vector(count):stddev nan
scalar MacTest.cliHost.udp passedUpPk:vector(count):min 0
scalar MacTest.cliHost.udp passedUpPk:vector(count):max 0
scalar MacTest.cliHost.udp passedUpPk:vector(count):starttime 0
scalar MacTest.cliHost.udp passedUpPk:vector(count):endtime 0
scalar MacTest.cliHost.udp droppedPkWrongPort:vector(count):count 1
scalar MacTest.cliHost.udp droppedPkWrongPort:vector(count):sum 0
scalar MacTest.cliHost.udp droppedPkWrongPort:vector(count):sumweights 1
scalar MacTest.cliHost.udp droppedPkWrongPort:vector(count):mean 0
scalar MacTest.cliHost.udp droppedPkWrongPort:vector(count):stddev nan
scalar MacTest.cliHost.udp droppedPkWrongPort:vector(count):min 0
scalar MacTest.cliHost.udp droppedPkWrongPort:vector(count):max 0
scalar MacTest.cliHost.udp droppedPkWrongPort:vector(count):starttime 0
scalar MacTest.cliHost.udp droppedPkWrongPort:vector(count):endtime 0
scalar MacTest.cliHost.udp droppedPkBadChecksum:vector(count):count 1
scalar MacTest.cliHost.udp droppedPkBadChecksum:vector(count):sum 0
scalar MacTest.cliHost.udp droppedPkBadChecksum:vector(count):sumweights 1
scalar MacTest.cliHost.udp droppedPkBadChecksum:vector(count):mean 0
scalar MacTest.cliHost.udp droppedPkBadChecksum:vector(count):stddev nan
scalar MacTest.cliHost.udp droppedPkBadChecksum:vector(count):min 0
scalar MacTest.cliHost.udp droppedPkBadChecksum:vector(count):max 0
scalar MacTest.cliHost.udp droppedPkBadChecksum:vector(count):starttime 0
scalar MacTest.cliHost.udp droppedPkBadChecksum:vector(count):endtime 0
scalar MacTest.cliHost.app[0] packetReceived:vector(packetBytes):count 0
scalar MacTest.cliHost.app[0] packetReceived:vector(packetBytes):sum 0
scalar MacTest.cliHost.app[0] packetReceived:vector(packetBytes):sumweights 0
scalar MacTest.cliHost.app[0] packetReceived:vector(packetBytes):mean -nan
scalar MacTest.cliHost.app[0] packetReceived:vector(packetBytes):stddev nan
scalar MacTest.cliHost.app[0] packetReceived:vector(packetBytes):min inf
scalar MacTest.cliHost.app[0] packetReceived:vector(packetBytes):max -inf
scalar MacTest.cliHost.app[0] packetReceived:vector(packetBytes):starttime nan
scalar MacTest.cliHost.app[0] packetReceived:vector(packetBytes):endtime nan
scalar MacTest.cliHost.app[0] throughput:vector:count 1000
scalar MacTest.cliHost.app[0] throughput:vector:sum 0
scalar MacTest.cliHost.app[0] throughput:vector:sumweights 1000
scalar MacTest.cliHost.app[0] throughput:vector:mean 0
scalar MacTest.cliHost.app[0] throughput:vector:stddev 0
scalar MacTest.cliHost.app[0] throughput:vector:min 0
scalar MacTest.cliHost.app[0] throughput:vector:max 0
scalar MacTest.cliHost.app[0] throughput:vector:starttime 0.1
scalar MacTest.cliHost.app[0] throughput:vector:endtime 100
scalar MacTest.cliHost.app[0] packetSent:vector(packetBytes):count 48
scalar MacTest.cliHost.app[0] packetSent:vector(packetBytes):sum 49691
scalar MacTest.cliHost.app[0] packetSent:vector(packetBytes):sumweights 48
scalar MacTest.cliHost.app[0] packetSent:vector(packetBytes):mean 1035.2291666667
scalar MacTest.cliHost.app[0] packetSent:vector(packetBytes):stddev 307.75344093576
scalar MacTest.cliHost.app[0] packetSent:vector(packetBytes):min 511
scalar MacTest.cliHost.app[0] packetSent:vector(packetBytes):max 1473
scalar MacTest.cliHost.app[0] packetSent:vector(packetBytes):starttime 1
scalar MacTest.cliHost.app[0] packetSent:vector(packetBytes):endtime 5.9615890801
scalar MacTest.cliHost.app[0] rcvdPkLifetime:vector:count 0
scalar MacTest.cliHost.app[0] rcvdPkLifetime:vector:sum 0
scalar MacTest.cliHost.app[0] rcvdPkLifetime:vector:sumweights 0
scalar MacTest.cliHost.app[0] rcvdPkLifetime:vector:mean -nan
scalar MacTest.cliHost.app[0] rcvdPkLifetime:vector:stddev nan
scalar MacTest.cliHost.app[0] rcvdPkLifetime:vector:min inf
scalar MacTest.cliHost.app[0] rcvdPkLifetime:vector:max -inf
scalar MacTest.cliHost.app[0] rcvdPkLifetime:vector:starttime nan
scalar MacTest.cliHost.app[0] rcvdPkLifetime:vector:endtime nan
scalar MacTest.cliHost.app[0] rcvdPkSeqNo:vector:count 0
scalar MacTest.cliHost.app[0] rcvdPkSeqNo:vector:sum 0
scalar MacTest.cliHost.app[0] rcvdPkSeqNo:vector:sumweights 0
scalar MacTest.cliHost.app[0] rcvdPkSeqNo:vector:mean -nan
scalar MacTest.cliHost.app[0] rcvdPkSeqNo:vector:stddev nan
scalar MacTest.cliHost.app[0] rcvdPkSeqNo:vector:min inf
scalar MacTest.cliHost.app[0] rcvdPkSeqNo:vector:max -inf
scalar MacTest.cliHost.app[0] rcvdPkSeqNo:vector:starttime nan
scalar MacTest.cliHost.app[0] rcvdPkSeqNo:vector:endtime nan
scalar MacTest.cliHost.app[1] packetReceived:vector(packetBytes):count 0
scalar MacTest.cliHost.app[1] packetReceived:vector(packetBytes):sum 0
scalar MacTest.cliHost.app[1] packetReceived:vector(packetBytes):sumweights 0
scalar MacTest.cliHost.app[1] packetReceived:vector(packetBytes):mean -nan
scalar MacTest.cliHost.app[1] packetReceived:vector(packetBytes):stddev nan
scalar MacTest.cliHost.app[1] packetReceived:vector(packetBytes):min inf
scalar MacTest.cliHost.app[1] packetReceived:vector(packetBytes):max -inf
scalar MacTest.cliHost.app[1] packetReceived:vector(packetBytes):starttime nan
scalar MacTest.cliHost.app[1] packetReceived:vector(packetBytes):endtime nan
scalar MacTest.cliHost.app[1] throughput:vector:count 1000
scalar MacTest.cliHost.app[1] throughput:vector:sum 0
scalar MacTest.cliHost.app[1] throughput:vector:sumweights 1000
scalar MacTest.cliHost.app[1] throughput:vector:mean 0
scalar MacTest.cliHost.app[1] throughput:vector:stddev 0
scalar MacTest.cliHost.app[1] throughput:vector:min 0
scalar MacTest.cliHost.app[1] throughput:vector:max 0
scalar MacTest.cliHost.app[1] throughput:vector:starttime 0.1
scalar MacTest.cliHost.app[1] throughput:vector:endtime 100
scalar MacTest.cliHost.app[1] packetSent:vector(packetBytes):count 57
scalar MacTest.cliHost.app[1] packetSent:vector(packetBytes):sum 122047
scalar MacTest.cliHost.app[1] packetSent:vector(packetBytes):sumweights 57
scalar MacTest.cliHost.app[1] packetSent:vector(packetBytes):mean 2141.1754385965
scalar MacTest.cliHost.app[1] packetSent:vector(packetBytes):stddev 1112.0680561588
scalar MacTest.cliHost.app[1] packetSent:vector(packetBytes):min 226
scalar MacTest.cliHost.app[1] packetSent:vector(packetBytes):max 3983
scalar MacTest.cliHost.app[1] packetSent:vector(packetBytes):starttime 1.022464009712
scalar MacTest.cliHost.app[1] packetSent:vector(packetBytes):endtime 5.980564721924
scalar MacTest.cliHost.app[1] rcvdPkLifetime:vector:count 0
scalar MacTest.cliHost.app[1] rcvdPkLifetime:vector:sum 0
scalar MacTest.cliHost.app[1] rcvdPkLifetime:vector:sumweights 0
scalar MacTest.cliHost.app[1] rcvdPkLifetime:vector:mean -nan
scalar MacTest.cliHost.app[1] rcvdPkLifetime:vector:stddev nan
scalar MacTest.cliHost.app[1] rcvdPkLifetime:vector:min inf
scalar MacTest.cliHost.app[1] rcvdPkLifetime:vector:max -inf
scalar MacTest.cliHost.app[1] rcvdPkLifetime:vector:starttime nan
scalar MacTest.cliHost.app[1] rcvdPkLifetime:vector:endtime nan
scalar MacTest.cliHost.app[1] rcvdPkSeqNo:vector:count 0
scalar MacTest.cliHost.app[1] rcvdPkSeqNo:vector:sum 0
scalar MacTest.cliHost.app[1] rcvdPkSeqNo:vector:sumweights 0
scalar MacTest.cliHost.app[1] rcvdPkSeqNo:vector:mean -nan
scalar MacTest.cliHost.app[1] rcvdPkSeqNo:vector:stddev nan
scalar MacTest.cliHost.app[1] rcvdPkSeqNo:vector:min inf
scalar MacTest.cliHost.app[1] rcvdPkSeqNo:vector:max -inf
scalar MacTest.cliHost.app[1] rcvdPkSeqNo:vector:starttime nan
scalar MacTest.cliHost.app[1] rcvdPkSeqNo:vector:endtime nan

