version 3
run Step5a-0-20260624-14:05:28-1245616
attr configname Step5a
attr datetime 20260624-14:05:28
attr datetimef 20260624-140528
attr experiment Step5a
attr inifile omnetpp.ini
attr iterationvars ""
attr iterationvarsd ""
attr iterationvarsf ""
attr measurement ""
attr network BGP_Topology_3
attr processid 1245616
attr repetition 0
attr replication #0
attr resultdir results
attr runnumber 0
attr seedset 0
config **.param-recording false
config image-path /home/andras/projects/inet-bgp-reconnect/images
config output-scalar-file results/omnetpp.ini-Step5a-#0.sca
config output-scalar-precision 17
config output-vector-file results/omnetpp.ini-Step5a-#0.vec
config output-vector-precision 17
config record-eventlog false
config sim-time-limit 1000s
config description "BGP internal distribution"
config extends Step5
config *.routingTableRecorder.logfile "\"step5a.rt\""
config *.pcapRecorder.pcapFile "\"step5a.pcap\""
config *.RB{1,2}.bgp.redistributeInternal true
config description "BGP Scenario with I-BGP over not directly-connected BGP speakers"
config network BGP_Topology_3
config *.routingTableRecorder.logfile "\"step5.rt\""
config *.pcapRecorder.pcapFile "\"step5.pcap\""
config *.configurator.config "xml(\"<config>                                 <interface hosts='RA4' names='eth0' address='192.168.x.x' netmask='255.x.x.x'/>                                 <interface hosts='RB1' names='eth0' address='192.168.x.x' netmask='255.x.x.x'/>                                                                 <interface hosts='RB2' names='eth0' address='192.168.x.x' netmask='255.x.x.x'/>                                 <interface hosts='RC1' names='eth2' address='192.168.x.x' netmask='255.x.x.x'/>                                                                 <interface among='host0 RA*' address='10.x.x.x' netmask='255.x.x.x'/>                                 <interface hosts='RA*' address='10.x.x.x' netmask='255.x.x.x'/>                                                                 <interface among='RB1 RB2 RB3' address='20.x.x.x' netmask='255.x.x.x'/>                                                                 <interface among='host1 RC*' address='30.x.x.x' netmask='255.x.x.x'/>                                 <interface hosts='RC*' address='30.x.x.x' netmask='255.x.x.x'/>                                                                 <route hosts='RA4' destination='*' netmask='0.0.0.0' interface='eth0' />                                 <route hosts='RC1' destination='*' netmask='0.0.0.0' interface='eth2' />                                 <route hosts='host*' destination='*' netmask='0.0.0.0' interface='eth0' />                              </config>\")"
config *.R*.hasOspf true
config *.R*.ospf.ospfConfig "xmldoc(\"OSPFConfig_Multi.xml\")"
config *.RA4.ipv4.routingTable.routerId "\"10.0.0.5\""
config *.RC1.ipv4.routingTable.routerId "\"30.0.0.5\""
config *.RB1.ipv4.routingTable.routerId "\"20.0.0.5\""
config *.RB2.ipv4.routingTable.routerId "\"20.0.0.1\""
config *.RA4.hasBgp true
config *.RB1.hasBgp true
config *.RB2.hasBgp true
config *.RC1.hasBgp true
config *.R*.bgp.bgpConfig "xmldoc(\"BGPConfig_Multi.xml\")"
config *.RA4.bgp.redistributeOspf "\"O IA\""
config *.RC1.bgp.redistributeOspf "\"O IA\""
config *.RB1.bgp.redistributeOspf "\"O IA\""
config *.RB2.bgp.redistributeOspf "\"O IA\""
config sim-time-limit 1000s
config *.pcapRecorder.moduleNamePatterns "\".^\""
config **.checksumMode "\"computed\""
config **.fcsMode "\"computed\""
config **.ip.procDelay 10us
config **.eth[*].queue.typename EthernetQosQueue
config **.eth[*].queue.dataQueue.typename DropTailQueue
config **.tcp.mss 1024
config **.tcp.advertisedWindow 14336
config **.tcp.tcpAlgorithmClass "\"TcpReno\""
config *.R*.ipv4.routingTable.useAdminDist true
config *.configurator.config "xml(\"<config>                                 <interface hosts='**' address='10.x.x.x' netmask='255.x.x.x'/>                                 <route hosts='host*' destination='*' netmask='0.0.0.0' interface='eth0' />                              </config>\")"
config *.configurator.addStaticRoutes false
config *.host0.numApps 1
config *.host0.app[0].typename PingApp
config *.host0.app[0].destAddr "\"host1\""
config *.host0.app[0].startTime 100s
config *.visualizer.numRoutingTableVisualizers 2
config *.visualizer.interfaceTableVisualizer[0].displayInterfaceTables true
config *.visualizer.routingTableVisualizer[*].displayRoutingTables true
config *.visualizer.routingTableVisualizer[0].destinationFilter "\"host1\""
config *.visualizer.routingTableVisualizer[1].destinationFilter "\"host0\""
config *.visualizer.routingTableVisualizer[0].lineColor "\"blue\""
config *.visualizer.routingTableVisualizer[1].lineColor "\"red\""
config *.visualizer.routingTableVisualizer[*].labelFormat "\"%d/%m (%e) -> %g (%n)\""
config *.visualizer.routingTableVisualizer[*].lineStyle "\"dashed\""

scalar BGP_Topology_3.RB2.ethernet pauseSent:count 0
scalar BGP_Topology_3.RB2.ethernet pauseSent:sum 0
scalar BGP_Topology_3.RB2.ethernet decapPk:count 2048
scalar BGP_Topology_3.RB2.ethernet decapPk:sum(packetBytes) 167860
scalar BGP_Topology_3.RB2.ethernet encapPk:count 2036
scalar BGP_Topology_3.RB2.ethernet encapPk:sum(packetBytes) 166225
scalar BGP_Topology_3.RB2.lo[0].lo rcvdPkFromHl:count 0
scalar BGP_Topology_3.RB2.lo[0].lo rcvdPkFromHl:sum(packetBytes) 0
scalar BGP_Topology_3.RB2.lo[0].lo passedUpPk:count 0
scalar BGP_Topology_3.RB2.lo[0].lo passedUpPk:sum(packetBytes) 0
scalar BGP_Topology_3.RB2.lo[0] packetDropInterfaceDown:count 0
scalar BGP_Topology_3.RB2.lo[0] packetDropInterfaceDown:sum(packetBytes) 0
scalar BGP_Topology_3.RB2.lo[0] packetDropNoCarrier:count 0
scalar BGP_Topology_3.RB2.lo[0] packetDropNoCarrier:sum(packetBytes) 0
scalar BGP_Topology_3.RB2.eth[0].queue.classifier packets:count 949
scalar BGP_Topology_3.RB2.eth[0].queue.classifier packetLengths:sum 762424
scalar BGP_Topology_3.RB2.eth[0].queue.pauseQueue queueLength:last 0
scalar BGP_Topology_3.RB2.eth[0].queue.pauseQueue queueLength:max 0
scalar BGP_Topology_3.RB2.eth[0].queue.pauseQueue queueLength:timeavg 0
scalar BGP_Topology_3.RB2.eth[0].queue.pauseQueue queueBitLength:last 0
scalar BGP_Topology_3.RB2.eth[0].queue.pauseQueue queueBitLength:max 0
scalar BGP_Topology_3.RB2.eth[0].queue.pauseQueue queueBitLength:timeavg 0
scalar BGP_Topology_3.RB2.eth[0].queue.pauseQueue outgoingPackets:count 0
scalar BGP_Topology_3.RB2.eth[0].queue.pauseQueue outgoingPacketLengths:sum 0
scalar BGP_Topology_3.RB2.eth[0].queue.pauseQueue incomingPackets:count 0
scalar BGP_Topology_3.RB2.eth[0].queue.pauseQueue incomingPacketLengths:sum 0
scalar BGP_Topology_3.RB2.eth[0].queue.pauseQueue droppedPacketsQueueOverflow:count 0
scalar BGP_Topology_3.RB2.eth[0].queue.pauseQueue droppedPacketLengthsQueueOverflow:sum 0
scalar BGP_Topology_3.RB2.eth[0].queue.dataQueue queueLength:last 0
scalar BGP_Topology_3.RB2.eth[0].queue.dataQueue queueLength:max 2
scalar BGP_Topology_3.RB2.eth[0].queue.dataQueue queueLength:timeavg 4.541999999999999e-08
scalar BGP_Topology_3.RB2.eth[0].queue.dataQueue queueBitLength:last 0
scalar BGP_Topology_3.RB2.eth[0].queue.dataQueue queueBitLength:max 984
scalar BGP_Topology_3.RB2.eth[0].queue.dataQueue queueBitLength:timeavg 2.043184e-05
scalar BGP_Topology_3.RB2.eth[0].queue.dataQueue outgoingPackets:count 949
scalar BGP_Topology_3.RB2.eth[0].queue.dataQueue outgoingPacketLengths:sum 762424
scalar BGP_Topology_3.RB2.eth[0].queue.dataQueue incomingPackets:count 949
scalar BGP_Topology_3.RB2.eth[0].queue.dataQueue incomingPacketLengths:sum 762424
scalar BGP_Topology_3.RB2.eth[0].queue.dataQueue droppedPacketsQueueOverflow:count 0
scalar BGP_Topology_3.RB2.eth[0].queue.dataQueue droppedPacketLengthsQueueOverflow:sum 0
scalar BGP_Topology_3.RB2.eth[0].queue.scheduler packets:count 949
scalar BGP_Topology_3.RB2.eth[0].queue.scheduler packetLengths:sum 762424
scalar BGP_Topology_3.RB2.eth[0].queue queueLength:last -949
scalar BGP_Topology_3.RB2.eth[0].queue queueLength:max 0
scalar BGP_Topology_3.RB2.eth[0].queue queueLength:timeavg -433.25844150049
scalar BGP_Topology_3.RB2.eth[0].queue queueBitLength:last -762424
scalar BGP_Topology_3.RB2.eth[0].queue queueBitLength:max 0
scalar BGP_Topology_3.RB2.eth[0].queue queueBitLength:timeavg -347961.3645308582
scalar BGP_Topology_3.RB2.eth[0].queue outgoingPackets:count 949
scalar BGP_Topology_3.RB2.eth[0].queue outgoingPacketLengths:sum 762424
scalar BGP_Topology_3.RB2.eth[0].queue incomingPackets:count 0
scalar BGP_Topology_3.RB2.eth[0].queue incomingPacketLengths:sum 0
scalar BGP_Topology_3.RB2.eth[0].queue droppedPacketsQueueOverflow:count 0
scalar BGP_Topology_3.RB2.eth[0].queue droppedPacketLengthsQueueOverflow:sum 0
scalar BGP_Topology_3.RB2.eth[0].mac "simulated time" 1000
scalar BGP_Topology_3.RB2.eth[0].mac full-duplex 1
scalar BGP_Topology_3.RB2.eth[0].mac "frames/sec sent" 0.949
scalar BGP_Topology_3.RB2.eth[0].mac "frames/sec rcvd" 0.95
scalar BGP_Topology_3.RB2.eth[0].mac "bits/sec sent" 764.616
scalar BGP_Topology_3.RB2.eth[0].mac "bits/sec rcvd" 764.376
scalar BGP_Topology_3.RB2.eth[0].mac "rx channel idle (%)" 99.99917482400001
scalar BGP_Topology_3.RB2.eth[0].mac "rx channel utilization (%)" 0.0008251760000000001
scalar BGP_Topology_3.RB2.eth[0].mac rxPausePkUnits:count 0
scalar BGP_Topology_3.RB2.eth[0].mac rxPausePkUnits:sum 0
scalar BGP_Topology_3.RB2.eth[0].mac txPausePkUnits:count 0
scalar BGP_Topology_3.RB2.eth[0].mac txPausePkUnits:sum 0
scalar BGP_Topology_3.RB2.eth[0].mac rxPkOk:count 950
scalar BGP_Topology_3.RB2.eth[0].mac rxPkOk:sum(packetBytes) 95547
scalar BGP_Topology_3.RB2.eth[0].mac txPk:count 949
scalar BGP_Topology_3.RB2.eth[0].mac txPk:sum(packetBytes) 95577
scalar BGP_Topology_3.RB2.eth[0].mac packetReceivedFromUpper:count 949
scalar BGP_Topology_3.RB2.eth[0].mac packetReceivedFromUpper:sum(packetBytes) 95303
scalar BGP_Topology_3.RB2.eth[0].mac passedUpPk:count 950
scalar BGP_Topology_3.RB2.eth[0].mac passedUpPk:sum(packetBytes) 95547
scalar BGP_Topology_3.RB2.eth[0].mac packetDropIncorrectlyReceived:count 0
scalar BGP_Topology_3.RB2.eth[0].mac packetDropIncorrectlyReceived:sum(packetBytes) 0
scalar BGP_Topology_3.RB2.eth[0].mac packetDropInterfaceDown:count 0
scalar BGP_Topology_3.RB2.eth[0].mac packetDropInterfaceDown:sum(packetBytes) 0
scalar BGP_Topology_3.RB2.eth[0].mac packetDropNotAddressedToUs:count 0
scalar BGP_Topology_3.RB2.eth[0].mac packetDropNotAddressedToUs:sum(packetBytes) 0
scalar BGP_Topology_3.RB2.eth[0] packetDropInterfaceDown:count 0
scalar BGP_Topology_3.RB2.eth[0] packetDropInterfaceDown:sum(packetBytes) 0
scalar BGP_Topology_3.RB2.eth[0] packetDropNoCarrier:count 0
scalar BGP_Topology_3.RB2.eth[0] packetDropNoCarrier:sum(packetBytes) 0
scalar BGP_Topology_3.RB2.eth[1].queue.classifier packets:count 1087
scalar BGP_Topology_3.RB2.eth[1].queue.classifier packetLengths:sum 860560
scalar BGP_Topology_3.RB2.eth[1].queue.pauseQueue queueLength:last 0
scalar BGP_Topology_3.RB2.eth[1].queue.pauseQueue queueLength:max 0
scalar BGP_Topology_3.RB2.eth[1].queue.pauseQueue queueLength:timeavg 0
scalar BGP_Topology_3.RB2.eth[1].queue.pauseQueue queueBitLength:last 0
scalar BGP_Topology_3.RB2.eth[1].queue.pauseQueue queueBitLength:max 0
scalar BGP_Topology_3.RB2.eth[1].queue.pauseQueue queueBitLength:timeavg 0
scalar BGP_Topology_3.RB2.eth[1].queue.pauseQueue outgoingPackets:count 0
scalar BGP_Topology_3.RB2.eth[1].queue.pauseQueue outgoingPacketLengths:sum 0
scalar BGP_Topology_3.RB2.eth[1].queue.pauseQueue incomingPackets:count 0
scalar BGP_Topology_3.RB2.eth[1].queue.pauseQueue incomingPacketLengths:sum 0
scalar BGP_Topology_3.RB2.eth[1].queue.pauseQueue droppedPacketsQueueOverflow:count 0
scalar BGP_Topology_3.RB2.eth[1].queue.pauseQueue droppedPacketLengthsQueueOverflow:sum 0
scalar BGP_Topology_3.RB2.eth[1].queue.dataQueue queueLength:last 0
scalar BGP_Topology_3.RB2.eth[1].queue.dataQueue queueLength:max 6
scalar BGP_Topology_3.RB2.eth[1].queue.dataQueue queueLength:timeavg 4.295e-07
scalar BGP_Topology_3.RB2.eth[1].queue.dataQueue queueBitLength:last 0
scalar BGP_Topology_3.RB2.eth[1].queue.dataQueue queueBitLength:max 4896
scalar BGP_Topology_3.RB2.eth[1].queue.dataQueue queueBitLength:timeavg 0.00031694879999999995
scalar BGP_Topology_3.RB2.eth[1].queue.dataQueue outgoingPackets:count 1087
scalar BGP_Topology_3.RB2.eth[1].queue.dataQueue outgoingPacketLengths:sum 860560
scalar BGP_Topology_3.RB2.eth[1].queue.dataQueue incomingPackets:count 1087
scalar BGP_Topology_3.RB2.eth[1].queue.dataQueue incomingPacketLengths:sum 860560
scalar BGP_Topology_3.RB2.eth[1].queue.dataQueue droppedPacketsQueueOverflow:count 0
scalar BGP_Topology_3.RB2.eth[1].queue.dataQueue droppedPacketLengthsQueueOverflow:sum 0
scalar BGP_Topology_3.RB2.eth[1].queue.scheduler packets:count 1087
scalar BGP_Topology_3.RB2.eth[1].queue.scheduler packetLengths:sum 860560
scalar BGP_Topology_3.RB2.eth[1].queue queueLength:last -1087
scalar BGP_Topology_3.RB2.eth[1].queue queueLength:max 0
scalar BGP_Topology_3.RB2.eth[1].queue queueLength:timeavg -519.9617061994137
scalar BGP_Topology_3.RB2.eth[1].queue queueBitLength:last -860560
scalar BGP_Topology_3.RB2.eth[1].queue queueBitLength:max 0
scalar BGP_Topology_3.RB2.eth[1].queue queueBitLength:timeavg -410667.1909998757
scalar BGP_Topology_3.RB2.eth[1].queue outgoingPackets:count 1087
scalar BGP_Topology_3.RB2.eth[1].queue outgoingPacketLengths:sum 860560
scalar BGP_Topology_3.RB2.eth[1].queue incomingPackets:count 0
scalar BGP_Topology_3.RB2.eth[1].queue incomingPacketLengths:sum 0
scalar BGP_Topology_3.RB2.eth[1].queue droppedPacketsQueueOverflow:count 0
scalar BGP_Topology_3.RB2.eth[1].queue droppedPacketLengthsQueueOverflow:sum 0
scalar BGP_Topology_3.RB2.eth[1].mac "simulated time" 1000
scalar BGP_Topology_3.RB2.eth[1].mac full-duplex 1
scalar BGP_Topology_3.RB2.eth[1].mac "frames/sec sent" 1.087
scalar BGP_Topology_3.RB2.eth[1].mac "frames/sec rcvd" 1.098
scalar BGP_Topology_3.RB2.eth[1].mac "bits/sec sent" 862.896
scalar BGP_Topology_3.RB2.eth[1].mac "bits/sec rcvd" 873.416
scalar BGP_Topology_3.RB2.eth[1].mac "rx channel idle (%)" 99.99905631200001
scalar BGP_Topology_3.RB2.eth[1].mac "rx channel utilization (%)" 0.0009436879999999999
scalar BGP_Topology_3.RB2.eth[1].mac rxPausePkUnits:count 0
scalar BGP_Topology_3.RB2.eth[1].mac rxPausePkUnits:sum 0
scalar BGP_Topology_3.RB2.eth[1].mac txPausePkUnits:count 0
scalar BGP_Topology_3.RB2.eth[1].mac txPausePkUnits:sum 0
scalar BGP_Topology_3.RB2.eth[1].mac rxPkOk:count 1098
scalar BGP_Topology_3.RB2.eth[1].mac rxPkOk:sum(packetBytes) 109177
scalar BGP_Topology_3.RB2.eth[1].mac txPk:count 1087
scalar BGP_Topology_3.RB2.eth[1].mac txPk:sum(packetBytes) 107862
scalar BGP_Topology_3.RB2.eth[1].mac packetReceivedFromUpper:count 1087
scalar BGP_Topology_3.RB2.eth[1].mac packetReceivedFromUpper:sum(packetBytes) 107570
scalar BGP_Topology_3.RB2.eth[1].mac passedUpPk:count 1098
scalar BGP_Topology_3.RB2.eth[1].mac passedUpPk:sum(packetBytes) 109177
scalar BGP_Topology_3.RB2.eth[1].mac packetDropIncorrectlyReceived:count 0
scalar BGP_Topology_3.RB2.eth[1].mac packetDropIncorrectlyReceived:sum(packetBytes) 0
scalar BGP_Topology_3.RB2.eth[1].mac packetDropInterfaceDown:count 0
scalar BGP_Topology_3.RB2.eth[1].mac packetDropInterfaceDown:sum(packetBytes) 0
scalar BGP_Topology_3.RB2.eth[1].mac packetDropNotAddressedToUs:count 0
scalar BGP_Topology_3.RB2.eth[1].mac packetDropNotAddressedToUs:sum(packetBytes) 0
scalar BGP_Topology_3.RB2.eth[1] packetDropInterfaceDown:count 0
scalar BGP_Topology_3.RB2.eth[1] packetDropInterfaceDown:sum(packetBytes) 0
scalar BGP_Topology_3.RB2.eth[1] packetDropNoCarrier:count 0
scalar BGP_Topology_3.RB2.eth[1] packetDropNoCarrier:sum(packetBytes) 0
scalar BGP_Topology_3.RB2.ipv4.ip packetDropAddressResolutionFailed:count 0
scalar BGP_Topology_3.RB2.ipv4.ip packetDropAddressResolutionFailed:sum(packetBytes) 0
scalar BGP_Topology_3.RB2.ipv4.ip packetDropHopLimitReached:count 0
scalar BGP_Topology_3.RB2.ipv4.ip packetDropHopLimitReached:sum(packetBytes) 0
scalar BGP_Topology_3.RB2.ipv4.ip packetDropForwardingDisabled:count 0
scalar BGP_Topology_3.RB2.ipv4.ip packetDropForwardingDisabled:sum(packetBytes) 0
scalar BGP_Topology_3.RB2.ipv4.ip packetDropLifetimeExpired:count 0
scalar BGP_Topology_3.RB2.ipv4.ip packetDropLifetimeExpired:sum(packetBytes) 0
scalar BGP_Topology_3.RB2.ipv4.ip packetDropNoInterfaceFound:count 0
scalar BGP_Topology_3.RB2.ipv4.ip packetDropNoInterfaceFound:sum(packetBytes) 0
scalar BGP_Topology_3.RB2.ipv4.ip packetDropNoRouteFound:count 0
scalar BGP_Topology_3.RB2.ipv4.ip packetDropNoRouteFound:sum(packetBytes) 0
scalar BGP_Topology_3.RB2.ipv4.ip packetDropUndefined:count 0
scalar BGP_Topology_3.RB2.ipv4.ip packetDropUndefined:sum(packetBytes) 0
scalar BGP_Topology_3.RB2.ipv4.arp arpResolutionFailed:count 0
scalar BGP_Topology_3.RB2.ipv4.arp arpResolutionCompleted:count 18
scalar BGP_Topology_3.RB2.ipv4.arp arpResolutionInitiated:count 9
scalar BGP_Topology_3.RB2.ipv4.arp arpReplySent:count 9
scalar BGP_Topology_3.RB2.ipv4.arp arpReplySent:sum(packetBytes) 252
scalar BGP_Topology_3.RB2.ipv4.arp arpRequestSent:count 9
scalar BGP_Topology_3.RB2.ipv4.arp arpRequestSent:sum(packetBytes) 252
scalar BGP_Topology_3.RB2.bgp OPENMsgSent 2
scalar BGP_Topology_3.RB2.bgp OPENMsgRecv 2
scalar BGP_Topology_3.RB2.bgp KeepAliveMsgSent 32
scalar BGP_Topology_3.RB2.bgp KeepAliveMsgRcv 32
scalar BGP_Topology_3.RB2.bgp UpdateMsgSent 16
scalar BGP_Topology_3.RB2.bgp UpdateMsgRcv 14
scalar BGP_Topology_3.RC1.ethernet pauseSent:count 0
scalar BGP_Topology_3.RC1.ethernet pauseSent:sum 0
scalar BGP_Topology_3.RC1.ethernet decapPk:count 2154
scalar BGP_Topology_3.RC1.ethernet decapPk:sum(packetBytes) 176431
scalar BGP_Topology_3.RC1.ethernet encapPk:count 2142
scalar BGP_Topology_3.RC1.ethernet encapPk:sum(packetBytes) 174331
scalar BGP_Topology_3.RC1.lo[0].lo rcvdPkFromHl:count 0
scalar BGP_Topology_3.RC1.lo[0].lo rcvdPkFromHl:sum(packetBytes) 0
scalar BGP_Topology_3.RC1.lo[0].lo passedUpPk:count 0
scalar BGP_Topology_3.RC1.lo[0].lo passedUpPk:sum(packetBytes) 0
scalar BGP_Topology_3.RC1.lo[0] packetDropInterfaceDown:count 0
scalar BGP_Topology_3.RC1.lo[0] packetDropInterfaceDown:sum(packetBytes) 0
scalar BGP_Topology_3.RC1.lo[0] packetDropNoCarrier:count 0
scalar BGP_Topology_3.RC1.lo[0] packetDropNoCarrier:sum(packetBytes) 0
scalar BGP_Topology_3.RC1.eth[0].queue.classifier packets:count 1041
scalar BGP_Topology_3.RC1.eth[0].queue.classifier packetLengths:sum 834000
scalar BGP_Topology_3.RC1.eth[0].queue.pauseQueue queueLength:last 0
scalar BGP_Topology_3.RC1.eth[0].queue.pauseQueue queueLength:max 0
scalar BGP_Topology_3.RC1.eth[0].queue.pauseQueue queueLength:timeavg 0
scalar BGP_Topology_3.RC1.eth[0].queue.pauseQueue queueBitLength:last 0
scalar BGP_Topology_3.RC1.eth[0].queue.pauseQueue queueBitLength:max 0
scalar BGP_Topology_3.RC1.eth[0].queue.pauseQueue queueBitLength:timeavg 0
scalar BGP_Topology_3.RC1.eth[0].queue.pauseQueue outgoingPackets:count 0
scalar BGP_Topology_3.RC1.eth[0].queue.pauseQueue outgoingPacketLengths:sum 0
scalar BGP_Topology_3.RC1.eth[0].queue.pauseQueue incomingPackets:count 0
scalar BGP_Topology_3.RC1.eth[0].queue.pauseQueue incomingPacketLengths:sum 0
scalar BGP_Topology_3.RC1.eth[0].queue.pauseQueue droppedPacketsQueueOverflow:count 0
scalar BGP_Topology_3.RC1.eth[0].queue.pauseQueue droppedPacketLengthsQueueOverflow:sum 0
scalar BGP_Topology_3.RC1.eth[0].queue.dataQueue queueLength:last 0
scalar BGP_Topology_3.RC1.eth[0].queue.dataQueue queueLength:max 3
scalar BGP_Topology_3.RC1.eth[0].queue.dataQueue queueLength:timeavg 1.4325999999999997e-07
scalar BGP_Topology_3.RC1.eth[0].queue.dataQueue queueBitLength:last 0
scalar BGP_Topology_3.RC1.eth[0].queue.dataQueue queueBitLength:max 2736
scalar BGP_Topology_3.RC1.eth[0].queue.dataQueue queueBitLength:timeavg 0.0001222256
scalar BGP_Topology_3.RC1.eth[0].queue.dataQueue outgoingPackets:count 1041
scalar BGP_Topology_3.RC1.eth[0].queue.dataQueue outgoingPacketLengths:sum 834000
scalar BGP_Topology_3.RC1.eth[0].queue.dataQueue incomingPackets:count 1041
scalar BGP_Topology_3.RC1.eth[0].queue.dataQueue incomingPacketLengths:sum 834000
scalar BGP_Topology_3.RC1.eth[0].queue.dataQueue droppedPacketsQueueOverflow:count 0
scalar BGP_Topology_3.RC1.eth[0].queue.dataQueue droppedPacketLengthsQueueOverflow:sum 0
scalar BGP_Topology_3.RC1.eth[0].queue.scheduler packets:count 1041
scalar BGP_Topology_3.RC1.eth[0].queue.scheduler packetLengths:sum 834000
scalar BGP_Topology_3.RC1.eth[0].queue queueLength:last -1041
scalar BGP_Topology_3.RC1.eth[0].queue queueLength:max 0
scalar BGP_Topology_3.RC1.eth[0].queue queueLength:timeavg -491.74615114909955
scalar BGP_Topology_3.RC1.eth[0].queue queueBitLength:last -834000
scalar BGP_Topology_3.RC1.eth[0].queue queueBitLength:max 0
scalar BGP_Topology_3.RC1.eth[0].queue queueBitLength:timeavg -394036.21584541624
scalar BGP_Topology_3.RC1.eth[0].queue outgoingPackets:count 1041
scalar BGP_Topology_3.RC1.eth[0].queue outgoingPacketLengths:sum 834000
scalar BGP_Topology_3.RC1.eth[0].queue incomingPackets:count 0
scalar BGP_Topology_3.RC1.eth[0].queue incomingPacketLengths:sum 0
scalar BGP_Topology_3.RC1.eth[0].queue droppedPacketsQueueOverflow:count 0
scalar BGP_Topology_3.RC1.eth[0].queue droppedPacketLengthsQueueOverflow:sum 0
scalar BGP_Topology_3.RC1.eth[0].mac "simulated time" 1000
scalar BGP_Topology_3.RC1.eth[0].mac full-duplex 1
scalar BGP_Topology_3.RC1.eth[0].mac "frames/sec sent" 1.041
scalar BGP_Topology_3.RC1.eth[0].mac "frames/sec rcvd" 0.15
scalar BGP_Topology_3.RC1.eth[0].mac "bits/sec sent" 835.296
scalar BGP_Topology_3.RC1.eth[0].mac "bits/sec rcvd" 109.04
scalar BGP_Topology_3.RC1.eth[0].mac "rx channel idle (%)" 99.99988136
scalar BGP_Topology_3.RC1.eth[0].mac "rx channel utilization (%)" 0.00011864
scalar BGP_Topology_3.RC1.eth[0].mac rxPausePkUnits:count 0
scalar BGP_Topology_3.RC1.eth[0].mac rxPausePkUnits:sum 0
scalar BGP_Topology_3.RC1.eth[0].mac txPausePkUnits:count 0
scalar BGP_Topology_3.RC1.eth[0].mac txPausePkUnits:sum 0
scalar BGP_Topology_3.RC1.eth[0].mac rxPkOk:count 150
scalar BGP_Topology_3.RC1.eth[0].mac rxPkOk:sum(packetBytes) 13630
scalar BGP_Topology_3.RC1.eth[0].mac txPk:count 1041
scalar BGP_Topology_3.RC1.eth[0].mac txPk:sum(packetBytes) 104412
scalar BGP_Topology_3.RC1.eth[0].mac packetReceivedFromUpper:count 1041
scalar BGP_Topology_3.RC1.eth[0].mac packetReceivedFromUpper:sum(packetBytes) 104250
scalar BGP_Topology_3.RC1.eth[0].mac passedUpPk:count 150
scalar BGP_Topology_3.RC1.eth[0].mac passedUpPk:sum(packetBytes) 13630
scalar BGP_Topology_3.RC1.eth[0].mac packetDropIncorrectlyReceived:count 0
scalar BGP_Topology_3.RC1.eth[0].mac packetDropIncorrectlyReceived:sum(packetBytes) 0
scalar BGP_Topology_3.RC1.eth[0].mac packetDropInterfaceDown:count 0
scalar BGP_Topology_3.RC1.eth[0].mac packetDropInterfaceDown:sum(packetBytes) 0
scalar BGP_Topology_3.RC1.eth[0].mac packetDropNotAddressedToUs:count 0
scalar BGP_Topology_3.RC1.eth[0].mac packetDropNotAddressedToUs:sum(packetBytes) 0
scalar BGP_Topology_3.RC1.eth[0] packetDropInterfaceDown:count 0
scalar BGP_Topology_3.RC1.eth[0] packetDropInterfaceDown:sum(packetBytes) 0
scalar BGP_Topology_3.RC1.eth[0] packetDropNoCarrier:count 0
scalar BGP_Topology_3.RC1.eth[0] packetDropNoCarrier:sum(packetBytes) 0
scalar BGP_Topology_3.RC1.eth[1].queue.classifier packets:count 151
scalar BGP_Topology_3.RC1.eth[1].queue.classifier packetLengths:sum 107088
scalar BGP_Topology_3.RC1.eth[1].queue.pauseQueue queueLength:last 0
scalar BGP_Topology_3.RC1.eth[1].queue.pauseQueue queueLength:max 0
scalar BGP_Topology_3.RC1.eth[1].queue.pauseQueue queueLength:timeavg 0
scalar BGP_Topology_3.RC1.eth[1].queue.pauseQueue queueBitLength:last 0
scalar BGP_Topology_3.RC1.eth[1].queue.pauseQueue queueBitLength:max 0
scalar BGP_Topology_3.RC1.eth[1].queue.pauseQueue queueBitLength:timeavg 0
scalar BGP_Topology_3.RC1.eth[1].queue.pauseQueue outgoingPackets:count 0
scalar BGP_Topology_3.RC1.eth[1].queue.pauseQueue outgoingPacketLengths:sum 0
scalar BGP_Topology_3.RC1.eth[1].queue.pauseQueue incomingPackets:count 0
scalar BGP_Topology_3.RC1.eth[1].queue.pauseQueue incomingPacketLengths:sum 0
scalar BGP_Topology_3.RC1.eth[1].queue.pauseQueue droppedPacketsQueueOverflow:count 0
scalar BGP_Topology_3.RC1.eth[1].queue.pauseQueue droppedPacketLengthsQueueOverflow:sum 0
scalar BGP_Topology_3.RC1.eth[1].queue.dataQueue queueLength:last 0
scalar BGP_Topology_3.RC1.eth[1].queue.dataQueue queueLength:max 3
scalar BGP_Topology_3.RC1.eth[1].queue.dataQueue queueLength:timeavg 1.8044e-07
scalar BGP_Topology_3.RC1.eth[1].queue.dataQueue queueBitLength:last 0
scalar BGP_Topology_3.RC1.eth[1].queue.dataQueue queueBitLength:max 2352
scalar BGP_Topology_3.RC1.eth[1].queue.dataQueue queueBitLength:timeavg 0.00015433407999999998
scalar BGP_Topology_3.RC1.eth[1].queue.dataQueue outgoingPackets:count 151
scalar BGP_Topology_3.RC1.eth[1].queue.dataQueue outgoingPacketLengths:sum 107088
scalar BGP_Topology_3.RC1.eth[1].queue.dataQueue incomingPackets:count 151
scalar BGP_Topology_3.RC1.eth[1].queue.dataQueue incomingPacketLengths:sum 107088
scalar BGP_Topology_3.RC1.eth[1].queue.dataQueue droppedPacketsQueueOverflow:count 0
scalar BGP_Topology_3.RC1.eth[1].queue.dataQueue droppedPacketLengthsQueueOverflow:sum 0
scalar BGP_Topology_3.RC1.eth[1].queue.scheduler packets:count 151
scalar BGP_Topology_3.RC1.eth[1].queue.scheduler packetLengths:sum 107088
scalar BGP_Topology_3.RC1.eth[1].queue queueLength:last -151
scalar BGP_Topology_3.RC1.eth[1].queue queueLength:max 0
scalar BGP_Topology_3.RC1.eth[1].queue queueLength:timeavg -95.93959672690445
scalar BGP_Topology_3.RC1.eth[1].queue queueBitLength:last -107088
scalar BGP_Topology_3.RC1.eth[1].queue queueBitLength:max 0
scalar BGP_Topology_3.RC1.eth[1].queue queueBitLength:timeavg -70431.25638878426
scalar BGP_Topology_3.RC1.eth[1].queue outgoingPackets:count 151
scalar BGP_Topology_3.RC1.eth[1].queue outgoingPacketLengths:sum 107088
scalar BGP_Topology_3.RC1.eth[1].queue incomingPackets:count 0
scalar BGP_Topology_3.RC1.eth[1].queue incomingPacketLengths:sum 0
scalar BGP_Topology_3.RC1.eth[1].queue droppedPacketsQueueOverflow:count 0
scalar BGP_Topology_3.RC1.eth[1].queue droppedPacketLengthsQueueOverflow:sum 0
scalar BGP_Topology_3.RC1.eth[1].mac "simulated time" 1000
scalar BGP_Topology_3.RC1.eth[1].mac full-duplex 1
scalar BGP_Topology_3.RC1.eth[1].mac "frames/sec sent" 0.151
scalar BGP_Topology_3.RC1.eth[1].mac "frames/sec rcvd" 1.055
scalar BGP_Topology_3.RC1.eth[1].mac "bits/sec sent" 108.384
scalar BGP_Topology_3.RC1.eth[1].mac "bits/sec rcvd" 847.968
scalar BGP_Topology_3.RC1.eth[1].mac "rx channel idle (%)" 99.999084512
scalar BGP_Topology_3.RC1.eth[1].mac "rx channel utilization (%)" 0.000915488
scalar BGP_Topology_3.RC1.eth[1].mac rxPausePkUnits:count 0
scalar BGP_Topology_3.RC1.eth[1].mac rxPausePkUnits:sum 0
scalar BGP_Topology_3.RC1.eth[1].mac txPausePkUnits:count 0
scalar BGP_Topology_3.RC1.eth[1].mac txPausePkUnits:sum 0
scalar BGP_Topology_3.RC1.eth[1].mac rxPkOk:count 1055
scalar BGP_Topology_3.RC1.eth[1].mac rxPkOk:sum(packetBytes) 105996
scalar BGP_Topology_3.RC1.eth[1].mac txPk:count 151
scalar BGP_Topology_3.RC1.eth[1].mac txPk:sum(packetBytes) 13548
scalar BGP_Topology_3.RC1.eth[1].mac packetReceivedFromUpper:count 151
scalar BGP_Topology_3.RC1.eth[1].mac packetReceivedFromUpper:sum(packetBytes) 13386
scalar BGP_Topology_3.RC1.eth[1].mac passedUpPk:count 1055
scalar BGP_Topology_3.RC1.eth[1].mac passedUpPk:sum(packetBytes) 105996
scalar BGP_Topology_3.RC1.eth[1].mac packetDropIncorrectlyReceived:count 0
scalar BGP_Topology_3.RC1.eth[1].mac packetDropIncorrectlyReceived:sum(packetBytes) 0
scalar BGP_Topology_3.RC1.eth[1].mac packetDropInterfaceDown:count 0
scalar BGP_Topology_3.RC1.eth[1].mac packetDropInterfaceDown:sum(packetBytes) 0
scalar BGP_Topology_3.RC1.eth[1].mac packetDropNotAddressedToUs:count 0
scalar BGP_Topology_3.RC1.eth[1].mac packetDropNotAddressedToUs:sum(packetBytes) 0
scalar BGP_Topology_3.RC1.eth[1] packetDropInterfaceDown:count 0
scalar BGP_Topology_3.RC1.eth[1] packetDropInterfaceDown:sum(packetBytes) 0
scalar BGP_Topology_3.RC1.eth[1] packetDropNoCarrier:count 0
scalar BGP_Topology_3.RC1.eth[1] packetDropNoCarrier:sum(packetBytes) 0
scalar BGP_Topology_3.RC1.eth[2].queue.classifier packets:count 950
scalar BGP_Topology_3.RC1.eth[2].queue.classifier packetLengths:sum 762008
scalar BGP_Topology_3.RC1.eth[2].queue.pauseQueue queueLength:last 0
scalar BGP_Topology_3.RC1.eth[2].queue.pauseQueue queueLength:max 0
scalar BGP_Topology_3.RC1.eth[2].queue.pauseQueue queueLength:timeavg 0
scalar BGP_Topology_3.RC1.eth[2].queue.pauseQueue queueBitLength:last 0
scalar BGP_Topology_3.RC1.eth[2].queue.pauseQueue queueBitLength:max 0
scalar BGP_Topology_3.RC1.eth[2].queue.pauseQueue queueBitLength:timeavg 0
scalar BGP_Topology_3.RC1.eth[2].queue.pauseQueue outgoingPackets:count 0
scalar BGP_Topology_3.RC1.eth[2].queue.pauseQueue outgoingPacketLengths:sum 0
scalar BGP_Topology_3.RC1.eth[2].queue.pauseQueue incomingPackets:count 0
scalar BGP_Topology_3.RC1.eth[2].queue.pauseQueue incomingPacketLengths:sum 0
scalar BGP_Topology_3.RC1.eth[2].queue.pauseQueue droppedPacketsQueueOverflow:count 0
scalar BGP_Topology_3.RC1.eth[2].queue.pauseQueue droppedPacketLengthsQueueOverflow:sum 0
scalar BGP_Topology_3.RC1.eth[2].queue.dataQueue queueLength:last 0
scalar BGP_Topology_3.RC1.eth[2].queue.dataQueue queueLength:max 1
scalar BGP_Topology_3.RC1.eth[2].queue.dataQueue queueLength:timeavg 4.87e-08
scalar BGP_Topology_3.RC1.eth[2].queue.dataQueue queueBitLength:last 0
scalar BGP_Topology_3.RC1.eth[2].queue.dataQueue queueBitLength:max 3040
scalar BGP_Topology_3.RC1.eth[2].queue.dataQueue queueBitLength:timeavg 2.837584e-05
scalar BGP_Topology_3.RC1.eth[2].queue.dataQueue outgoingPackets:count 950
scalar BGP_Topology_3.RC1.eth[2].queue.dataQueue outgoingPacketLengths:sum 762008
scalar BGP_Topology_3.RC1.eth[2].queue.dataQueue incomingPackets:count 950
scalar BGP_Topology_3.RC1.eth[2].queue.dataQueue incomingPacketLengths:sum 762008
scalar BGP_Topology_3.RC1.eth[2].queue.dataQueue droppedPacketsQueueOverflow:count 0
scalar BGP_Topology_3.RC1.eth[2].queue.dataQueue droppedPacketLengthsQueueOverflow:sum 0
scalar BGP_Topology_3.RC1.eth[2].queue.scheduler packets:count 950
scalar BGP_Topology_3.RC1.eth[2].queue.scheduler packetLengths:sum 762008
scalar BGP_Topology_3.RC1.eth[2].queue queueLength:last -950
scalar BGP_Topology_3.RC1.eth[2].queue queueLength:max 0
scalar BGP_Topology_3.RC1.eth[2].queue queueLength:timeavg -434.19586900563996
scalar BGP_Topology_3.RC1.eth[2].queue queueBitLength:last -762008
scalar BGP_Topology_3.RC1.eth[2].queue queueBitLength:max 0
scalar BGP_Topology_3.RC1.eth[2].queue queueBitLength:timeavg -347580.69777448993
scalar BGP_Topology_3.RC1.eth[2].queue outgoingPackets:count 950
scalar BGP_Topology_3.RC1.eth[2].queue outgoingPacketLengths:sum 762008
scalar BGP_Topology_3.RC1.eth[2].queue incomingPackets:count 0
scalar BGP_Topology_3.RC1.eth[2].queue incomingPacketLengths:sum 0
scalar BGP_Topology_3.RC1.eth[2].queue droppedPacketsQueueOverflow:count 0
scalar BGP_Topology_3.RC1.eth[2].queue droppedPacketLengthsQueueOverflow:sum 0
scalar BGP_Topology_3.RC1.eth[2].mac "simulated time" 1000
scalar BGP_Topology_3.RC1.eth[2].mac full-duplex 1
scalar BGP_Topology_3.RC1.eth[2].mac "frames/sec sent" 0.95
scalar BGP_Topology_3.RC1.eth[2].mac "frames/sec rcvd" 0.949
scalar BGP_Topology_3.RC1.eth[2].mac "bits/sec sent" 764.376
scalar BGP_Topology_3.RC1.eth[2].mac "bits/sec rcvd" 764.616
scalar BGP_Topology_3.RC1.eth[2].mac "rx channel idle (%)" 99.999174648
scalar BGP_Topology_3.RC1.eth[2].mac "rx channel utilization (%)" 0.0008253519999999999
scalar BGP_Topology_3.RC1.eth[2].mac rxPausePkUnits:count 0
scalar BGP_Topology_3.RC1.eth[2].mac rxPausePkUnits:sum 0
scalar BGP_Topology_3.RC1.eth[2].mac txPausePkUnits:count 0
scalar BGP_Topology_3.RC1.eth[2].mac txPausePkUnits:sum 0
scalar BGP_Topology_3.RC1.eth[2].mac rxPkOk:count 949
scalar BGP_Topology_3.RC1.eth[2].mac rxPkOk:sum(packetBytes) 95577
scalar BGP_Topology_3.RC1.eth[2].mac txPk:count 950
scalar BGP_Topology_3.RC1.eth[2].mac txPk:sum(packetBytes) 95547
scalar BGP_Topology_3.RC1.eth[2].mac packetReceivedFromUpper:count 950
scalar BGP_Topology_3.RC1.eth[2].mac packetReceivedFromUpper:sum(packetBytes) 95251
scalar BGP_Topology_3.RC1.eth[2].mac passedUpPk:count 949
scalar BGP_Topology_3.RC1.eth[2].mac passedUpPk:sum(packetBytes) 95577
scalar BGP_Topology_3.RC1.eth[2].mac packetDropIncorrectlyReceived:count 0
scalar BGP_Topology_3.RC1.eth[2].mac packetDropIncorrectlyReceived:sum(packetBytes) 0
scalar BGP_Topology_3.RC1.eth[2].mac packetDropInterfaceDown:count 0
scalar BGP_Topology_3.RC1.eth[2].mac packetDropInterfaceDown:sum(packetBytes) 0
scalar BGP_Topology_3.RC1.eth[2].mac packetDropNotAddressedToUs:count 0
scalar BGP_Topology_3.RC1.eth[2].mac packetDropNotAddressedToUs:sum(packetBytes) 0
scalar BGP_Topology_3.RC1.eth[2] packetDropInterfaceDown:count 0
scalar BGP_Topology_3.RC1.eth[2] packetDropInterfaceDown:sum(packetBytes) 0
scalar BGP_Topology_3.RC1.eth[2] packetDropNoCarrier:count 0
scalar BGP_Topology_3.RC1.eth[2] packetDropNoCarrier:sum(packetBytes) 0
scalar BGP_Topology_3.RC1.ipv4.ip packetDropAddressResolutionFailed:count 0
scalar BGP_Topology_3.RC1.ipv4.ip packetDropAddressResolutionFailed:sum(packetBytes) 0
scalar BGP_Topology_3.RC1.ipv4.ip packetDropHopLimitReached:count 0
scalar BGP_Topology_3.RC1.ipv4.ip packetDropHopLimitReached:sum(packetBytes) 0
scalar BGP_Topology_3.RC1.ipv4.ip packetDropForwardingDisabled:count 0
scalar BGP_Topology_3.RC1.ipv4.ip packetDropForwardingDisabled:sum(packetBytes) 0
scalar BGP_Topology_3.RC1.ipv4.ip packetDropLifetimeExpired:count 0
scalar BGP_Topology_3.RC1.ipv4.ip packetDropLifetimeExpired:sum(packetBytes) 0
scalar BGP_Topology_3.RC1.ipv4.ip packetDropNoInterfaceFound:count 0
scalar BGP_Topology_3.RC1.ipv4.ip packetDropNoInterfaceFound:sum(packetBytes) 0
scalar BGP_Topology_3.RC1.ipv4.ip packetDropNoRouteFound:count 0
scalar BGP_Topology_3.RC1.ipv4.ip packetDropNoRouteFound:sum(packetBytes) 0
scalar BGP_Topology_3.RC1.ipv4.ip packetDropUndefined:count 0
scalar BGP_Topology_3.RC1.ipv4.ip packetDropUndefined:sum(packetBytes) 0
scalar BGP_Topology_3.RC1.ipv4.arp arpResolutionFailed:count 0
scalar BGP_Topology_3.RC1.ipv4.arp arpResolutionCompleted:count 27
scalar BGP_Topology_3.RC1.ipv4.arp arpResolutionInitiated:count 12
scalar BGP_Topology_3.RC1.ipv4.arp arpReplySent:count 15
scalar BGP_Topology_3.RC1.ipv4.arp arpReplySent:sum(packetBytes) 420
scalar BGP_Topology_3.RC1.ipv4.arp arpRequestSent:count 12
scalar BGP_Topology_3.RC1.ipv4.arp arpRequestSent:sum(packetBytes) 336
scalar BGP_Topology_3.RC1.bgp OPENMsgSent 1
scalar BGP_Topology_3.RC1.bgp OPENMsgRecv 1
scalar BGP_Topology_3.RC1.bgp KeepAliveMsgSent 16
scalar BGP_Topology_3.RC1.bgp KeepAliveMsgRcv 16
scalar BGP_Topology_3.RC1.bgp UpdateMsgSent 7
scalar BGP_Topology_3.RC1.bgp UpdateMsgRcv 9
scalar BGP_Topology_3.RC2.ethernet pauseSent:count 0
scalar BGP_Topology_3.RC2.ethernet pauseSent:sum 0
scalar BGP_Topology_3.RC2.ethernet decapPk:count 1196
scalar BGP_Topology_3.RC2.ethernet decapPk:sum(packetBytes) 96996
scalar BGP_Topology_3.RC2.ethernet encapPk:count 1196
scalar BGP_Topology_3.RC2.ethernet encapPk:sum(packetBytes) 96972
scalar BGP_Topology_3.RC2.lo[0].lo rcvdPkFromHl:count 0
scalar BGP_Topology_3.RC2.lo[0].lo rcvdPkFromHl:sum(packetBytes) 0
scalar BGP_Topology_3.RC2.lo[0].lo passedUpPk:count 0
scalar BGP_Topology_3.RC2.lo[0].lo passedUpPk:sum(packetBytes) 0
scalar BGP_Topology_3.RC2.lo[0] packetDropInterfaceDown:count 0
scalar BGP_Topology_3.RC2.lo[0] packetDropInterfaceDown:sum(packetBytes) 0
scalar BGP_Topology_3.RC2.lo[0] packetDropNoCarrier:count 0
scalar BGP_Topology_3.RC2.lo[0] packetDropNoCarrier:sum(packetBytes) 0
scalar BGP_Topology_3.RC2.eth[0].queue.classifier packets:count 150
scalar BGP_Topology_3.RC2.eth[0].queue.classifier packetLengths:sum 107744
scalar BGP_Topology_3.RC2.eth[0].queue.pauseQueue queueLength:last 0
scalar BGP_Topology_3.RC2.eth[0].queue.pauseQueue queueLength:max 0
scalar BGP_Topology_3.RC2.eth[0].queue.pauseQueue queueLength:timeavg 0
scalar BGP_Topology_3.RC2.eth[0].queue.pauseQueue queueBitLength:last 0
scalar BGP_Topology_3.RC2.eth[0].queue.pauseQueue queueBitLength:max 0
scalar BGP_Topology_3.RC2.eth[0].queue.pauseQueue queueBitLength:timeavg 0
scalar BGP_Topology_3.RC2.eth[0].queue.pauseQueue outgoingPackets:count 0
scalar BGP_Topology_3.RC2.eth[0].queue.pauseQueue outgoingPacketLengths:sum 0
scalar BGP_Topology_3.RC2.eth[0].queue.pauseQueue incomingPackets:count 0
scalar BGP_Topology_3.RC2.eth[0].queue.pauseQueue incomingPacketLengths:sum 0
scalar BGP_Topology_3.RC2.eth[0].queue.pauseQueue droppedPacketsQueueOverflow:count 0
scalar BGP_Topology_3.RC2.eth[0].queue.pauseQueue droppedPacketLengthsQueueOverflow:sum 0
scalar BGP_Topology_3.RC2.eth[0].queue.dataQueue queueLength:last 0
scalar BGP_Topology_3.RC2.eth[0].queue.dataQueue queueLength:max 4
scalar BGP_Topology_3.RC2.eth[0].queue.dataQueue queueLength:timeavg 2.231e-07
scalar BGP_Topology_3.RC2.eth[0].queue.dataQueue queueBitLength:last 0
scalar BGP_Topology_3.RC2.eth[0].queue.dataQueue queueBitLength:max 3808
scalar BGP_Topology_3.RC2.eth[0].queue.dataQueue queueBitLength:timeavg 0.00020335967999999998
scalar BGP_Topology_3.RC2.eth[0].queue.dataQueue outgoingPackets:count 150
scalar BGP_Topology_3.RC2.eth[0].queue.dataQueue outgoingPacketLengths:sum 107744
scalar BGP_Topology_3.RC2.eth[0].queue.dataQueue incomingPackets:count 150
scalar BGP_Topology_3.RC2.eth[0].queue.dataQueue incomingPacketLengths:sum 107744
scalar BGP_Topology_3.RC2.eth[0].queue.dataQueue droppedPacketsQueueOverflow:count 0
scalar BGP_Topology_3.RC2.eth[0].queue.dataQueue droppedPacketLengthsQueueOverflow:sum 0
scalar BGP_Topology_3.RC2.eth[0].queue.scheduler packets:count 150
scalar BGP_Topology_3.RC2.eth[0].queue.scheduler packetLengths:sum 107744
scalar BGP_Topology_3.RC2.eth[0].queue queueLength:last -150
scalar BGP_Topology_3.RC2.eth[0].queue queueLength:max 0
scalar BGP_Topology_3.RC2.eth[0].queue queueLength:timeavg -94.89088468300535
scalar BGP_Topology_3.RC2.eth[0].queue queueBitLength:last -107744
scalar BGP_Topology_3.RC2.eth[0].queue queueBitLength:max 0
scalar BGP_Topology_3.RC2.eth[0].queue queueBitLength:timeavg -70974.05602182973
scalar BGP_Topology_3.RC2.eth[0].queue outgoingPackets:count 150
scalar BGP_Topology_3.RC2.eth[0].queue outgoingPacketLengths:sum 107744
scalar BGP_Topology_3.RC2.eth[0].queue incomingPackets:count 0
scalar BGP_Topology_3.RC2.eth[0].queue incomingPacketLengths:sum 0
scalar BGP_Topology_3.RC2.eth[0].queue droppedPacketsQueueOverflow:count 0
scalar BGP_Topology_3.RC2.eth[0].queue droppedPacketLengthsQueueOverflow:sum 0
scalar BGP_Topology_3.RC2.eth[0].mac "simulated time" 1000
scalar BGP_Topology_3.RC2.eth[0].mac full-duplex 1
scalar BGP_Topology_3.RC2.eth[0].mac "frames/sec sent" 0.15
scalar BGP_Topology_3.RC2.eth[0].mac "frames/sec rcvd" 1.041
scalar BGP_Topology_3.RC2.eth[0].mac "bits/sec sent" 109.04
scalar BGP_Topology_3.RC2.eth[0].mac "bits/sec rcvd" 835.296
scalar BGP_Topology_3.RC2.eth[0].mac "rx channel idle (%)" 99.99909808000001
scalar BGP_Topology_3.RC2.eth[0].mac "rx channel utilization (%)" 0.00090192
scalar BGP_Topology_3.RC2.eth[0].mac rxPausePkUnits:count 0
scalar BGP_Topology_3.RC2.eth[0].mac rxPausePkUnits:sum 0
scalar BGP_Topology_3.RC2.eth[0].mac txPausePkUnits:count 0
scalar BGP_Topology_3.RC2.eth[0].mac txPausePkUnits:sum 0
scalar BGP_Topology_3.RC2.eth[0].mac rxPkOk:count 1041
scalar BGP_Topology_3.RC2.eth[0].mac rxPkOk:sum(packetBytes) 104412
scalar BGP_Topology_3.RC2.eth[0].mac txPk:count 150
scalar BGP_Topology_3.RC2.eth[0].mac txPk:sum(packetBytes) 13630
scalar BGP_Topology_3.RC2.eth[0].mac packetReceivedFromUpper:count 150
scalar BGP_Topology_3.RC2.eth[0].mac packetReceivedFromUpper:sum(packetBytes) 13468
scalar BGP_Topology_3.RC2.eth[0].mac passedUpPk:count 1041
scalar BGP_Topology_3.RC2.eth[0].mac passedUpPk:sum(packetBytes) 104412
scalar BGP_Topology_3.RC2.eth[0].mac packetDropIncorrectlyReceived:count 0
scalar BGP_Topology_3.RC2.eth[0].mac packetDropIncorrectlyReceived:sum(packetBytes) 0
scalar BGP_Topology_3.RC2.eth[0].mac packetDropInterfaceDown:count 0
scalar BGP_Topology_3.RC2.eth[0].mac packetDropInterfaceDown:sum(packetBytes) 0
scalar BGP_Topology_3.RC2.eth[0].mac packetDropNotAddressedToUs:count 0
scalar BGP_Topology_3.RC2.eth[0].mac packetDropNotAddressedToUs:sum(packetBytes) 0
scalar BGP_Topology_3.RC2.eth[0] packetDropInterfaceDown:count 0
scalar BGP_Topology_3.RC2.eth[0] packetDropInterfaceDown:sum(packetBytes) 0
scalar BGP_Topology_3.RC2.eth[0] packetDropNoCarrier:count 0
scalar BGP_Topology_3.RC2.eth[0] packetDropNoCarrier:sum(packetBytes) 0
scalar BGP_Topology_3.RC2.eth[1].queue.classifier packets:count 1046
scalar BGP_Topology_3.RC2.eth[1].queue.classifier packetLengths:sum 840256
scalar BGP_Topology_3.RC2.eth[1].queue.pauseQueue queueLength:last 0
scalar BGP_Topology_3.RC2.eth[1].queue.pauseQueue queueLength:max 0
scalar BGP_Topology_3.RC2.eth[1].queue.pauseQueue queueLength:timeavg 0
scalar BGP_Topology_3.RC2.eth[1].queue.pauseQueue queueBitLength:last 0
scalar BGP_Topology_3.RC2.eth[1].queue.pauseQueue queueBitLength:max 0
scalar BGP_Topology_3.RC2.eth[1].queue.pauseQueue queueBitLength:timeavg 0
scalar BGP_Topology_3.RC2.eth[1].queue.pauseQueue outgoingPackets:count 0
scalar BGP_Topology_3.RC2.eth[1].queue.pauseQueue outgoingPacketLengths:sum 0
scalar BGP_Topology_3.RC2.eth[1].queue.pauseQueue incomingPackets:count 0
scalar BGP_Topology_3.RC2.eth[1].queue.pauseQueue incomingPacketLengths:sum 0
scalar BGP_Topology_3.RC2.eth[1].queue.pauseQueue droppedPacketsQueueOverflow:count 0
scalar BGP_Topology_3.RC2.eth[1].queue.pauseQueue droppedPacketLengthsQueueOverflow:sum 0
scalar BGP_Topology_3.RC2.eth[1].queue.dataQueue queueLength:last 0
scalar BGP_Topology_3.RC2.eth[1].queue.dataQueue queueLength:max 2
scalar BGP_Topology_3.RC2.eth[1].queue.dataQueue queueLength:timeavg 1.0422e-07
scalar BGP_Topology_3.RC2.eth[1].queue.dataQueue queueBitLength:last 0
scalar BGP_Topology_3.RC2.eth[1].queue.dataQueue queueBitLength:max 1824
scalar BGP_Topology_3.RC2.eth[1].queue.dataQueue queueBitLength:timeavg 8.99856e-05
scalar BGP_Topology_3.RC2.eth[1].queue.dataQueue outgoingPackets:count 1046
scalar BGP_Topology_3.RC2.eth[1].queue.dataQueue outgoingPacketLengths:sum 840256
scalar BGP_Topology_3.RC2.eth[1].queue.dataQueue incomingPackets:count 1046
scalar BGP_Topology_3.RC2.eth[1].queue.dataQueue incomingPacketLengths:sum 840256
scalar BGP_Topology_3.RC2.eth[1].queue.dataQueue droppedPacketsQueueOverflow:count 0
scalar BGP_Topology_3.RC2.eth[1].queue.dataQueue droppedPacketLengthsQueueOverflow:sum 0
scalar BGP_Topology_3.RC2.eth[1].queue.scheduler packets:count 1046
scalar BGP_Topology_3.RC2.eth[1].queue.scheduler packetLengths:sum 840256
scalar BGP_Topology_3.RC2.eth[1].queue queueLength:last -1046
scalar BGP_Topology_3.RC2.eth[1].queue queueLength:max 0
scalar BGP_Topology_3.RC2.eth[1].queue queueLength:timeavg -496.5865576143147
scalar BGP_Topology_3.RC2.eth[1].queue queueBitLength:last -840256
scalar BGP_Topology_3.RC2.eth[1].queue queueBitLength:max 0
scalar BGP_Topology_3.RC2.eth[1].queue queueBitLength:timeavg -400131.36163040285
scalar BGP_Topology_3.RC2.eth[1].queue outgoingPackets:count 1046
scalar BGP_Topology_3.RC2.eth[1].queue outgoingPacketLengths:sum 840256
scalar BGP_Topology_3.RC2.eth[1].queue incomingPackets:count 0
scalar BGP_Topology_3.RC2.eth[1].queue incomingPacketLengths:sum 0
scalar BGP_Topology_3.RC2.eth[1].queue droppedPacketsQueueOverflow:count 0
scalar BGP_Topology_3.RC2.eth[1].queue droppedPacketLengthsQueueOverflow:sum 0
scalar BGP_Topology_3.RC2.eth[1].mac "simulated time" 1000
scalar BGP_Topology_3.RC2.eth[1].mac full-duplex 1
scalar BGP_Topology_3.RC2.eth[1].mac "frames/sec sent" 1.046
scalar BGP_Topology_3.RC2.eth[1].mac "frames/sec rcvd" 0.155
scalar BGP_Topology_3.RC2.eth[1].mac "bits/sec sent" 841.552
scalar BGP_Topology_3.RC2.eth[1].mac "bits/sec rcvd" 112.896
scalar BGP_Topology_3.RC2.eth[1].mac "rx channel idle (%)" 99.999877184
scalar BGP_Topology_3.RC2.eth[1].mac "rx channel utilization (%)" 0.00012281599999999998
scalar BGP_Topology_3.RC2.eth[1].mac rxPausePkUnits:count 0
scalar BGP_Topology_3.RC2.eth[1].mac rxPausePkUnits:sum 0
scalar BGP_Topology_3.RC2.eth[1].mac txPausePkUnits:count 0
scalar BGP_Topology_3.RC2.eth[1].mac txPausePkUnits:sum 0
scalar BGP_Topology_3.RC2.eth[1].mac rxPkOk:count 155
scalar BGP_Topology_3.RC2.eth[1].mac rxPkOk:sum(packetBytes) 14112
scalar BGP_Topology_3.RC2.eth[1].mac txPk:count 1046
scalar BGP_Topology_3.RC2.eth[1].mac txPk:sum(packetBytes) 105194
scalar BGP_Topology_3.RC2.eth[1].mac packetReceivedFromUpper:count 1046
scalar BGP_Topology_3.RC2.eth[1].mac packetReceivedFromUpper:sum(packetBytes) 105032
scalar BGP_Topology_3.RC2.eth[1].mac passedUpPk:count 155
scalar BGP_Topology_3.RC2.eth[1].mac passedUpPk:sum(packetBytes) 14112
scalar BGP_Topology_3.RC2.eth[1].mac packetDropIncorrectlyReceived:count 0
scalar BGP_Topology_3.RC2.eth[1].mac packetDropIncorrectlyReceived:sum(packetBytes) 0
scalar BGP_Topology_3.RC2.eth[1].mac packetDropInterfaceDown:count 0
scalar BGP_Topology_3.RC2.eth[1].mac packetDropInterfaceDown:sum(packetBytes) 0
scalar BGP_Topology_3.RC2.eth[1].mac packetDropNotAddressedToUs:count 0
scalar BGP_Topology_3.RC2.eth[1].mac packetDropNotAddressedToUs:sum(packetBytes) 0
scalar BGP_Topology_3.RC2.eth[1] packetDropInterfaceDown:count 0
scalar BGP_Topology_3.RC2.eth[1] packetDropInterfaceDown:sum(packetBytes) 0
scalar BGP_Topology_3.RC2.eth[1] packetDropNoCarrier:count 0
scalar BGP_Topology_3.RC2.eth[1] packetDropNoCarrier:sum(packetBytes) 0
scalar BGP_Topology_3.RC2.eth[2].queue.classifier packets:count 0
scalar BGP_Topology_3.RC2.eth[2].queue.classifier packetLengths:sum 0
scalar BGP_Topology_3.RC2.eth[2].queue.pauseQueue queueLength:last 0
scalar BGP_Topology_3.RC2.eth[2].queue.pauseQueue queueLength:max 0
scalar BGP_Topology_3.RC2.eth[2].queue.pauseQueue queueLength:timeavg 0
scalar BGP_Topology_3.RC2.eth[2].queue.pauseQueue queueBitLength:last 0
scalar BGP_Topology_3.RC2.eth[2].queue.pauseQueue queueBitLength:max 0
scalar BGP_Topology_3.RC2.eth[2].queue.pauseQueue queueBitLength:timeavg 0
scalar BGP_Topology_3.RC2.eth[2].queue.pauseQueue outgoingPackets:count 0
scalar BGP_Topology_3.RC2.eth[2].queue.pauseQueue outgoingPacketLengths:sum 0
scalar BGP_Topology_3.RC2.eth[2].queue.pauseQueue incomingPackets:count 0
scalar BGP_Topology_3.RC2.eth[2].queue.pauseQueue incomingPacketLengths:sum 0
scalar BGP_Topology_3.RC2.eth[2].queue.pauseQueue droppedPacketsQueueOverflow:count 0
scalar BGP_Topology_3.RC2.eth[2].queue.pauseQueue droppedPacketLengthsQueueOverflow:sum 0
scalar BGP_Topology_3.RC2.eth[2].queue.dataQueue queueLength:last 0
scalar BGP_Topology_3.RC2.eth[2].queue.dataQueue queueLength:max 0
scalar BGP_Topology_3.RC2.eth[2].queue.dataQueue queueLength:timeavg 0
scalar BGP_Topology_3.RC2.eth[2].queue.dataQueue queueBitLength:last 0
scalar BGP_Topology_3.RC2.eth[2].queue.dataQueue queueBitLength:max 0
scalar BGP_Topology_3.RC2.eth[2].queue.dataQueue queueBitLength:timeavg 0
scalar BGP_Topology_3.RC2.eth[2].queue.dataQueue outgoingPackets:count 0
scalar BGP_Topology_3.RC2.eth[2].queue.dataQueue outgoingPacketLengths:sum 0
scalar BGP_Topology_3.RC2.eth[2].queue.dataQueue incomingPackets:count 0
scalar BGP_Topology_3.RC2.eth[2].queue.dataQueue incomingPacketLengths:sum 0
scalar BGP_Topology_3.RC2.eth[2].queue.dataQueue droppedPacketsQueueOverflow:count 0
scalar BGP_Topology_3.RC2.eth[2].queue.dataQueue droppedPacketLengthsQueueOverflow:sum 0
scalar BGP_Topology_3.RC2.eth[2].queue.scheduler packets:count 0
scalar BGP_Topology_3.RC2.eth[2].queue.scheduler packetLengths:sum 0
scalar BGP_Topology_3.RC2.eth[2].queue queueLength:last 0
scalar BGP_Topology_3.RC2.eth[2].queue queueLength:max 0
scalar BGP_Topology_3.RC2.eth[2].queue queueLength:timeavg 0
scalar BGP_Topology_3.RC2.eth[2].queue queueBitLength:last 0
scalar BGP_Topology_3.RC2.eth[2].queue queueBitLength:max 0
scalar BGP_Topology_3.RC2.eth[2].queue queueBitLength:timeavg 0
scalar BGP_Topology_3.RC2.eth[2].queue outgoingPackets:count 0
scalar BGP_Topology_3.RC2.eth[2].queue outgoingPacketLengths:sum 0
scalar BGP_Topology_3.RC2.eth[2].queue incomingPackets:count 0
scalar BGP_Topology_3.RC2.eth[2].queue incomingPacketLengths:sum 0
scalar BGP_Topology_3.RC2.eth[2].queue droppedPacketsQueueOverflow:count 0
scalar BGP_Topology_3.RC2.eth[2].queue droppedPacketLengthsQueueOverflow:sum 0
scalar BGP_Topology_3.RC2.eth[2].mac "simulated time" 1000
scalar BGP_Topology_3.RC2.eth[2].mac full-duplex 1
scalar BGP_Topology_3.RC2.eth[2].mac "frames/sec sent" 0
scalar BGP_Topology_3.RC2.eth[2].mac "frames/sec rcvd" 0
scalar BGP_Topology_3.RC2.eth[2].mac "bits/sec sent" 0
scalar BGP_Topology_3.RC2.eth[2].mac "bits/sec rcvd" 0
scalar BGP_Topology_3.RC2.eth[2].mac "rx channel idle (%)" 100
scalar BGP_Topology_3.RC2.eth[2].mac "rx channel utilization (%)" 0
scalar BGP_Topology_3.RC2.eth[2].mac rxPausePkUnits:count 0
scalar BGP_Topology_3.RC2.eth[2].mac rxPausePkUnits:sum 0
scalar BGP_Topology_3.RC2.eth[2].mac txPausePkUnits:count 0
scalar BGP_Topology_3.RC2.eth[2].mac txPausePkUnits:sum 0
scalar BGP_Topology_3.RC2.eth[2].mac rxPkOk:count 0
scalar BGP_Topology_3.RC2.eth[2].mac rxPkOk:sum(packetBytes) 0
scalar BGP_Topology_3.RC2.eth[2].mac txPk:count 0
scalar BGP_Topology_3.RC2.eth[2].mac txPk:sum(packetBytes) 0
scalar BGP_Topology_3.RC2.eth[2].mac packetReceivedFromUpper:count 0
scalar BGP_Topology_3.RC2.eth[2].mac packetReceivedFromUpper:sum(packetBytes) 0
scalar BGP_Topology_3.RC2.eth[2].mac passedUpPk:count 0
scalar BGP_Topology_3.RC2.eth[2].mac passedUpPk:sum(packetBytes) 0
scalar BGP_Topology_3.RC2.eth[2].mac packetDropIncorrectlyReceived:count 0
scalar BGP_Topology_3.RC2.eth[2].mac packetDropIncorrectlyReceived:sum(packetBytes) 0
scalar BGP_Topology_3.RC2.eth[2].mac packetDropInterfaceDown:count 0
scalar BGP_Topology_3.RC2.eth[2].mac packetDropInterfaceDown:sum(packetBytes) 0
scalar BGP_Topology_3.RC2.eth[2].mac packetDropNotAddressedToUs:count 0
scalar BGP_Topology_3.RC2.eth[2].mac packetDropNotAddressedToUs:sum(packetBytes) 0
scalar BGP_Topology_3.RC2.eth[2] packetDropInterfaceDown:count 0
scalar BGP_Topology_3.RC2.eth[2] packetDropInterfaceDown:sum(packetBytes) 0
scalar BGP_Topology_3.RC2.eth[2] packetDropNoCarrier:count 0
scalar BGP_Topology_3.RC2.eth[2] packetDropNoCarrier:sum(packetBytes) 0
scalar BGP_Topology_3.RC2.ipv4.ip packetDropAddressResolutionFailed:count 0
scalar BGP_Topology_3.RC2.ipv4.ip packetDropAddressResolutionFailed:sum(packetBytes) 0
scalar BGP_Topology_3.RC2.ipv4.ip packetDropHopLimitReached:count 0
scalar BGP_Topology_3.RC2.ipv4.ip packetDropHopLimitReached:sum(packetBytes) 0
scalar BGP_Topology_3.RC2.ipv4.ip packetDropForwardingDisabled:count 0
scalar BGP_Topology_3.RC2.ipv4.ip packetDropForwardingDisabled:sum(packetBytes) 0
scalar BGP_Topology_3.RC2.ipv4.ip packetDropLifetimeExpired:count 0
scalar BGP_Topology_3.RC2.ipv4.ip packetDropLifetimeExpired:sum(packetBytes) 0
scalar BGP_Topology_3.RC2.ipv4.ip packetDropNoInterfaceFound:count 0
scalar BGP_Topology_3.RC2.ipv4.ip packetDropNoInterfaceFound:sum(packetBytes) 0
scalar BGP_Topology_3.RC2.ipv4.ip packetDropNoRouteFound:count 0
scalar BGP_Topology_3.RC2.ipv4.ip packetDropNoRouteFound:sum(packetBytes) 0
scalar BGP_Topology_3.RC2.ipv4.ip packetDropUndefined:count 0
scalar BGP_Topology_3.RC2.ipv4.ip packetDropUndefined:sum(packetBytes) 0
scalar BGP_Topology_3.RC2.ipv4.arp arpResolutionFailed:count 0
scalar BGP_Topology_3.RC2.ipv4.arp arpResolutionCompleted:count 18
scalar BGP_Topology_3.RC2.ipv4.arp arpResolutionInitiated:count 10
scalar BGP_Topology_3.RC2.ipv4.arp arpReplySent:count 8
scalar BGP_Topology_3.RC2.ipv4.arp arpReplySent:sum(packetBytes) 224
scalar BGP_Topology_3.RC2.ipv4.arp arpRequestSent:count 10
scalar BGP_Topology_3.RC2.ipv4.arp arpRequestSent:sum(packetBytes) 280
scalar BGP_Topology_3.RC3.ethernet pauseSent:count 0
scalar BGP_Topology_3.RC3.ethernet pauseSent:sum 0
scalar BGP_Topology_3.RC3.ethernet decapPk:count 1203
scalar BGP_Topology_3.RC3.ethernet decapPk:sum(packetBytes) 97636
scalar BGP_Topology_3.RC3.ethernet encapPk:count 1203
scalar BGP_Topology_3.RC3.ethernet encapPk:sum(packetBytes) 97440
scalar BGP_Topology_3.RC3.lo[0].lo rcvdPkFromHl:count 0
scalar BGP_Topology_3.RC3.lo[0].lo rcvdPkFromHl:sum(packetBytes) 0
scalar BGP_Topology_3.RC3.lo[0].lo passedUpPk:count 0
scalar BGP_Topology_3.RC3.lo[0].lo passedUpPk:sum(packetBytes) 0
scalar BGP_Topology_3.RC3.lo[0] packetDropInterfaceDown:count 0
scalar BGP_Topology_3.RC3.lo[0] packetDropInterfaceDown:sum(packetBytes) 0
scalar BGP_Topology_3.RC3.lo[0] packetDropNoCarrier:count 0
scalar BGP_Topology_3.RC3.lo[0] packetDropNoCarrier:sum(packetBytes) 0
scalar BGP_Topology_3.RC3.eth[0].queue.classifier packets:count 1055
scalar BGP_Topology_3.RC3.eth[0].queue.classifier packetLengths:sum 846672
scalar BGP_Topology_3.RC3.eth[0].queue.pauseQueue queueLength:last 0
scalar BGP_Topology_3.RC3.eth[0].queue.pauseQueue queueLength:max 0
scalar BGP_Topology_3.RC3.eth[0].queue.pauseQueue queueLength:timeavg 0
scalar BGP_Topology_3.RC3.eth[0].queue.pauseQueue queueBitLength:last 0
scalar BGP_Topology_3.RC3.eth[0].queue.pauseQueue queueBitLength:max 0
scalar BGP_Topology_3.RC3.eth[0].queue.pauseQueue queueBitLength:timeavg 0
scalar BGP_Topology_3.RC3.eth[0].queue.pauseQueue outgoingPackets:count 0
scalar BGP_Topology_3.RC3.eth[0].queue.pauseQueue outgoingPacketLengths:sum 0
scalar BGP_Topology_3.RC3.eth[0].queue.pauseQueue incomingPackets:count 0
scalar BGP_Topology_3.RC3.eth[0].queue.pauseQueue incomingPacketLengths:sum 0
scalar BGP_Topology_3.RC3.eth[0].queue.pauseQueue droppedPacketsQueueOverflow:count 0
scalar BGP_Topology_3.RC3.eth[0].queue.pauseQueue droppedPacketLengthsQueueOverflow:sum 0
scalar BGP_Topology_3.RC3.eth[0].queue.dataQueue queueLength:last 0
scalar BGP_Topology_3.RC3.eth[0].queue.dataQueue queueLength:max 4
scalar BGP_Topology_3.RC3.eth[0].queue.dataQueue queueLength:timeavg 3.0501999999999996e-07
scalar BGP_Topology_3.RC3.eth[0].queue.dataQueue queueBitLength:last 0
scalar BGP_Topology_3.RC3.eth[0].queue.dataQueue queueBitLength:max 3808
scalar BGP_Topology_3.RC3.eth[0].queue.dataQueue queueBitLength:timeavg 0.00026838432
scalar BGP_Topology_3.RC3.eth[0].queue.dataQueue outgoingPackets:count 1055
scalar BGP_Topology_3.RC3.eth[0].queue.dataQueue outgoingPacketLengths:sum 846672
scalar BGP_Topology_3.RC3.eth[0].queue.dataQueue incomingPackets:count 1055
scalar BGP_Topology_3.RC3.eth[0].queue.dataQueue incomingPacketLengths:sum 846672
scalar BGP_Topology_3.RC3.eth[0].queue.dataQueue droppedPacketsQueueOverflow:count 0
scalar BGP_Topology_3.RC3.eth[0].queue.dataQueue droppedPacketLengthsQueueOverflow:sum 0
scalar BGP_Topology_3.RC3.eth[0].queue.scheduler packets:count 1055
scalar BGP_Topology_3.RC3.eth[0].queue.scheduler packetLengths:sum 846672
scalar BGP_Topology_3.RC3.eth[0].queue queueLength:last -1055
scalar BGP_Topology_3.RC3.eth[0].queue queueLength:max 0
scalar BGP_Topology_3.RC3.eth[0].queue queueLength:timeavg -505.116453757939
scalar BGP_Topology_3.RC3.eth[0].queue queueBitLength:last -846672
scalar BGP_Topology_3.RC3.eth[0].queue queueBitLength:max 0
scalar BGP_Topology_3.RC3.eth[0].queue queueBitLength:timeavg -406161.6871140528
scalar BGP_Topology_3.RC3.eth[0].queue outgoingPackets:count 1055
scalar BGP_Topology_3.RC3.eth[0].queue outgoingPacketLengths:sum 846672
scalar BGP_Topology_3.RC3.eth[0].queue incomingPackets:count 0
scalar BGP_Topology_3.RC3.eth[0].queue incomingPacketLengths:sum 0
scalar BGP_Topology_3.RC3.eth[0].queue droppedPacketsQueueOverflow:count 0
scalar BGP_Topology_3.RC3.eth[0].queue droppedPacketLengthsQueueOverflow:sum 0
scalar BGP_Topology_3.RC3.eth[0].mac "simulated time" 1000
scalar BGP_Topology_3.RC3.eth[0].mac full-duplex 1
scalar BGP_Topology_3.RC3.eth[0].mac "frames/sec sent" 1.055
scalar BGP_Topology_3.RC3.eth[0].mac "frames/sec rcvd" 0.151
scalar BGP_Topology_3.RC3.eth[0].mac "bits/sec sent" 847.968
scalar BGP_Topology_3.RC3.eth[0].mac "bits/sec rcvd" 108.384
scalar BGP_Topology_3.RC3.eth[0].mac "rx channel idle (%)" 99.99988195200001
scalar BGP_Topology_3.RC3.eth[0].mac "rx channel utilization (%)" 0.000118048
scalar BGP_Topology_3.RC3.eth[0].mac rxPausePkUnits:count 0
scalar BGP_Topology_3.RC3.eth[0].mac rxPausePkUnits:sum 0
scalar BGP_Topology_3.RC3.eth[0].mac txPausePkUnits:count 0
scalar BGP_Topology_3.RC3.eth[0].mac txPausePkUnits:sum 0
scalar BGP_Topology_3.RC3.eth[0].mac rxPkOk:count 151
scalar BGP_Topology_3.RC3.eth[0].mac rxPkOk:sum(packetBytes) 13548
scalar BGP_Topology_3.RC3.eth[0].mac txPk:count 1055
scalar BGP_Topology_3.RC3.eth[0].mac txPk:sum(packetBytes) 105996
scalar BGP_Topology_3.RC3.eth[0].mac packetReceivedFromUpper:count 1055
scalar BGP_Topology_3.RC3.eth[0].mac packetReceivedFromUpper:sum(packetBytes) 105834
scalar BGP_Topology_3.RC3.eth[0].mac passedUpPk:count 151
scalar BGP_Topology_3.RC3.eth[0].mac passedUpPk:sum(packetBytes) 13548
scalar BGP_Topology_3.RC3.eth[0].mac packetDropIncorrectlyReceived:count 0
scalar BGP_Topology_3.RC3.eth[0].mac packetDropIncorrectlyReceived:sum(packetBytes) 0
scalar BGP_Topology_3.RC3.eth[0].mac packetDropInterfaceDown:count 0
scalar BGP_Topology_3.RC3.eth[0].mac packetDropInterfaceDown:sum(packetBytes) 0
scalar BGP_Topology_3.RC3.eth[0].mac packetDropNotAddressedToUs:count 0
scalar BGP_Topology_3.RC3.eth[0].mac packetDropNotAddressedToUs:sum(packetBytes) 0
scalar BGP_Topology_3.RC3.eth[0] packetDropInterfaceDown:count 0
scalar BGP_Topology_3.RC3.eth[0] packetDropInterfaceDown:sum(packetBytes) 0
scalar BGP_Topology_3.RC3.eth[0] packetDropNoCarrier:count 0
scalar BGP_Topology_3.RC3.eth[0] packetDropNoCarrier:sum(packetBytes) 0
scalar BGP_Topology_3.RC3.eth[1].queue.classifier packets:count 148
scalar BGP_Topology_3.RC3.eth[1].queue.classifier packetLengths:sum 106080
scalar BGP_Topology_3.RC3.eth[1].queue.pauseQueue queueLength:last 0
scalar BGP_Topology_3.RC3.eth[1].queue.pauseQueue queueLength:max 0
scalar BGP_Topology_3.RC3.eth[1].queue.pauseQueue queueLength:timeavg 0
scalar BGP_Topology_3.RC3.eth[1].queue.pauseQueue queueBitLength:last 0
scalar BGP_Topology_3.RC3.eth[1].queue.pauseQueue queueBitLength:max 0
scalar BGP_Topology_3.RC3.eth[1].queue.pauseQueue queueBitLength:timeavg 0
scalar BGP_Topology_3.RC3.eth[1].queue.pauseQueue outgoingPackets:count 0
scalar BGP_Topology_3.RC3.eth[1].queue.pauseQueue outgoingPacketLengths:sum 0
scalar BGP_Topology_3.RC3.eth[1].queue.pauseQueue incomingPackets:count 0
scalar BGP_Topology_3.RC3.eth[1].queue.pauseQueue incomingPacketLengths:sum 0
scalar BGP_Topology_3.RC3.eth[1].queue.pauseQueue droppedPacketsQueueOverflow:count 0
scalar BGP_Topology_3.RC3.eth[1].queue.pauseQueue droppedPacketLengthsQueueOverflow:sum 0
scalar BGP_Topology_3.RC3.eth[1].queue.dataQueue queueLength:last 0
scalar BGP_Topology_3.RC3.eth[1].queue.dataQueue queueLength:max 2
scalar BGP_Topology_3.RC3.eth[1].queue.dataQueue queueLength:timeavg 1.8992e-07
scalar BGP_Topology_3.RC3.eth[1].queue.dataQueue queueBitLength:last 0
scalar BGP_Topology_3.RC3.eth[1].queue.dataQueue queueBitLength:max 2016
scalar BGP_Topology_3.RC3.eth[1].queue.dataQueue queueBitLength:timeavg 0.0001647488
scalar BGP_Topology_3.RC3.eth[1].queue.dataQueue outgoingPackets:count 148
scalar BGP_Topology_3.RC3.eth[1].queue.dataQueue outgoingPacketLengths:sum 106080
scalar BGP_Topology_3.RC3.eth[1].queue.dataQueue incomingPackets:count 148
scalar BGP_Topology_3.RC3.eth[1].queue.dataQueue incomingPacketLengths:sum 106080
scalar BGP_Topology_3.RC3.eth[1].queue.dataQueue droppedPacketsQueueOverflow:count 0
scalar BGP_Topology_3.RC3.eth[1].queue.dataQueue droppedPacketLengthsQueueOverflow:sum 0
scalar BGP_Topology_3.RC3.eth[1].queue.scheduler packets:count 148
scalar BGP_Topology_3.RC3.eth[1].queue.scheduler packetLengths:sum 106080
scalar BGP_Topology_3.RC3.eth[1].queue queueLength:last -148
scalar BGP_Topology_3.RC3.eth[1].queue queueLength:max 0
scalar BGP_Topology_3.RC3.eth[1].queue queueLength:timeavg -92.83879748850408
scalar BGP_Topology_3.RC3.eth[1].queue queueBitLength:last -106080
scalar BGP_Topology_3.RC3.eth[1].queue queueBitLength:max 0
scalar BGP_Topology_3.RC3.eth[1].queue queueBitLength:timeavg -69278.77742314574
scalar BGP_Topology_3.RC3.eth[1].queue outgoingPackets:count 148
scalar BGP_Topology_3.RC3.eth[1].queue outgoingPacketLengths:sum 106080
scalar BGP_Topology_3.RC3.eth[1].queue incomingPackets:count 0
scalar BGP_Topology_3.RC3.eth[1].queue incomingPacketLengths:sum 0
scalar BGP_Topology_3.RC3.eth[1].queue droppedPacketsQueueOverflow:count 0
scalar BGP_Topology_3.RC3.eth[1].queue droppedPacketLengthsQueueOverflow:sum 0
scalar BGP_Topology_3.RC3.eth[1].mac "simulated time" 1000
scalar BGP_Topology_3.RC3.eth[1].mac full-duplex 1
scalar BGP_Topology_3.RC3.eth[1].mac "frames/sec sent" 0.148
scalar BGP_Topology_3.RC3.eth[1].mac "frames/sec rcvd" 1.052
scalar BGP_Topology_3.RC3.eth[1].mac "bits/sec sent" 107.376
scalar BGP_Topology_3.RC3.eth[1].mac "bits/sec rcvd" 845.936
scalar BGP_Topology_3.RC3.eth[1].mac "rx channel idle (%)" 99.999086736
scalar BGP_Topology_3.RC3.eth[1].mac "rx channel utilization (%)" 0.0009132640000000001
scalar BGP_Topology_3.RC3.eth[1].mac rxPausePkUnits:count 0
scalar BGP_Topology_3.RC3.eth[1].mac rxPausePkUnits:sum 0
scalar BGP_Topology_3.RC3.eth[1].mac txPausePkUnits:count 0
scalar BGP_Topology_3.RC3.eth[1].mac txPausePkUnits:sum 0
scalar BGP_Topology_3.RC3.eth[1].mac rxPkOk:count 1052
scalar BGP_Topology_3.RC3.eth[1].mac rxPkOk:sum(packetBytes) 105742
scalar BGP_Topology_3.RC3.eth[1].mac txPk:count 148
scalar BGP_Topology_3.RC3.eth[1].mac txPk:sum(packetBytes) 13422
scalar BGP_Topology_3.RC3.eth[1].mac packetReceivedFromUpper:count 148
scalar BGP_Topology_3.RC3.eth[1].mac packetReceivedFromUpper:sum(packetBytes) 13260
scalar BGP_Topology_3.RC3.eth[1].mac passedUpPk:count 1052
scalar BGP_Topology_3.RC3.eth[1].mac passedUpPk:sum(packetBytes) 105742
scalar BGP_Topology_3.RC3.eth[1].mac packetDropIncorrectlyReceived:count 0
scalar BGP_Topology_3.RC3.eth[1].mac packetDropIncorrectlyReceived:sum(packetBytes) 0
scalar BGP_Topology_3.RC3.eth[1].mac packetDropInterfaceDown:count 0
scalar BGP_Topology_3.RC3.eth[1].mac packetDropInterfaceDown:sum(packetBytes) 0
scalar BGP_Topology_3.RC3.eth[1].mac packetDropNotAddressedToUs:count 0
scalar BGP_Topology_3.RC3.eth[1].mac packetDropNotAddressedToUs:sum(packetBytes) 0
scalar BGP_Topology_3.RC3.eth[1] packetDropInterfaceDown:count 0
scalar BGP_Topology_3.RC3.eth[1] packetDropInterfaceDown:sum(packetBytes) 0
scalar BGP_Topology_3.RC3.eth[1] packetDropNoCarrier:count 0
scalar BGP_Topology_3.RC3.eth[1] packetDropNoCarrier:sum(packetBytes) 0
scalar BGP_Topology_3.RC3.eth[2].queue.classifier packets:count 0
scalar BGP_Topology_3.RC3.eth[2].queue.classifier packetLengths:sum 0
scalar BGP_Topology_3.RC3.eth[2].queue.pauseQueue queueLength:last 0
scalar BGP_Topology_3.RC3.eth[2].queue.pauseQueue queueLength:max 0
scalar BGP_Topology_3.RC3.eth[2].queue.pauseQueue queueLength:timeavg 0
scalar BGP_Topology_3.RC3.eth[2].queue.pauseQueue queueBitLength:last 0
scalar BGP_Topology_3.RC3.eth[2].queue.pauseQueue queueBitLength:max 0
scalar BGP_Topology_3.RC3.eth[2].queue.pauseQueue queueBitLength:timeavg 0
scalar BGP_Topology_3.RC3.eth[2].queue.pauseQueue outgoingPackets:count 0
scalar BGP_Topology_3.RC3.eth[2].queue.pauseQueue outgoingPacketLengths:sum 0
scalar BGP_Topology_3.RC3.eth[2].queue.pauseQueue incomingPackets:count 0
scalar BGP_Topology_3.RC3.eth[2].queue.pauseQueue incomingPacketLengths:sum 0
scalar BGP_Topology_3.RC3.eth[2].queue.pauseQueue droppedPacketsQueueOverflow:count 0
scalar BGP_Topology_3.RC3.eth[2].queue.pauseQueue droppedPacketLengthsQueueOverflow:sum 0
scalar BGP_Topology_3.RC3.eth[2].queue.dataQueue queueLength:last 0
scalar BGP_Topology_3.RC3.eth[2].queue.dataQueue queueLength:max 0
scalar BGP_Topology_3.RC3.eth[2].queue.dataQueue queueLength:timeavg 0
scalar BGP_Topology_3.RC3.eth[2].queue.dataQueue queueBitLength:last 0
scalar BGP_Topology_3.RC3.eth[2].queue.dataQueue queueBitLength:max 0
scalar BGP_Topology_3.RC3.eth[2].queue.dataQueue queueBitLength:timeavg 0
scalar BGP_Topology_3.RC3.eth[2].queue.dataQueue outgoingPackets:count 0
scalar BGP_Topology_3.RC3.eth[2].queue.dataQueue outgoingPacketLengths:sum 0
scalar BGP_Topology_3.RC3.eth[2].queue.dataQueue incomingPackets:count 0
scalar BGP_Topology_3.RC3.eth[2].queue.dataQueue incomingPacketLengths:sum 0
scalar BGP_Topology_3.RC3.eth[2].queue.dataQueue droppedPacketsQueueOverflow:count 0
scalar BGP_Topology_3.RC3.eth[2].queue.dataQueue droppedPacketLengthsQueueOverflow:sum 0
scalar BGP_Topology_3.RC3.eth[2].queue.scheduler packets:count 0
scalar BGP_Topology_3.RC3.eth[2].queue.scheduler packetLengths:sum 0
scalar BGP_Topology_3.RC3.eth[2].queue queueLength:last 0
scalar BGP_Topology_3.RC3.eth[2].queue queueLength:max 0
scalar BGP_Topology_3.RC3.eth[2].queue queueLength:timeavg 0
scalar BGP_Topology_3.RC3.eth[2].queue queueBitLength:last 0
scalar BGP_Topology_3.RC3.eth[2].queue queueBitLength:max 0
scalar BGP_Topology_3.RC3.eth[2].queue queueBitLength:timeavg 0
scalar BGP_Topology_3.RC3.eth[2].queue outgoingPackets:count 0
scalar BGP_Topology_3.RC3.eth[2].queue outgoingPacketLengths:sum 0
scalar BGP_Topology_3.RC3.eth[2].queue incomingPackets:count 0
scalar BGP_Topology_3.RC3.eth[2].queue incomingPacketLengths:sum 0
scalar BGP_Topology_3.RC3.eth[2].queue droppedPacketsQueueOverflow:count 0
scalar BGP_Topology_3.RC3.eth[2].queue droppedPacketLengthsQueueOverflow:sum 0
scalar BGP_Topology_3.RC3.eth[2].mac "simulated time" 1000
scalar BGP_Topology_3.RC3.eth[2].mac full-duplex 1
scalar BGP_Topology_3.RC3.eth[2].mac "frames/sec sent" 0
scalar BGP_Topology_3.RC3.eth[2].mac "frames/sec rcvd" 0
scalar BGP_Topology_3.RC3.eth[2].mac "bits/sec sent" 0
scalar BGP_Topology_3.RC3.eth[2].mac "bits/sec rcvd" 0
scalar BGP_Topology_3.RC3.eth[2].mac "rx channel idle (%)" 100
scalar BGP_Topology_3.RC3.eth[2].mac "rx channel utilization (%)" 0
scalar BGP_Topology_3.RC3.eth[2].mac rxPausePkUnits:count 0
scalar BGP_Topology_3.RC3.eth[2].mac rxPausePkUnits:sum 0
scalar BGP_Topology_3.RC3.eth[2].mac txPausePkUnits:count 0
scalar BGP_Topology_3.RC3.eth[2].mac txPausePkUnits:sum 0
scalar BGP_Topology_3.RC3.eth[2].mac rxPkOk:count 0
scalar BGP_Topology_3.RC3.eth[2].mac rxPkOk:sum(packetBytes) 0
scalar BGP_Topology_3.RC3.eth[2].mac txPk:count 0
scalar BGP_Topology_3.RC3.eth[2].mac txPk:sum(packetBytes) 0
scalar BGP_Topology_3.RC3.eth[2].mac packetReceivedFromUpper:count 0
scalar BGP_Topology_3.RC3.eth[2].mac packetReceivedFromUpper:sum(packetBytes) 0
scalar BGP_Topology_3.RC3.eth[2].mac passedUpPk:count 0
scalar BGP_Topology_3.RC3.eth[2].mac passedUpPk:sum(packetBytes) 0
scalar BGP_Topology_3.RC3.eth[2].mac packetDropIncorrectlyReceived:count 0
scalar BGP_Topology_3.RC3.eth[2].mac packetDropIncorrectlyReceived:sum(packetBytes) 0
scalar BGP_Topology_3.RC3.eth[2].mac packetDropInterfaceDown:count 0
scalar BGP_Topology_3.RC3.eth[2].mac packetDropInterfaceDown:sum(packetBytes) 0
scalar BGP_Topology_3.RC3.eth[2].mac packetDropNotAddressedToUs:count 0
scalar BGP_Topology_3.RC3.eth[2].mac packetDropNotAddressedToUs:sum(packetBytes) 0
scalar BGP_Topology_3.RC3.eth[2] packetDropInterfaceDown:count 0
scalar BGP_Topology_3.RC3.eth[2] packetDropInterfaceDown:sum(packetBytes) 0
scalar BGP_Topology_3.RC3.eth[2] packetDropNoCarrier:count 0
scalar BGP_Topology_3.RC3.eth[2] packetDropNoCarrier:sum(packetBytes) 0
scalar BGP_Topology_3.RC3.ipv4.ip packetDropAddressResolutionFailed:count 0
scalar BGP_Topology_3.RC3.ipv4.ip packetDropAddressResolutionFailed:sum(packetBytes) 0
scalar BGP_Topology_3.RC3.ipv4.ip packetDropHopLimitReached:count 0
scalar BGP_Topology_3.RC3.ipv4.ip packetDropHopLimitReached:sum(packetBytes) 0
scalar BGP_Topology_3.RC3.ipv4.ip packetDropForwardingDisabled:count 0
scalar BGP_Topology_3.RC3.ipv4.ip packetDropForwardingDisabled:sum(packetBytes) 0
scalar BGP_Topology_3.RC3.ipv4.ip packetDropLifetimeExpired:count 0
scalar BGP_Topology_3.RC3.ipv4.ip packetDropLifetimeExpired:sum(packetBytes) 0
scalar BGP_Topology_3.RC3.ipv4.ip packetDropNoInterfaceFound:count 0
scalar BGP_Topology_3.RC3.ipv4.ip packetDropNoInterfaceFound:sum(packetBytes) 0
scalar BGP_Topology_3.RC3.ipv4.ip packetDropNoRouteFound:count 0
scalar BGP_Topology_3.RC3.ipv4.ip packetDropNoRouteFound:sum(packetBytes) 0
scalar BGP_Topology_3.RC3.ipv4.ip packetDropUndefined:count 0
scalar BGP_Topology_3.RC3.ipv4.ip packetDropUndefined:sum(packetBytes) 0
scalar BGP_Topology_3.RC3.ipv4.arp arpResolutionFailed:count 0
scalar BGP_Topology_3.RC3.ipv4.arp arpResolutionCompleted:count 18
scalar BGP_Topology_3.RC3.ipv4.arp arpResolutionInitiated:count 9
scalar BGP_Topology_3.RC3.ipv4.arp arpReplySent:count 9
scalar BGP_Topology_3.RC3.ipv4.arp arpReplySent:sum(packetBytes) 252
scalar BGP_Topology_3.RC3.ipv4.arp arpRequestSent:count 9
scalar BGP_Topology_3.RC3.ipv4.arp arpRequestSent:sum(packetBytes) 252
scalar BGP_Topology_3.RB1.ethernet pauseSent:count 0
scalar BGP_Topology_3.RB1.ethernet pauseSent:sum 0
scalar BGP_Topology_3.RB1.ethernet decapPk:count 2045
scalar BGP_Topology_3.RB1.ethernet decapPk:sum(packetBytes) 167561
scalar BGP_Topology_3.RB1.ethernet encapPk:count 2035
scalar BGP_Topology_3.RB1.ethernet encapPk:sum(packetBytes) 166162
scalar BGP_Topology_3.RB1.lo[0].lo rcvdPkFromHl:count 0
scalar BGP_Topology_3.RB1.lo[0].lo rcvdPkFromHl:sum(packetBytes) 0
scalar BGP_Topology_3.RB1.lo[0].lo passedUpPk:count 0
scalar BGP_Topology_3.RB1.lo[0].lo passedUpPk:sum(packetBytes) 0
scalar BGP_Topology_3.RB1.lo[0] packetDropInterfaceDown:count 0
scalar BGP_Topology_3.RB1.lo[0] packetDropInterfaceDown:sum(packetBytes) 0
scalar BGP_Topology_3.RB1.lo[0] packetDropNoCarrier:count 0
scalar BGP_Topology_3.RB1.lo[0] packetDropNoCarrier:sum(packetBytes) 0
scalar BGP_Topology_3.RB1.eth[0].queue.classifier packets:count 950
scalar BGP_Topology_3.RB1.eth[0].queue.classifier packetLengths:sum 762856
scalar BGP_Topology_3.RB1.eth[0].queue.pauseQueue queueLength:last 0
scalar BGP_Topology_3.RB1.eth[0].queue.pauseQueue queueLength:max 0
scalar BGP_Topology_3.RB1.eth[0].queue.pauseQueue queueLength:timeavg 0
scalar BGP_Topology_3.RB1.eth[0].queue.pauseQueue queueBitLength:last 0
scalar BGP_Topology_3.RB1.eth[0].queue.pauseQueue queueBitLength:max 0
scalar BGP_Topology_3.RB1.eth[0].queue.pauseQueue queueBitLength:timeavg 0
scalar BGP_Topology_3.RB1.eth[0].queue.pauseQueue outgoingPackets:count 0
scalar BGP_Topology_3.RB1.eth[0].queue.pauseQueue outgoingPacketLengths:sum 0
scalar BGP_Topology_3.RB1.eth[0].queue.pauseQueue incomingPackets:count 0
scalar BGP_Topology_3.RB1.eth[0].queue.pauseQueue incomingPacketLengths:sum 0
scalar BGP_Topology_3.RB1.eth[0].queue.pauseQueue droppedPacketsQueueOverflow:count 0
scalar BGP_Topology_3.RB1.eth[0].queue.pauseQueue droppedPacketLengthsQueueOverflow:sum 0
scalar BGP_Topology_3.RB1.eth[0].queue.dataQueue queueLength:last 0
scalar BGP_Topology_3.RB1.eth[0].queue.dataQueue queueLength:max 1
scalar BGP_Topology_3.RB1.eth[0].queue.dataQueue queueLength:timeavg 2.8479999999999998e-08
scalar BGP_Topology_3.RB1.eth[0].queue.dataQueue queueBitLength:last 0
scalar BGP_Topology_3.RB1.eth[0].queue.dataQueue queueBitLength:max 1200
scalar BGP_Topology_3.RB1.eth[0].queue.dataQueue queueBitLength:timeavg 1.564496e-05
scalar BGP_Topology_3.RB1.eth[0].queue.dataQueue outgoingPackets:count 950
scalar BGP_Topology_3.RB1.eth[0].queue.dataQueue outgoingPacketLengths:sum 762856
scalar BGP_Topology_3.RB1.eth[0].queue.dataQueue incomingPackets:count 950
scalar BGP_Topology_3.RB1.eth[0].queue.dataQueue incomingPacketLengths:sum 762856
scalar BGP_Topology_3.RB1.eth[0].queue.dataQueue droppedPacketsQueueOverflow:count 0
scalar BGP_Topology_3.RB1.eth[0].queue.dataQueue droppedPacketLengthsQueueOverflow:sum 0
scalar BGP_Topology_3.RB1.eth[0].queue.scheduler packets:count 950
scalar BGP_Topology_3.RB1.eth[0].queue.scheduler packetLengths:sum 762856
scalar BGP_Topology_3.RB1.eth[0].queue queueLength:last -950
scalar BGP_Topology_3.RB1.eth[0].queue queueLength:max 0
scalar BGP_Topology_3.RB1.eth[0].queue queueLength:timeavg -434.24384503198
scalar BGP_Topology_3.RB1.eth[0].queue queueBitLength:last -762856
scalar BGP_Topology_3.RB1.eth[0].queue queueBitLength:max 0
scalar BGP_Topology_3.RB1.eth[0].queue queueBitLength:timeavg -348391.1098214384
scalar BGP_Topology_3.RB1.eth[0].queue outgoingPackets:count 950
scalar BGP_Topology_3.RB1.eth[0].queue outgoingPacketLengths:sum 762856
scalar BGP_Topology_3.RB1.eth[0].queue incomingPackets:count 0
scalar BGP_Topology_3.RB1.eth[0].queue incomingPacketLengths:sum 0
scalar BGP_Topology_3.RB1.eth[0].queue droppedPacketsQueueOverflow:count 0
scalar BGP_Topology_3.RB1.eth[0].queue droppedPacketLengthsQueueOverflow:sum 0
scalar BGP_Topology_3.RB1.eth[0].mac "simulated time" 1000
scalar BGP_Topology_3.RB1.eth[0].mac full-duplex 1
scalar BGP_Topology_3.RB1.eth[0].mac "frames/sec sent" 0.95
scalar BGP_Topology_3.RB1.eth[0].mac "frames/sec rcvd" 0.949
scalar BGP_Topology_3.RB1.eth[0].mac "bits/sec sent" 765.128
scalar BGP_Topology_3.RB1.eth[0].mac "bits/sec rcvd" 763.864
scalar BGP_Topology_3.RB1.eth[0].mac "rx channel idle (%)" 99.9991754
scalar BGP_Topology_3.RB1.eth[0].mac "rx channel utilization (%)" 0.0008246
scalar BGP_Topology_3.RB1.eth[0].mac rxPausePkUnits:count 0
scalar BGP_Topology_3.RB1.eth[0].mac rxPausePkUnits:sum 0
scalar BGP_Topology_3.RB1.eth[0].mac txPausePkUnits:count 0
scalar BGP_Topology_3.RB1.eth[0].mac txPausePkUnits:sum 0
scalar BGP_Topology_3.RB1.eth[0].mac rxPkOk:count 949
scalar BGP_Topology_3.RB1.eth[0].mac rxPkOk:sum(packetBytes) 95483
scalar BGP_Topology_3.RB1.eth[0].mac txPk:count 950
scalar BGP_Topology_3.RB1.eth[0].mac txPk:sum(packetBytes) 95641
scalar BGP_Topology_3.RB1.eth[0].mac packetReceivedFromUpper:count 950
scalar BGP_Topology_3.RB1.eth[0].mac packetReceivedFromUpper:sum(packetBytes) 95357
scalar BGP_Topology_3.RB1.eth[0].mac passedUpPk:count 949
scalar BGP_Topology_3.RB1.eth[0].mac passedUpPk:sum(packetBytes) 95483
scalar BGP_Topology_3.RB1.eth[0].mac packetDropIncorrectlyReceived:count 0
scalar BGP_Topology_3.RB1.eth[0].mac packetDropIncorrectlyReceived:sum(packetBytes) 0
scalar BGP_Topology_3.RB1.eth[0].mac packetDropInterfaceDown:count 0
scalar BGP_Topology_3.RB1.eth[0].mac packetDropInterfaceDown:sum(packetBytes) 0
scalar BGP_Topology_3.RB1.eth[0].mac packetDropNotAddressedToUs:count 0
scalar BGP_Topology_3.RB1.eth[0].mac packetDropNotAddressedToUs:sum(packetBytes) 0
scalar BGP_Topology_3.RB1.eth[0] packetDropInterfaceDown:count 0
scalar BGP_Topology_3.RB1.eth[0] packetDropInterfaceDown:sum(packetBytes) 0
scalar BGP_Topology_3.RB1.eth[0] packetDropNoCarrier:count 0
scalar BGP_Topology_3.RB1.eth[0] packetDropNoCarrier:sum(packetBytes) 0
scalar BGP_Topology_3.RB1.eth[1].queue.classifier packets:count 1085
scalar BGP_Topology_3.RB1.eth[1].queue.classifier packetLengths:sum 859480
scalar BGP_Topology_3.RB1.eth[1].queue.pauseQueue queueLength:last 0
scalar BGP_Topology_3.RB1.eth[1].queue.pauseQueue queueLength:max 0
scalar BGP_Topology_3.RB1.eth[1].queue.pauseQueue queueLength:timeavg 0
scalar BGP_Topology_3.RB1.eth[1].queue.pauseQueue queueBitLength:last 0
scalar BGP_Topology_3.RB1.eth[1].queue.pauseQueue queueBitLength:max 0
scalar BGP_Topology_3.RB1.eth[1].queue.pauseQueue queueBitLength:timeavg 0
scalar BGP_Topology_3.RB1.eth[1].queue.pauseQueue outgoingPackets:count 0
scalar BGP_Topology_3.RB1.eth[1].queue.pauseQueue outgoingPacketLengths:sum 0
scalar BGP_Topology_3.RB1.eth[1].queue.pauseQueue incomingPackets:count 0
scalar BGP_Topology_3.RB1.eth[1].queue.pauseQueue incomingPacketLengths:sum 0
scalar BGP_Topology_3.RB1.eth[1].queue.pauseQueue droppedPacketsQueueOverflow:count 0
scalar BGP_Topology_3.RB1.eth[1].queue.pauseQueue droppedPacketLengthsQueueOverflow:sum 0
scalar BGP_Topology_3.RB1.eth[1].queue.dataQueue queueLength:last 0
scalar BGP_Topology_3.RB1.eth[1].queue.dataQueue queueLength:max 6
scalar BGP_Topology_3.RB1.eth[1].queue.dataQueue queueLength:timeavg 4.5605e-07
scalar BGP_Topology_3.RB1.eth[1].queue.dataQueue queueBitLength:last 0
scalar BGP_Topology_3.RB1.eth[1].queue.dataQueue queueBitLength:max 4896
scalar BGP_Topology_3.RB1.eth[1].queue.dataQueue queueBitLength:timeavg 0.000335486
scalar BGP_Topology_3.RB1.eth[1].queue.dataQueue outgoingPackets:count 1085
scalar BGP_Topology_3.RB1.eth[1].queue.dataQueue outgoingPacketLengths:sum 859480
scalar BGP_Topology_3.RB1.eth[1].queue.dataQueue incomingPackets:count 1085
scalar BGP_Topology_3.RB1.eth[1].queue.dataQueue incomingPacketLengths:sum 859480
scalar BGP_Topology_3.RB1.eth[1].queue.dataQueue droppedPacketsQueueOverflow:count 0
scalar BGP_Topology_3.RB1.eth[1].queue.dataQueue droppedPacketLengthsQueueOverflow:sum 0
scalar BGP_Topology_3.RB1.eth[1].queue.scheduler packets:count 1085
scalar BGP_Topology_3.RB1.eth[1].queue.scheduler packetLengths:sum 859480
scalar BGP_Topology_3.RB1.eth[1].queue queueLength:last -1085
scalar BGP_Topology_3.RB1.eth[1].queue queueLength:max 0
scalar BGP_Topology_3.RB1.eth[1].queue queueLength:timeavg -518.0246670996083
scalar BGP_Topology_3.RB1.eth[1].queue queueBitLength:last -859480
scalar BGP_Topology_3.RB1.eth[1].queue queueBitLength:max 0
scalar BGP_Topology_3.RB1.eth[1].queue queueBitLength:timeavg -409614.76206120354
scalar BGP_Topology_3.RB1.eth[1].queue outgoingPackets:count 1085
scalar BGP_Topology_3.RB1.eth[1].queue outgoingPacketLengths:sum 859480
scalar BGP_Topology_3.RB1.eth[1].queue incomingPackets:count 0
scalar BGP_Topology_3.RB1.eth[1].queue incomingPacketLengths:sum 0
scalar BGP_Topology_3.RB1.eth[1].queue droppedPacketsQueueOverflow:count 0
scalar BGP_Topology_3.RB1.eth[1].queue droppedPacketLengthsQueueOverflow:sum 0
scalar BGP_Topology_3.RB1.eth[1].mac "simulated time" 1000
scalar BGP_Topology_3.RB1.eth[1].mac full-duplex 1
scalar BGP_Topology_3.RB1.eth[1].mac "frames/sec sent" 1.085
scalar BGP_Topology_3.RB1.eth[1].mac "frames/sec rcvd" 1.096
scalar BGP_Topology_3.RB1.eth[1].mac "bits/sec sent" 861.72
scalar BGP_Topology_3.RB1.eth[1].mac "bits/sec rcvd" 871.104
scalar BGP_Topology_3.RB1.eth[1].mac "rx channel idle (%)" 99.999058752
scalar BGP_Topology_3.RB1.eth[1].mac "rx channel utilization (%)" 0.000941248
scalar BGP_Topology_3.RB1.eth[1].mac rxPausePkUnits:count 0
scalar BGP_Topology_3.RB1.eth[1].mac rxPausePkUnits:sum 0
scalar BGP_Topology_3.RB1.eth[1].mac txPausePkUnits:count 0
scalar BGP_Topology_3.RB1.eth[1].mac txPausePkUnits:sum 0
scalar BGP_Topology_3.RB1.eth[1].mac rxPkOk:count 1096
scalar BGP_Topology_3.RB1.eth[1].mac rxPkOk:sum(packetBytes) 108888
scalar BGP_Topology_3.RB1.eth[1].mac txPk:count 1085
scalar BGP_Topology_3.RB1.eth[1].mac txPk:sum(packetBytes) 107715
scalar BGP_Topology_3.RB1.eth[1].mac packetReceivedFromUpper:count 1085
scalar BGP_Topology_3.RB1.eth[1].mac packetReceivedFromUpper:sum(packetBytes) 107435
scalar BGP_Topology_3.RB1.eth[1].mac passedUpPk:count 1096
scalar BGP_Topology_3.RB1.eth[1].mac passedUpPk:sum(packetBytes) 108888
scalar BGP_Topology_3.RB1.eth[1].mac packetDropIncorrectlyReceived:count 0
scalar BGP_Topology_3.RB1.eth[1].mac packetDropIncorrectlyReceived:sum(packetBytes) 0
scalar BGP_Topology_3.RB1.eth[1].mac packetDropInterfaceDown:count 0
scalar BGP_Topology_3.RB1.eth[1].mac packetDropInterfaceDown:sum(packetBytes) 0
scalar BGP_Topology_3.RB1.eth[1].mac packetDropNotAddressedToUs:count 0
scalar BGP_Topology_3.RB1.eth[1].mac packetDropNotAddressedToUs:sum(packetBytes) 0
scalar BGP_Topology_3.RB1.eth[1] packetDropInterfaceDown:count 0
scalar BGP_Topology_3.RB1.eth[1] packetDropInterfaceDown:sum(packetBytes) 0
scalar BGP_Topology_3.RB1.eth[1] packetDropNoCarrier:count 0
scalar BGP_Topology_3.RB1.eth[1] packetDropNoCarrier:sum(packetBytes) 0
scalar BGP_Topology_3.RB1.ipv4.ip packetDropAddressResolutionFailed:count 0
[...]
scalar BGP_Topology_3.RB2.tcp.conn-14 numRtos:vector:count 0
scalar BGP_Topology_3.RB2.tcp.conn-14 numRtos:vector:sum 0
scalar BGP_Topology_3.RB2.tcp.conn-14 numRtos:vector:sumweights 0
scalar BGP_Topology_3.RB2.tcp.conn-14 numRtos:vector:mean nan
scalar BGP_Topology_3.RB2.tcp.conn-14 numRtos:vector:stddev nan
scalar BGP_Topology_3.RB2.tcp.conn-14 numRtos:vector:min inf
scalar BGP_Topology_3.RB2.tcp.conn-14 numRtos:vector:max -inf
scalar BGP_Topology_3.RB2.tcp.conn-14 numRtos:vector:starttime nan
scalar BGP_Topology_3.RB2.tcp.conn-14 numRtos:vector:endtime nan
scalar BGP_Topology_3.RB2.tcp.conn-14 load:vector:count 0
scalar BGP_Topology_3.RB2.tcp.conn-14 load:vector:sum 0
scalar BGP_Topology_3.RB2.tcp.conn-14 load:vector:sumweights 0
scalar BGP_Topology_3.RB2.tcp.conn-14 load:vector:mean nan
scalar BGP_Topology_3.RB2.tcp.conn-14 load:vector:stddev nan
scalar BGP_Topology_3.RB2.tcp.conn-14 load:vector:min inf
scalar BGP_Topology_3.RB2.tcp.conn-14 load:vector:max -inf
scalar BGP_Topology_3.RB2.tcp.conn-14 load:vector:starttime nan
scalar BGP_Topology_3.RB2.tcp.conn-14 load:vector:endtime nan
scalar BGP_Topology_3.RB2.tcp.conn-14 calcLoad:vector:count 0
scalar BGP_Topology_3.RB2.tcp.conn-14 calcLoad:vector:sum 0
scalar BGP_Topology_3.RB2.tcp.conn-14 calcLoad:vector:sumweights 0
scalar BGP_Topology_3.RB2.tcp.conn-14 calcLoad:vector:mean nan
scalar BGP_Topology_3.RB2.tcp.conn-14 calcLoad:vector:stddev nan
scalar BGP_Topology_3.RB2.tcp.conn-14 calcLoad:vector:min inf
scalar BGP_Topology_3.RB2.tcp.conn-14 calcLoad:vector:max -inf
scalar BGP_Topology_3.RB2.tcp.conn-14 calcLoad:vector:starttime nan
scalar BGP_Topology_3.RB2.tcp.conn-14 calcLoad:vector:endtime nan
scalar BGP_Topology_3.RB2.tcp.conn-14 markingProb:vector:count 0
scalar BGP_Topology_3.RB2.tcp.conn-14 markingProb:vector:sum 0
scalar BGP_Topology_3.RB2.tcp.conn-14 markingProb:vector:sumweights 0
scalar BGP_Topology_3.RB2.tcp.conn-14 markingProb:vector:mean nan
scalar BGP_Topology_3.RB2.tcp.conn-14 markingProb:vector:stddev nan
scalar BGP_Topology_3.RB2.tcp.conn-14 markingProb:vector:min inf
scalar BGP_Topology_3.RB2.tcp.conn-14 markingProb:vector:max -inf
scalar BGP_Topology_3.RB2.tcp.conn-14 markingProb:vector:starttime nan
scalar BGP_Topology_3.RB2.tcp.conn-14 markingProb:vector:endtime nan
scalar BGP_Topology_3.RB1.tcp.conn-15 state:vector:count 2
scalar BGP_Topology_3.RB1.tcp.conn-15 state:vector:sum 9
scalar BGP_Topology_3.RB1.tcp.conn-15 state:vector:sumweights 2
scalar BGP_Topology_3.RB1.tcp.conn-15 state:vector:mean 4.5
scalar BGP_Topology_3.RB1.tcp.conn-15 state:vector:stddev 0.7071067811865476
scalar BGP_Topology_3.RB1.tcp.conn-15 state:vector:min 4
scalar BGP_Topology_3.RB1.tcp.conn-15 state:vector:max 5
scalar BGP_Topology_3.RB1.tcp.conn-15 state:vector:starttime 66.00001834000001
scalar BGP_Topology_3.RB1.tcp.conn-15 state:vector:endtime 66.00004158000002
scalar BGP_Topology_3.RB1.tcp.conn-15 sndWnd:vector:count 20
scalar BGP_Topology_3.RB1.tcp.conn-15 sndWnd:vector:sum 286720
scalar BGP_Topology_3.RB1.tcp.conn-15 sndWnd:vector:sumweights 20
scalar BGP_Topology_3.RB1.tcp.conn-15 sndWnd:vector:mean 14336
scalar BGP_Topology_3.RB1.tcp.conn-15 sndWnd:vector:stddev 0
scalar BGP_Topology_3.RB1.tcp.conn-15 sndWnd:vector:min 14336
scalar BGP_Topology_3.RB1.tcp.conn-15 sndWnd:vector:max 14336
scalar BGP_Topology_3.RB1.tcp.conn-15 sndWnd:vector:starttime 66.00001834000001
scalar BGP_Topology_3.RB1.tcp.conn-15 sndWnd:vector:endtime 966.0000813300002
scalar BGP_Topology_3.RB1.tcp.conn-15 rcvWnd:vector:count 37
scalar BGP_Topology_3.RB1.tcp.conn-15 rcvWnd:vector:sum 530432
scalar BGP_Topology_3.RB1.tcp.conn-15 rcvWnd:vector:sumweights 37
scalar BGP_Topology_3.RB1.tcp.conn-15 rcvWnd:vector:mean 14336
scalar BGP_Topology_3.RB1.tcp.conn-15 rcvWnd:vector:stddev 0
scalar BGP_Topology_3.RB1.tcp.conn-15 rcvWnd:vector:min 14336
scalar BGP_Topology_3.RB1.tcp.conn-15 rcvWnd:vector:max 14336
scalar BGP_Topology_3.RB1.tcp.conn-15 rcvWnd:vector:starttime 66.00001834000001
scalar BGP_Topology_3.RB1.tcp.conn-15 rcvWnd:vector:endtime 966.0000705800002
scalar BGP_Topology_3.RB1.tcp.conn-15 rcvAdv:vector:count 38
scalar BGP_Topology_3.RB1.tcp.conn-15 rcvAdv:vector:sum 627562224
scalar BGP_Topology_3.RB1.tcp.conn-15 rcvAdv:vector:sumweights 38
scalar BGP_Topology_3.RB1.tcp.conn-15 rcvAdv:vector:mean 16514795.368421054
scalar BGP_Topology_3.RB1.tcp.conn-15 rcvAdv:vector:stddev 224.2901287367457
scalar BGP_Topology_3.RB1.tcp.conn-15 rcvAdv:vector:min 16514337
scalar BGP_Topology_3.RB1.tcp.conn-15 rcvAdv:vector:max 16515041
scalar BGP_Topology_3.RB1.tcp.conn-15 rcvAdv:vector:starttime 66.00001834000001
scalar BGP_Topology_3.RB1.tcp.conn-15 rcvAdv:vector:endtime 966.0000705800002
scalar BGP_Topology_3.RB1.tcp.conn-15 sndNxt:vector:count 2
scalar BGP_Topology_3.RB1.tcp.conn-15 sndNxt:vector:sum 33000058
scalar BGP_Topology_3.RB1.tcp.conn-15 sndNxt:vector:sumweights 2
scalar BGP_Topology_3.RB1.tcp.conn-15 sndNxt:vector:mean 16500029
scalar BGP_Topology_3.RB1.tcp.conn-15 sndNxt:vector:stddev 33.94112549695428
scalar BGP_Topology_3.RB1.tcp.conn-15 sndNxt:vector:min 16500005
scalar BGP_Topology_3.RB1.tcp.conn-15 sndNxt:vector:max 16500053
scalar BGP_Topology_3.RB1.tcp.conn-15 sndNxt:vector:starttime 66.00004158000002
scalar BGP_Topology_3.RB1.tcp.conn-15 sndNxt:vector:endtime 66.00009382000002
scalar BGP_Topology_3.RB1.tcp.conn-15 sndAck:vector:count 37
scalar BGP_Topology_3.RB1.tcp.conn-15 sndAck:vector:sum 610517455
scalar BGP_Topology_3.RB1.tcp.conn-15 sndAck:vector:sumweights 37
scalar BGP_Topology_3.RB1.tcp.conn-15 sndAck:vector:mean 16500471.756756756
scalar BGP_Topology_3.RB1.tcp.conn-15 sndAck:vector:stddev 213.79806121262294
scalar BGP_Topology_3.RB1.tcp.conn-15 sndAck:vector:min 16500001
scalar BGP_Topology_3.RB1.tcp.conn-15 sndAck:vector:max 16500705
scalar BGP_Topology_3.RB1.tcp.conn-15 sndAck:vector:starttime 66.00001834000001
scalar BGP_Topology_3.RB1.tcp.conn-15 sndAck:vector:endtime 966.0000705800002
scalar BGP_Topology_3.RB1.tcp.conn-15 rcvSeq:vector:count 37
scalar BGP_Topology_3.RB1.tcp.conn-15 rcvSeq:vector:sum 610517455
scalar BGP_Topology_3.RB1.tcp.conn-15 rcvSeq:vector:sumweights 37
scalar BGP_Topology_3.RB1.tcp.conn-15 rcvSeq:vector:mean 16500471.756756756
scalar BGP_Topology_3.RB1.tcp.conn-15 rcvSeq:vector:stddev 213.79806121262294
scalar BGP_Topology_3.RB1.tcp.conn-15 rcvSeq:vector:min 16500001
scalar BGP_Topology_3.RB1.tcp.conn-15 rcvSeq:vector:max 16500705
scalar BGP_Topology_3.RB1.tcp.conn-15 rcvSeq:vector:starttime 66.00004158000002
scalar BGP_Topology_3.RB1.tcp.conn-15 rcvSeq:vector:endtime 966.0000813300002
scalar BGP_Topology_3.RB1.tcp.conn-15 rcvAck:vector:count 37
scalar BGP_Topology_3.RB1.tcp.conn-15 rcvAck:vector:sum 610517603
scalar BGP_Topology_3.RB1.tcp.conn-15 rcvAck:vector:sumweights 37
scalar BGP_Topology_3.RB1.tcp.conn-15 rcvAck:vector:mean 16500475.756756756
scalar BGP_Topology_3.RB1.tcp.conn-15 rcvAck:vector:stddev 213.79806121262587
scalar BGP_Topology_3.RB1.tcp.conn-15 rcvAck:vector:min 16500005
scalar BGP_Topology_3.RB1.tcp.conn-15 rcvAck:vector:max 16500709
scalar BGP_Topology_3.RB1.tcp.conn-15 rcvAck:vector:starttime 66.00004158000002
scalar BGP_Topology_3.RB1.tcp.conn-15 rcvAck:vector:endtime 966.0000813300002
scalar BGP_Topology_3.RB1.tcp.conn-15 unacked:vector:count 37
scalar BGP_Topology_3.RB1.tcp.conn-15 unacked:vector:sum 704
scalar BGP_Topology_3.RB1.tcp.conn-15 unacked:vector:sumweights 37
scalar BGP_Topology_3.RB1.tcp.conn-15 unacked:vector:mean 19.027027027027028
scalar BGP_Topology_3.RB1.tcp.conn-15 unacked:vector:stddev 60.29164604306788
scalar BGP_Topology_3.RB1.tcp.conn-15 unacked:vector:min 0
scalar BGP_Topology_3.RB1.tcp.conn-15 unacked:vector:max 371
scalar BGP_Topology_3.RB1.tcp.conn-15 unacked:vector:starttime 66.00004158000002
scalar BGP_Topology_3.RB1.tcp.conn-15 unacked:vector:endtime 966.0000813300002
scalar BGP_Topology_3.RB1.tcp.conn-15 dupAcks:vector:count 36
scalar BGP_Topology_3.RB1.tcp.conn-15 dupAcks:vector:sum 0
scalar BGP_Topology_3.RB1.tcp.conn-15 dupAcks:vector:sumweights 36
scalar BGP_Topology_3.RB1.tcp.conn-15 dupAcks:vector:mean 0
scalar BGP_Topology_3.RB1.tcp.conn-15 dupAcks:vector:stddev 0
scalar BGP_Topology_3.RB1.tcp.conn-15 dupAcks:vector:min 0
scalar BGP_Topology_3.RB1.tcp.conn-15 dupAcks:vector:max 0
scalar BGP_Topology_3.RB1.tcp.conn-15 dupAcks:vector:starttime 66.00005198000001
scalar BGP_Topology_3.RB1.tcp.conn-15 dupAcks:vector:endtime 966.0000813300002
scalar BGP_Topology_3.RB1.tcp.conn-15 pipe:vector:count 0
scalar BGP_Topology_3.RB1.tcp.conn-15 pipe:vector:sum 0
scalar BGP_Topology_3.RB1.tcp.conn-15 pipe:vector:sumweights 0
scalar BGP_Topology_3.RB1.tcp.conn-15 pipe:vector:mean nan
scalar BGP_Topology_3.RB1.tcp.conn-15 pipe:vector:stddev nan
scalar BGP_Topology_3.RB1.tcp.conn-15 pipe:vector:min inf
scalar BGP_Topology_3.RB1.tcp.conn-15 pipe:vector:max -inf
scalar BGP_Topology_3.RB1.tcp.conn-15 pipe:vector:starttime nan
scalar BGP_Topology_3.RB1.tcp.conn-15 pipe:vector:endtime nan
scalar BGP_Topology_3.RB1.tcp.conn-15 sndSacks:vector:count 0
scalar BGP_Topology_3.RB1.tcp.conn-15 sndSacks:vector:sum 0
scalar BGP_Topology_3.RB1.tcp.conn-15 sndSacks:vector:sumweights 0
scalar BGP_Topology_3.RB1.tcp.conn-15 sndSacks:vector:mean nan
scalar BGP_Topology_3.RB1.tcp.conn-15 sndSacks:vector:stddev nan
scalar BGP_Topology_3.RB1.tcp.conn-15 sndSacks:vector:min inf
scalar BGP_Topology_3.RB1.tcp.conn-15 sndSacks:vector:max -inf
scalar BGP_Topology_3.RB1.tcp.conn-15 sndSacks:vector:starttime nan
scalar BGP_Topology_3.RB1.tcp.conn-15 sndSacks:vector:endtime nan
scalar BGP_Topology_3.RB1.tcp.conn-15 rcvSacks:vector:count 0
scalar BGP_Topology_3.RB1.tcp.conn-15 rcvSacks:vector:sum 0
scalar BGP_Topology_3.RB1.tcp.conn-15 rcvSacks:vector:sumweights 0
scalar BGP_Topology_3.RB1.tcp.conn-15 rcvSacks:vector:mean nan
scalar BGP_Topology_3.RB1.tcp.conn-15 rcvSacks:vector:stddev nan
scalar BGP_Topology_3.RB1.tcp.conn-15 rcvSacks:vector:min inf
scalar BGP_Topology_3.RB1.tcp.conn-15 rcvSacks:vector:max -inf
scalar BGP_Topology_3.RB1.tcp.conn-15 rcvSacks:vector:starttime nan
scalar BGP_Topology_3.RB1.tcp.conn-15 rcvSacks:vector:endtime nan
scalar BGP_Topology_3.RB1.tcp.conn-15 rcvOooSeg:vector:count 0
scalar BGP_Topology_3.RB1.tcp.conn-15 rcvOooSeg:vector:sum 0
scalar BGP_Topology_3.RB1.tcp.conn-15 rcvOooSeg:vector:sumweights 0
scalar BGP_Topology_3.RB1.tcp.conn-15 rcvOooSeg:vector:mean nan
scalar BGP_Topology_3.RB1.tcp.conn-15 rcvOooSeg:vector:stddev nan
scalar BGP_Topology_3.RB1.tcp.conn-15 rcvOooSeg:vector:min inf
scalar BGP_Topology_3.RB1.tcp.conn-15 rcvOooSeg:vector:max -inf
scalar BGP_Topology_3.RB1.tcp.conn-15 rcvOooSeg:vector:starttime nan
scalar BGP_Topology_3.RB1.tcp.conn-15 rcvOooSeg:vector:endtime nan
scalar BGP_Topology_3.RB1.tcp.conn-15 rcvNASeg:vector:count 0
scalar BGP_Topology_3.RB1.tcp.conn-15 rcvNASeg:vector:sum 0
scalar BGP_Topology_3.RB1.tcp.conn-15 rcvNASeg:vector:sumweights 0
scalar BGP_Topology_3.RB1.tcp.conn-15 rcvNASeg:vector:mean nan
scalar BGP_Topology_3.RB1.tcp.conn-15 rcvNASeg:vector:stddev nan
scalar BGP_Topology_3.RB1.tcp.conn-15 rcvNASeg:vector:min inf
scalar BGP_Topology_3.RB1.tcp.conn-15 rcvNASeg:vector:max -inf
scalar BGP_Topology_3.RB1.tcp.conn-15 rcvNASeg:vector:starttime nan
scalar BGP_Topology_3.RB1.tcp.conn-15 rcvNASeg:vector:endtime nan
scalar BGP_Topology_3.RB1.tcp.conn-15 sackedBytes:vector:count 0
scalar BGP_Topology_3.RB1.tcp.conn-15 sackedBytes:vector:sum 0
scalar BGP_Topology_3.RB1.tcp.conn-15 sackedBytes:vector:sumweights 0
scalar BGP_Topology_3.RB1.tcp.conn-15 sackedBytes:vector:mean nan
scalar BGP_Topology_3.RB1.tcp.conn-15 sackedBytes:vector:stddev nan
scalar BGP_Topology_3.RB1.tcp.conn-15 sackedBytes:vector:min inf
scalar BGP_Topology_3.RB1.tcp.conn-15 sackedBytes:vector:max -inf
scalar BGP_Topology_3.RB1.tcp.conn-15 sackedBytes:vector:starttime nan
scalar BGP_Topology_3.RB1.tcp.conn-15 sackedBytes:vector:endtime nan
scalar BGP_Topology_3.RB1.tcp.conn-15 tcpRcvQueueBytes:vector:count 55
scalar BGP_Topology_3.RB1.tcp.conn-15 tcpRcvQueueBytes:vector:sum 0
scalar BGP_Topology_3.RB1.tcp.conn-15 tcpRcvQueueBytes:vector:sumweights 55
scalar BGP_Topology_3.RB1.tcp.conn-15 tcpRcvQueueBytes:vector:mean 0
scalar BGP_Topology_3.RB1.tcp.conn-15 tcpRcvQueueBytes:vector:stddev 0
scalar BGP_Topology_3.RB1.tcp.conn-15 tcpRcvQueueBytes:vector:min 0
scalar BGP_Topology_3.RB1.tcp.conn-15 tcpRcvQueueBytes:vector:max 0
scalar BGP_Topology_3.RB1.tcp.conn-15 tcpRcvQueueBytes:vector:starttime 66.00001834000001
scalar BGP_Topology_3.RB1.tcp.conn-15 tcpRcvQueueBytes:vector:endtime 966.0000705800002
scalar BGP_Topology_3.RB1.tcp.conn-15 tcpRcvQueueDrops:vector:count 0
scalar BGP_Topology_3.RB1.tcp.conn-15 tcpRcvQueueDrops:vector:sum 0
scalar BGP_Topology_3.RB1.tcp.conn-15 tcpRcvQueueDrops:vector:sumweights 0
scalar BGP_Topology_3.RB1.tcp.conn-15 tcpRcvQueueDrops:vector:mean nan
scalar BGP_Topology_3.RB1.tcp.conn-15 tcpRcvQueueDrops:vector:stddev nan
scalar BGP_Topology_3.RB1.tcp.conn-15 tcpRcvQueueDrops:vector:min inf
scalar BGP_Topology_3.RB1.tcp.conn-15 tcpRcvQueueDrops:vector:max -inf
scalar BGP_Topology_3.RB1.tcp.conn-15 tcpRcvQueueDrops:vector:starttime nan
scalar BGP_Topology_3.RB1.tcp.conn-15 tcpRcvQueueDrops:vector:endtime nan
scalar BGP_Topology_3.RB1.tcp.conn-15 tcpRcvPayloadBytes:vector:count 37
scalar BGP_Topology_3.RB1.tcp.conn-15 tcpRcvPayloadBytes:vector:sum 704
scalar BGP_Topology_3.RB1.tcp.conn-15 tcpRcvPayloadBytes:vector:sumweights 37
scalar BGP_Topology_3.RB1.tcp.conn-15 tcpRcvPayloadBytes:vector:mean 19.027027027027028
scalar BGP_Topology_3.RB1.tcp.conn-15 tcpRcvPayloadBytes:vector:stddev 60.29164604306788
scalar BGP_Topology_3.RB1.tcp.conn-15 tcpRcvPayloadBytes:vector:min 0
scalar BGP_Topology_3.RB1.tcp.conn-15 tcpRcvPayloadBytes:vector:max 371
scalar BGP_Topology_3.RB1.tcp.conn-15 tcpRcvPayloadBytes:vector:starttime 66.00004158000002
scalar BGP_Topology_3.RB1.tcp.conn-15 tcpRcvPayloadBytes:vector:endtime 966.0000813300002
scalar BGP_Topology_3.RB1.tcp.conn-15 cwnd:vector:count 18
scalar BGP_Topology_3.RB1.tcp.conn-15 cwnd:vector:sum 39936
scalar BGP_Topology_3.RB1.tcp.conn-15 cwnd:vector:sumweights 18
scalar BGP_Topology_3.RB1.tcp.conn-15 cwnd:vector:mean 2218.6666666666665
scalar BGP_Topology_3.RB1.tcp.conn-15 cwnd:vector:stddev 526.8436535577874
scalar BGP_Topology_3.RB1.tcp.conn-15 cwnd:vector:min 2048
scalar BGP_Topology_3.RB1.tcp.conn-15 cwnd:vector:max 4096
scalar BGP_Topology_3.RB1.tcp.conn-15 cwnd:vector:starttime 66.00006850000001
scalar BGP_Topology_3.RB1.tcp.conn-15 cwnd:vector:endtime 966.0000813300002
scalar BGP_Topology_3.RB1.tcp.conn-15 ssthresh:vector:count 18
scalar BGP_Topology_3.RB1.tcp.conn-15 ssthresh:vector:sum 77309411310
scalar BGP_Topology_3.RB1.tcp.conn-15 ssthresh:vector:sumweights 18
scalar BGP_Topology_3.RB1.tcp.conn-15 ssthresh:vector:mean 4294967295
scalar BGP_Topology_3.RB1.tcp.conn-15 ssthresh:vector:stddev 0
scalar BGP_Topology_3.RB1.tcp.conn-15 ssthresh:vector:min 4294967295
scalar BGP_Topology_3.RB1.tcp.conn-15 ssthresh:vector:max 4294967295
scalar BGP_Topology_3.RB1.tcp.conn-15 ssthresh:vector:starttime 66.00006850000001
scalar BGP_Topology_3.RB1.tcp.conn-15 ssthresh:vector:endtime 966.0000813300002
scalar BGP_Topology_3.RB1.tcp.conn-15 rtt:vector:count 18
scalar BGP_Topology_3.RB1.tcp.conn-15 rtt:vector:sum 0.00056607
scalar BGP_Topology_3.RB1.tcp.conn-15 rtt:vector:sumweights 18
scalar BGP_Topology_3.RB1.tcp.conn-15 rtt:vector:mean 3.1448333333333335e-05
scalar BGP_Topology_3.RB1.tcp.conn-15 rtt:vector:stddev 1.2624946476298882e-05
scalar BGP_Topology_3.RB1.tcp.conn-15 rtt:vector:min 2.5319999999999998e-05
scalar BGP_Topology_3.RB1.tcp.conn-15 rtt:vector:max 8.164e-05
scalar BGP_Topology_3.RB1.tcp.conn-15 rtt:vector:starttime 66.00006850000001
scalar BGP_Topology_3.RB1.tcp.conn-15 rtt:vector:endtime 966.0000813300002
scalar BGP_Topology_3.RB1.tcp.conn-15 srtt:vector:count 18
scalar BGP_Topology_3.RB1.tcp.conn-15 srtt:vector:sum 0.00037842074899999996
scalar BGP_Topology_3.RB1.tcp.conn-15 srtt:vector:sumweights 18
scalar BGP_Topology_3.RB1.tcp.conn-15 srtt:vector:mean 2.102337494444444e-05
scalar BGP_Topology_3.RB1.tcp.conn-15 srtt:vector:stddev 6.802368237340081e-06
scalar BGP_Topology_3.RB1.tcp.conn-15 srtt:vector:min 3.365e-06
scalar BGP_Topology_3.RB1.tcp.conn-15 srtt:vector:max 2.6807036e-05
scalar BGP_Topology_3.RB1.tcp.conn-15 srtt:vector:starttime 66.00006850000001
scalar BGP_Topology_3.RB1.tcp.conn-15 srtt:vector:endtime 966.0000813300002
scalar BGP_Topology_3.RB1.tcp.conn-15 rttvar:vector:count 18
scalar BGP_Topology_3.RB1.tcp.conn-15 rttvar:vector:sum 4.775602299579
scalar BGP_Topology_3.RB1.tcp.conn-15 rttvar:vector:sumweights 18
scalar BGP_Topology_3.RB1.tcp.conn-15 rttvar:vector:mean 0.2653112388655
scalar BGP_Topology_3.RB1.tcp.conn-15 rttvar:vector:stddev 0.18077630820840065
scalar BGP_Topology_3.RB1.tcp.conn-15 rttvar:vector:min 0.067802082258
scalar BGP_Topology_3.RB1.tcp.conn-15 rttvar:vector:max 0.656253365
scalar BGP_Topology_3.RB1.tcp.conn-15 rttvar:vector:starttime 66.00006850000001
scalar BGP_Topology_3.RB1.tcp.conn-15 rttvar:vector:endtime 966.0000813300002
scalar BGP_Topology_3.RB1.tcp.conn-15 rto:vector:count 18
scalar BGP_Topology_3.RB1.tcp.conn-15 rto:vector:sum 23.784701570329
scalar BGP_Topology_3.RB1.tcp.conn-15 rto:vector:sumweights 18
scalar BGP_Topology_3.RB1.tcp.conn-15 rto:vector:mean 1.321372309462722
scalar BGP_Topology_3.RB1.tcp.conn-15 rto:vector:stddev 0.5146051057242979
scalar BGP_Topology_3.RB1.tcp.conn-15 rto:vector:min 1
scalar BGP_Topology_3.RB1.tcp.conn-15 rto:vector:max 2.625016825
scalar BGP_Topology_3.RB1.tcp.conn-15 rto:vector:starttime 66.00006850000001
scalar BGP_Topology_3.RB1.tcp.conn-15 rto:vector:endtime 966.0000813300002
scalar BGP_Topology_3.RB1.tcp.conn-15 numRtos:vector:count 0
scalar BGP_Topology_3.RB1.tcp.conn-15 numRtos:vector:sum 0
scalar BGP_Topology_3.RB1.tcp.conn-15 numRtos:vector:sumweights 0
scalar BGP_Topology_3.RB1.tcp.conn-15 numRtos:vector:mean nan
scalar BGP_Topology_3.RB1.tcp.conn-15 numRtos:vector:stddev nan
scalar BGP_Topology_3.RB1.tcp.conn-15 numRtos:vector:min inf
scalar BGP_Topology_3.RB1.tcp.conn-15 numRtos:vector:max -inf
scalar BGP_Topology_3.RB1.tcp.conn-15 numRtos:vector:starttime nan
scalar BGP_Topology_3.RB1.tcp.conn-15 numRtos:vector:endtime nan
scalar BGP_Topology_3.RB1.tcp.conn-15 load:vector:count 0
scalar BGP_Topology_3.RB1.tcp.conn-15 load:vector:sum 0
scalar BGP_Topology_3.RB1.tcp.conn-15 load:vector:sumweights 0
scalar BGP_Topology_3.RB1.tcp.conn-15 load:vector:mean nan
scalar BGP_Topology_3.RB1.tcp.conn-15 load:vector:stddev nan
scalar BGP_Topology_3.RB1.tcp.conn-15 load:vector:min inf
scalar BGP_Topology_3.RB1.tcp.conn-15 load:vector:max -inf
scalar BGP_Topology_3.RB1.tcp.conn-15 load:vector:starttime nan
scalar BGP_Topology_3.RB1.tcp.conn-15 load:vector:endtime nan
scalar BGP_Topology_3.RB1.tcp.conn-15 calcLoad:vector:count 0
scalar BGP_Topology_3.RB1.tcp.conn-15 calcLoad:vector:sum 0
scalar BGP_Topology_3.RB1.tcp.conn-15 calcLoad:vector:sumweights 0
scalar BGP_Topology_3.RB1.tcp.conn-15 calcLoad:vector:mean nan
scalar BGP_Topology_3.RB1.tcp.conn-15 calcLoad:vector:stddev nan
scalar BGP_Topology_3.RB1.tcp.conn-15 calcLoad:vector:min inf
scalar BGP_Topology_3.RB1.tcp.conn-15 calcLoad:vector:max -inf
scalar BGP_Topology_3.RB1.tcp.conn-15 calcLoad:vector:starttime nan
scalar BGP_Topology_3.RB1.tcp.conn-15 calcLoad:vector:endtime nan
scalar BGP_Topology_3.RB1.tcp.conn-15 markingProb:vector:count 0
scalar BGP_Topology_3.RB1.tcp.conn-15 markingProb:vector:sum 0
scalar BGP_Topology_3.RB1.tcp.conn-15 markingProb:vector:sumweights 0
scalar BGP_Topology_3.RB1.tcp.conn-15 markingProb:vector:mean nan
scalar BGP_Topology_3.RB1.tcp.conn-15 markingProb:vector:stddev nan
scalar BGP_Topology_3.RB1.tcp.conn-15 markingProb:vector:min inf
scalar BGP_Topology_3.RB1.tcp.conn-15 markingProb:vector:max -inf
scalar BGP_Topology_3.RB1.tcp.conn-15 markingProb:vector:starttime nan
scalar BGP_Topology_3.RB1.tcp.conn-15 markingProb:vector:endtime nan

