version 3
run Step4-0-20260206-22:02:20-3565564
attr configname Step4
attr datetime 20260206-22:02:20
attr datetimef 20260206-220220
attr experiment Step4
attr inifile omnetpp.ini
attr iterationvars ""
attr iterationvarsd ""
attr iterationvarsf ""
attr measurement ""
attr network BGP_Topology_2
attr processid 3565564
attr repetition 0
attr replication #0
attr resultdir results
attr runnumber 0
attr seedset 0
config **.param-recording false
config image-path /home/attila/projects/inet/images
config output-scalar-file results/omnetpp.ini-Step4-#0.sca
config output-scalar-precision 17
config output-vector-file results/omnetpp.ini-Step4-#0.vec
config output-vector-precision 17
config record-eventlog false
config sim-time-limit 1000s
config description "BGP Scenario with I-BGP over directly-connected BGP speakers"
config network BGP_Topology_2
config *.routingTableRecorder.logfile "\"step4.rt\""
config *.pcapRecorder.pcapFile "\"step4.pcap\""
config *.configurator.config "xml(\"<config>                                 <interface hosts='RA4' names='eth0' address='192.168.x.x' netmask='255.x.x.x'/>                                 <interface hosts='RB1' names='eth0' address='192.168.x.x' netmask='255.x.x.x'/>                                                                 <interface hosts='RB2' names='eth0' address='192.168.x.x' netmask='255.x.x.x'/>                                 <interface hosts='RC1' names='eth2' address='192.168.x.x' netmask='255.x.x.x'/>                                                                 <interface among='host0 RA*' address='10.x.x.x' netmask='255.x.x.x'/>                                 <interface hosts='RA*' address='10.x.x.x' netmask='255.x.x.x'/>                                                                 <interface among='RB1 RB2' address='20.x.x.x' netmask='255.x.x.x'/>                                                                 <interface among='host1 RC*' address='30.x.x.x' netmask='255.x.x.x'/>                                 <interface hosts='RC*' address='30.x.x.x' netmask='255.x.x.x'/>                                                                 <route hosts='RA4' destination='*' netmask='0.0.0.0' interface='eth0' />                                 <route hosts='RC1' destination='*' netmask='0.0.0.0' interface='eth2' />                                 <route hosts='host*' destination='*' netmask='0.0.0.0' interface='eth0' />                              </config>\")"
config *.RB{1,2}.hasOspf false
config *.R*.hasOspf true
config *.R*.ospf.ospfConfig "xmldoc(\"OSPFConfig_IBGP.xml\")"
config *.RA4.ipv4.routingTable.routerId "\"10.0.0.5\""
config *.RC1.ipv4.routingTable.routerId "\"30.0.0.5\""
config *.RA4.hasBgp true
config *.RB1.hasBgp true
config *.RB2.hasBgp true
config *.RC1.hasBgp true
config *.R*.bgp.bgpConfig "xmldoc(\"BGPConfig_IBGP.xml\")"
config *.RA4.bgp.redistributeOspf "\"O IA\""
config *.RC1.bgp.redistributeOspf "\"O IA\""
config sim-time-limit 1000s
config *.pcapRecorder.moduleNamePatterns "\".^\""
config **.checksumMode "\"computed\""
config **.fcsMode "\"computed\""
config **.ip.procDelay 10us
config **.eth[*].queue.typename EthernetQosQueue
config **.eth[*].queue.dataQueue.typename DropTailQueue
config **.tcp.mss 1024
config **.tcp.advertisedWindow 14336
config **.tcp.tcpAlgorithmClass "\"TcpReno\""
config *.R*.ipv4.routingTable.useAdminDist true
config *.configurator.config "xml(\"<config>                                 <interface hosts='**' address='10.x.x.x' netmask='255.x.x.x'/>                                 <route hosts='host*' destination='*' netmask='0.0.0.0' interface='eth0' />                              </config>\")"
config *.configurator.addStaticRoutes false
config *.host0.numApps 1
config *.host0.app[0].typename PingApp
config *.host0.app[0].destAddr "\"host1\""
config *.host0.app[0].startTime 100s
config *.visualizer.numRoutingTableVisualizers 2
config *.visualizer.interfaceTableVisualizer[0].displayInterfaceTables true
config *.visualizer.routingTableVisualizer[*].displayRoutingTables true
config *.visualizer.routingTableVisualizer[0].destinationFilter "\"host1\""
config *.visualizer.routingTableVisualizer[1].destinationFilter "\"host0\""
config *.visualizer.routingTableVisualizer[0].lineColor "\"blue\""
config *.visualizer.routingTableVisualizer[1].lineColor "\"red\""
config *.visualizer.routingTableVisualizer[*].labelFormat "\"%d/%m (%e) -> %g (%n)\""
config *.visualizer.routingTableVisualizer[*].lineStyle "\"dashed\""

scalar BGP_Topology_2.RB2.ethernet pauseSent:count 0
scalar BGP_Topology_2.RB2.ethernet pauseSent:sum 0
scalar BGP_Topology_2.RB2.ethernet decapPk:count 29
scalar BGP_Topology_2.RB2.ethernet decapPk:sum(packetBytes) 2166
scalar BGP_Topology_2.RB2.ethernet encapPk:count 29
scalar BGP_Topology_2.RB2.ethernet encapPk:sum(packetBytes) 1704
scalar BGP_Topology_2.RB2.lo[0].lo rcvdPkFromHl:count 0
scalar BGP_Topology_2.RB2.lo[0].lo rcvdPkFromHl:sum(packetBytes) 0
scalar BGP_Topology_2.RB2.lo[0].lo passedUpPk:count 0
scalar BGP_Topology_2.RB2.lo[0].lo passedUpPk:sum(packetBytes) 0
scalar BGP_Topology_2.RB2.lo[0] packetDropInterfaceDown:count 0
scalar BGP_Topology_2.RB2.lo[0] packetDropInterfaceDown:sum(packetBytes) 0
scalar BGP_Topology_2.RB2.lo[0] packetDropNoCarrier:count 0
scalar BGP_Topology_2.RB2.lo[0] packetDropNoCarrier:sum(packetBytes) 0
scalar BGP_Topology_2.RB2.eth[0].queue.classifier packets:count 14
scalar BGP_Topology_2.RB2.eth[0].queue.classifier packetLengths:sum 7176
scalar BGP_Topology_2.RB2.eth[0].queue.pauseQueue queueLength:last 0
scalar BGP_Topology_2.RB2.eth[0].queue.pauseQueue queueLength:max 0
scalar BGP_Topology_2.RB2.eth[0].queue.pauseQueue queueLength:timeavg 0
scalar BGP_Topology_2.RB2.eth[0].queue.pauseQueue queueBitLength:last 0
scalar BGP_Topology_2.RB2.eth[0].queue.pauseQueue queueBitLength:max 0
scalar BGP_Topology_2.RB2.eth[0].queue.pauseQueue queueBitLength:timeavg 0
scalar BGP_Topology_2.RB2.eth[0].queue.pauseQueue outgoingPackets:count 0
scalar BGP_Topology_2.RB2.eth[0].queue.pauseQueue outgoingPacketLengths:sum 0
scalar BGP_Topology_2.RB2.eth[0].queue.pauseQueue incomingPackets:count 0
scalar BGP_Topology_2.RB2.eth[0].queue.pauseQueue incomingPacketLengths:sum 0
scalar BGP_Topology_2.RB2.eth[0].queue.pauseQueue droppedPacketsQueueOverflow:count 0
scalar BGP_Topology_2.RB2.eth[0].queue.pauseQueue droppedPacketLengthsQueueOverflow:sum 0
scalar BGP_Topology_2.RB2.eth[0].queue.dataQueue queueLength:last 0
scalar BGP_Topology_2.RB2.eth[0].queue.dataQueue queueLength:max 2
scalar BGP_Topology_2.RB2.eth[0].queue.dataQueue queueLength:timeavg 1.2180000000000001e-08
scalar BGP_Topology_2.RB2.eth[0].queue.dataQueue queueBitLength:last 0
scalar BGP_Topology_2.RB2.eth[0].queue.dataQueue queueBitLength:max 832
scalar BGP_Topology_2.RB2.eth[0].queue.dataQueue queueBitLength:timeavg 4.8316799999999993e-06
scalar BGP_Topology_2.RB2.eth[0].queue.dataQueue outgoingPackets:count 14
scalar BGP_Topology_2.RB2.eth[0].queue.dataQueue outgoingPacketLengths:sum 7176
scalar BGP_Topology_2.RB2.eth[0].queue.dataQueue incomingPackets:count 14
scalar BGP_Topology_2.RB2.eth[0].queue.dataQueue incomingPacketLengths:sum 7176
scalar BGP_Topology_2.RB2.eth[0].queue.dataQueue droppedPacketsQueueOverflow:count 0
scalar BGP_Topology_2.RB2.eth[0].queue.dataQueue droppedPacketLengthsQueueOverflow:sum 0
scalar BGP_Topology_2.RB2.eth[0].queue.scheduler packets:count 14
scalar BGP_Topology_2.RB2.eth[0].queue.scheduler packetLengths:sum 7176
scalar BGP_Topology_2.RB2.eth[0].queue queueLength:last -14
scalar BGP_Topology_2.RB2.eth[0].queue queueLength:max 0
scalar BGP_Topology_2.RB2.eth[0].queue queueLength:timeavg -12.64599958172
scalar BGP_Topology_2.RB2.eth[0].queue queueBitLength:last -7176
scalar BGP_Topology_2.RB2.eth[0].queue queueBitLength:max 0
scalar BGP_Topology_2.RB2.eth[0].queue queueBitLength:timeavg -6519.1317813085598
scalar BGP_Topology_2.RB2.eth[0].queue outgoingPackets:count 14
scalar BGP_Topology_2.RB2.eth[0].queue outgoingPacketLengths:sum 7176
scalar BGP_Topology_2.RB2.eth[0].queue incomingPackets:count 0
scalar BGP_Topology_2.RB2.eth[0].queue incomingPacketLengths:sum 0
scalar BGP_Topology_2.RB2.eth[0].queue droppedPacketsQueueOverflow:count 0
scalar BGP_Topology_2.RB2.eth[0].queue droppedPacketLengthsQueueOverflow:sum 0
scalar BGP_Topology_2.RB2.eth[0].mac "simulated time" 1000
scalar BGP_Topology_2.RB2.eth[0].mac full-duplex 1
scalar BGP_Topology_2.RB2.eth[0].mac "frames/sec sent" 0.014
scalar BGP_Topology_2.RB2.eth[0].mac "frames/sec rcvd" 0.014999999999999999
scalar BGP_Topology_2.RB2.eth[0].mac "bits/sec sent" 7.8799999999999999
scalar BGP_Topology_2.RB2.eth[0].mac "bits/sec rcvd" 10.6
scalar BGP_Topology_2.RB2.eth[0].mac "rx channel idle (%)" 99.999988439999996
scalar BGP_Topology_2.RB2.eth[0].mac "rx channel utilization (%)" 1.1560000000000001e-05
scalar BGP_Topology_2.RB2.eth[0].mac rxPausePkUnits:count 0
scalar BGP_Topology_2.RB2.eth[0].mac rxPausePkUnits:sum 0
scalar BGP_Topology_2.RB2.eth[0].mac txPausePkUnits:count 0
scalar BGP_Topology_2.RB2.eth[0].mac txPausePkUnits:sum 0
scalar BGP_Topology_2.RB2.eth[0].mac rxPkOk:count 15
scalar BGP_Topology_2.RB2.eth[0].mac rxPkOk:sum(packetBytes) 1325
scalar BGP_Topology_2.RB2.eth[0].mac txPk:count 14
scalar BGP_Topology_2.RB2.eth[0].mac txPk:sum(packetBytes) 985
scalar BGP_Topology_2.RB2.eth[0].mac packetReceivedFromUpper:count 14
scalar BGP_Topology_2.RB2.eth[0].mac packetReceivedFromUpper:sum(packetBytes) 897
scalar BGP_Topology_2.RB2.eth[0].mac passedUpPk:count 15
scalar BGP_Topology_2.RB2.eth[0].mac passedUpPk:sum(packetBytes) 1325
scalar BGP_Topology_2.RB2.eth[0].mac packetDropIncorrectlyReceived:count 0
scalar BGP_Topology_2.RB2.eth[0].mac packetDropIncorrectlyReceived:sum(packetBytes) 0
scalar BGP_Topology_2.RB2.eth[0].mac packetDropInterfaceDown:count 0
scalar BGP_Topology_2.RB2.eth[0].mac packetDropInterfaceDown:sum(packetBytes) 0
scalar BGP_Topology_2.RB2.eth[0].mac packetDropNotAddressedToUs:count 0
scalar BGP_Topology_2.RB2.eth[0].mac packetDropNotAddressedToUs:sum(packetBytes) 0
scalar BGP_Topology_2.RB2.eth[0] packetDropInterfaceDown:count 0
scalar BGP_Topology_2.RB2.eth[0] packetDropInterfaceDown:sum(packetBytes) 0
scalar BGP_Topology_2.RB2.eth[0] packetDropNoCarrier:count 0
scalar BGP_Topology_2.RB2.eth[0] packetDropNoCarrier:sum(packetBytes) 0
scalar BGP_Topology_2.RB2.eth[1].queue.classifier packets:count 15
scalar BGP_Topology_2.RB2.eth[1].queue.classifier packetLengths:sum 10632
scalar BGP_Topology_2.RB2.eth[1].queue.pauseQueue queueLength:last 0
scalar BGP_Topology_2.RB2.eth[1].queue.pauseQueue queueLength:max 0
scalar BGP_Topology_2.RB2.eth[1].queue.pauseQueue queueLength:timeavg 0
scalar BGP_Topology_2.RB2.eth[1].queue.pauseQueue queueBitLength:last 0
scalar BGP_Topology_2.RB2.eth[1].queue.pauseQueue queueBitLength:max 0
scalar BGP_Topology_2.RB2.eth[1].queue.pauseQueue queueBitLength:timeavg 0
scalar BGP_Topology_2.RB2.eth[1].queue.pauseQueue outgoingPackets:count 0
scalar BGP_Topology_2.RB2.eth[1].queue.pauseQueue outgoingPacketLengths:sum 0
scalar BGP_Topology_2.RB2.eth[1].queue.pauseQueue incomingPackets:count 0
scalar BGP_Topology_2.RB2.eth[1].queue.pauseQueue incomingPacketLengths:sum 0
scalar BGP_Topology_2.RB2.eth[1].queue.pauseQueue droppedPacketsQueueOverflow:count 0
scalar BGP_Topology_2.RB2.eth[1].queue.pauseQueue droppedPacketLengthsQueueOverflow:sum 0
scalar BGP_Topology_2.RB2.eth[1].queue.dataQueue queueLength:last 0
scalar BGP_Topology_2.RB2.eth[1].queue.dataQueue queueLength:max 1
scalar BGP_Topology_2.RB2.eth[1].queue.dataQueue queueLength:timeavg 2.2539999999999999e-08
scalar BGP_Topology_2.RB2.eth[1].queue.dataQueue queueBitLength:last 0
scalar BGP_Topology_2.RB2.eth[1].queue.dataQueue queueBitLength:max 3856
scalar BGP_Topology_2.RB2.eth[1].queue.dataQueue queueBitLength:timeavg 1.7822560000000002e-05
scalar BGP_Topology_2.RB2.eth[1].queue.dataQueue outgoingPackets:count 15
scalar BGP_Topology_2.RB2.eth[1].queue.dataQueue outgoingPacketLengths:sum 10632
scalar BGP_Topology_2.RB2.eth[1].queue.dataQueue incomingPackets:count 15
scalar BGP_Topology_2.RB2.eth[1].queue.dataQueue incomingPacketLengths:sum 10632
scalar BGP_Topology_2.RB2.eth[1].queue.dataQueue droppedPacketsQueueOverflow:count 0
scalar BGP_Topology_2.RB2.eth[1].queue.dataQueue droppedPacketLengthsQueueOverflow:sum 0
scalar BGP_Topology_2.RB2.eth[1].queue.scheduler packets:count 15
scalar BGP_Topology_2.RB2.eth[1].queue.scheduler packetLengths:sum 10632
scalar BGP_Topology_2.RB2.eth[1].queue queueLength:last -15
scalar BGP_Topology_2.RB2.eth[1].queue queueLength:max 0
scalar BGP_Topology_2.RB2.eth[1].queue queueLength:timeavg -13.531999555220001
scalar BGP_Topology_2.RB2.eth[1].queue queueBitLength:last -10632
scalar BGP_Topology_2.RB2.eth[1].queue queueBitLength:max 0
scalar BGP_Topology_2.RB2.eth[1].queue queueBitLength:timeavg -9722.3196239529607
scalar BGP_Topology_2.RB2.eth[1].queue outgoingPackets:count 15
scalar BGP_Topology_2.RB2.eth[1].queue outgoingPacketLengths:sum 10632
scalar BGP_Topology_2.RB2.eth[1].queue incomingPackets:count 0
scalar BGP_Topology_2.RB2.eth[1].queue incomingPacketLengths:sum 0
scalar BGP_Topology_2.RB2.eth[1].queue droppedPacketsQueueOverflow:count 0
scalar BGP_Topology_2.RB2.eth[1].queue droppedPacketLengthsQueueOverflow:sum 0
scalar BGP_Topology_2.RB2.eth[1].mac "simulated time" 1000
scalar BGP_Topology_2.RB2.eth[1].mac full-duplex 1
scalar BGP_Topology_2.RB2.eth[1].mac "frames/sec sent" 0.014999999999999999
scalar BGP_Topology_2.RB2.eth[1].mac "frames/sec rcvd" 0.014
scalar BGP_Topology_2.RB2.eth[1].mac "bits/sec sent" 11.416
scalar BGP_Topology_2.RB2.eth[1].mac "bits/sec rcvd" 10.904
scalar BGP_Topology_2.RB2.eth[1].mac "rx channel idle (%)" 99.999988200000004
scalar BGP_Topology_2.RB2.eth[1].mac "rx channel utilization (%)" 1.1800000000000001e-05
scalar BGP_Topology_2.RB2.eth[1].mac rxPausePkUnits:count 0
scalar BGP_Topology_2.RB2.eth[1].mac rxPausePkUnits:sum 0
scalar BGP_Topology_2.RB2.eth[1].mac txPausePkUnits:count 0
scalar BGP_Topology_2.RB2.eth[1].mac txPausePkUnits:sum 0
scalar BGP_Topology_2.RB2.eth[1].mac rxPkOk:count 14
scalar BGP_Topology_2.RB2.eth[1].mac rxPkOk:sum(packetBytes) 1363
scalar BGP_Topology_2.RB2.eth[1].mac txPk:count 15
scalar BGP_Topology_2.RB2.eth[1].mac txPk:sum(packetBytes) 1427
scalar BGP_Topology_2.RB2.eth[1].mac packetReceivedFromUpper:count 15
scalar BGP_Topology_2.RB2.eth[1].mac packetReceivedFromUpper:sum(packetBytes) 1329
scalar BGP_Topology_2.RB2.eth[1].mac passedUpPk:count 14
scalar BGP_Topology_2.RB2.eth[1].mac passedUpPk:sum(packetBytes) 1363
scalar BGP_Topology_2.RB2.eth[1].mac packetDropIncorrectlyReceived:count 0
scalar BGP_Topology_2.RB2.eth[1].mac packetDropIncorrectlyReceived:sum(packetBytes) 0
scalar BGP_Topology_2.RB2.eth[1].mac packetDropInterfaceDown:count 0
scalar BGP_Topology_2.RB2.eth[1].mac packetDropInterfaceDown:sum(packetBytes) 0
scalar BGP_Topology_2.RB2.eth[1].mac packetDropNotAddressedToUs:count 0
scalar BGP_Topology_2.RB2.eth[1].mac packetDropNotAddressedToUs:sum(packetBytes) 0
scalar BGP_Topology_2.RB2.eth[1] packetDropInterfaceDown:count 0
scalar BGP_Topology_2.RB2.eth[1] packetDropInterfaceDown:sum(packetBytes) 0
scalar BGP_Topology_2.RB2.eth[1] packetDropNoCarrier:count 0
scalar BGP_Topology_2.RB2.eth[1] packetDropNoCarrier:sum(packetBytes) 0
scalar BGP_Topology_2.RB2.ipv4.ip packetDropAddressResolutionFailed:count 0
scalar BGP_Topology_2.RB2.ipv4.ip packetDropAddressResolutionFailed:sum(packetBytes) 0
scalar BGP_Topology_2.RB2.ipv4.ip packetDropHopLimitReached:count 0
scalar BGP_Topology_2.RB2.ipv4.ip packetDropHopLimitReached:sum(packetBytes) 0
scalar BGP_Topology_2.RB2.ipv4.ip packetDropForwardingDisabled:count 0
scalar BGP_Topology_2.RB2.ipv4.ip packetDropForwardingDisabled:sum(packetBytes) 0
scalar BGP_Topology_2.RB2.ipv4.ip packetDropLifetimeExpired:count 0
scalar BGP_Topology_2.RB2.ipv4.ip packetDropLifetimeExpired:sum(packetBytes) 0
scalar BGP_Topology_2.RB2.ipv4.ip packetDropNoInterfaceFound:count 0
scalar BGP_Topology_2.RB2.ipv4.ip packetDropNoInterfaceFound:sum(packetBytes) 0
scalar BGP_Topology_2.RB2.ipv4.ip packetDropNoRouteFound:count 0
scalar BGP_Topology_2.RB2.ipv4.ip packetDropNoRouteFound:sum(packetBytes) 0
scalar BGP_Topology_2.RB2.ipv4.ip packetDropUndefined:count 0
scalar BGP_Topology_2.RB2.ipv4.ip packetDropUndefined:sum(packetBytes) 0
scalar BGP_Topology_2.RB2.ipv4.arp arpResolutionFailed:count 0
scalar BGP_Topology_2.RB2.ipv4.arp arpResolutionCompleted:count 6
scalar BGP_Topology_2.RB2.ipv4.arp arpResolutionInitiated:count 3
scalar BGP_Topology_2.RB2.ipv4.arp arpReplySent:count 3
scalar BGP_Topology_2.RB2.ipv4.arp arpReplySent:sum(packetBytes) 84
scalar BGP_Topology_2.RB2.ipv4.arp arpRequestSent:count 3
scalar BGP_Topology_2.RB2.ipv4.arp arpRequestSent:sum(packetBytes) 84
scalar BGP_Topology_2.RB2.bgp OPENMsgSent 2
scalar BGP_Topology_2.RB2.bgp OPENMsgRecv 2
scalar BGP_Topology_2.RB2.bgp KeepAliveMsgSent 4
scalar BGP_Topology_2.RB2.bgp KeepAliveMsgRcv 4
scalar BGP_Topology_2.RB2.bgp UpdateMsgSent 9
scalar BGP_Topology_2.RB2.bgp UpdateMsgRcv 15
scalar BGP_Topology_2.RC1.ethernet pauseSent:count 0
scalar BGP_Topology_2.RC1.ethernet pauseSent:sum 0
scalar BGP_Topology_2.RC1.ethernet decapPk:count 308
scalar BGP_Topology_2.RC1.ethernet decapPk:sum(packetBytes) 22455
scalar BGP_Topology_2.RC1.ethernet encapPk:count 487
scalar BGP_Topology_2.RC1.ethernet encapPk:sum(packetBytes) 30321
scalar BGP_Topology_2.RC1.lo[0].lo rcvdPkFromHl:count 0
scalar BGP_Topology_2.RC1.lo[0].lo rcvdPkFromHl:sum(packetBytes) 0
scalar BGP_Topology_2.RC1.lo[0].lo passedUpPk:count 0
scalar BGP_Topology_2.RC1.lo[0].lo passedUpPk:sum(packetBytes) 0
scalar BGP_Topology_2.RC1.lo[0] packetDropInterfaceDown:count 0
scalar BGP_Topology_2.RC1.lo[0] packetDropInterfaceDown:sum(packetBytes) 0
scalar BGP_Topology_2.RC1.lo[0] packetDropNoCarrier:count 0
scalar BGP_Topology_2.RC1.lo[0] packetDropNoCarrier:sum(packetBytes) 0
scalar BGP_Topology_2.RC1.eth[0].queue.classifier packets:count 333
scalar BGP_Topology_2.RC1.eth[0].queue.classifier packetLengths:sum 201776
scalar BGP_Topology_2.RC1.eth[0].queue.pauseQueue queueLength:last 0
scalar BGP_Topology_2.RC1.eth[0].queue.pauseQueue queueLength:max 0
scalar BGP_Topology_2.RC1.eth[0].queue.pauseQueue queueLength:timeavg 0
scalar BGP_Topology_2.RC1.eth[0].queue.pauseQueue queueBitLength:last 0
scalar BGP_Topology_2.RC1.eth[0].queue.pauseQueue queueBitLength:max 0
scalar BGP_Topology_2.RC1.eth[0].queue.pauseQueue queueBitLength:timeavg 0
scalar BGP_Topology_2.RC1.eth[0].queue.pauseQueue outgoingPackets:count 0
scalar BGP_Topology_2.RC1.eth[0].queue.pauseQueue outgoingPacketLengths:sum 0
scalar BGP_Topology_2.RC1.eth[0].queue.pauseQueue incomingPackets:count 0
scalar BGP_Topology_2.RC1.eth[0].queue.pauseQueue incomingPacketLengths:sum 0
scalar BGP_Topology_2.RC1.eth[0].queue.pauseQueue droppedPacketsQueueOverflow:count 0
scalar BGP_Topology_2.RC1.eth[0].queue.pauseQueue droppedPacketLengthsQueueOverflow:sum 0
scalar BGP_Topology_2.RC1.eth[0].queue.dataQueue queueLength:last 0
scalar BGP_Topology_2.RC1.eth[0].queue.dataQueue queueLength:max 4
scalar BGP_Topology_2.RC1.eth[0].queue.dataQueue queueLength:timeavg 1.7671999999999996e-07
scalar BGP_Topology_2.RC1.eth[0].queue.dataQueue queueBitLength:last 0
scalar BGP_Topology_2.RC1.eth[0].queue.dataQueue queueBitLength:max 3712
scalar BGP_Topology_2.RC1.eth[0].queue.dataQueue queueBitLength:timeavg 0.00015124159999999997
scalar BGP_Topology_2.RC1.eth[0].queue.dataQueue outgoingPackets:count 333
scalar BGP_Topology_2.RC1.eth[0].queue.dataQueue outgoingPacketLengths:sum 201776
scalar BGP_Topology_2.RC1.eth[0].queue.dataQueue incomingPackets:count 333
scalar BGP_Topology_2.RC1.eth[0].queue.dataQueue incomingPacketLengths:sum 201776
scalar BGP_Topology_2.RC1.eth[0].queue.dataQueue droppedPacketsQueueOverflow:count 0
scalar BGP_Topology_2.RC1.eth[0].queue.dataQueue droppedPacketLengthsQueueOverflow:sum 0
scalar BGP_Topology_2.RC1.eth[0].queue.scheduler packets:count 333
scalar BGP_Topology_2.RC1.eth[0].queue.scheduler packetLengths:sum 201776
scalar BGP_Topology_2.RC1.eth[0].queue queueLength:last -333
scalar BGP_Topology_2.RC1.eth[0].queue queueLength:max 0
scalar BGP_Topology_2.RC1.eth[0].queue queueLength:timeavg -179.83463534214923
scalar BGP_Topology_2.RC1.eth[0].queue queueBitLength:last -201776
scalar BGP_Topology_2.RC1.eth[0].queue queueBitLength:max 0
scalar BGP_Topology_2.RC1.eth[0].queue queueBitLength:timeavg -113249.08567526488
scalar BGP_Topology_2.RC1.eth[0].queue outgoingPackets:count 333
scalar BGP_Topology_2.RC1.eth[0].queue outgoingPacketLengths:sum 201776
scalar BGP_Topology_2.RC1.eth[0].queue incomingPackets:count 0
scalar BGP_Topology_2.RC1.eth[0].queue incomingPacketLengths:sum 0
scalar BGP_Topology_2.RC1.eth[0].queue droppedPacketsQueueOverflow:count 0
scalar BGP_Topology_2.RC1.eth[0].queue droppedPacketLengthsQueueOverflow:sum 0
scalar BGP_Topology_2.RC1.eth[0].mac "simulated time" 1000
scalar BGP_Topology_2.RC1.eth[0].mac full-duplex 1
scalar BGP_Topology_2.RC1.eth[0].mac "frames/sec sent" 0.33300000000000002
scalar BGP_Topology_2.RC1.eth[0].mac "frames/sec rcvd" 0.14499999999999999
scalar BGP_Topology_2.RC1.eth[0].mac "bits/sec sent" 202.928
scalar BGP_Topology_2.RC1.eth[0].mac "bits/sec rcvd" 105.872
scalar BGP_Topology_2.RC1.eth[0].mac "rx channel idle (%)" 99.999884847999994
scalar BGP_Topology_2.RC1.eth[0].mac "rx channel utilization (%)" 0.000115152
scalar BGP_Topology_2.RC1.eth[0].mac rxPausePkUnits:count 0
scalar BGP_Topology_2.RC1.eth[0].mac rxPausePkUnits:sum 0
scalar BGP_Topology_2.RC1.eth[0].mac txPausePkUnits:count 0
scalar BGP_Topology_2.RC1.eth[0].mac txPausePkUnits:sum 0
scalar BGP_Topology_2.RC1.eth[0].mac rxPkOk:count 145
scalar BGP_Topology_2.RC1.eth[0].mac rxPkOk:sum(packetBytes) 13234
scalar BGP_Topology_2.RC1.eth[0].mac txPk:count 333
scalar BGP_Topology_2.RC1.eth[0].mac txPk:sum(packetBytes) 25366
scalar BGP_Topology_2.RC1.eth[0].mac packetReceivedFromUpper:count 333
scalar BGP_Topology_2.RC1.eth[0].mac packetReceivedFromUpper:sum(packetBytes) 25222
scalar BGP_Topology_2.RC1.eth[0].mac passedUpPk:count 145
scalar BGP_Topology_2.RC1.eth[0].mac passedUpPk:sum(packetBytes) 13234
scalar BGP_Topology_2.RC1.eth[0].mac packetDropIncorrectlyReceived:count 0
scalar BGP_Topology_2.RC1.eth[0].mac packetDropIncorrectlyReceived:sum(packetBytes) 0
scalar BGP_Topology_2.RC1.eth[0].mac packetDropInterfaceDown:count 0
scalar BGP_Topology_2.RC1.eth[0].mac packetDropInterfaceDown:sum(packetBytes) 0
scalar BGP_Topology_2.RC1.eth[0].mac packetDropNotAddressedToUs:count 0
scalar BGP_Topology_2.RC1.eth[0].mac packetDropNotAddressedToUs:sum(packetBytes) 0
scalar BGP_Topology_2.RC1.eth[0] packetDropInterfaceDown:count 0
scalar BGP_Topology_2.RC1.eth[0] packetDropInterfaceDown:sum(packetBytes) 0
scalar BGP_Topology_2.RC1.eth[0] packetDropNoCarrier:count 0
scalar BGP_Topology_2.RC1.eth[0] packetDropNoCarrier:sum(packetBytes) 0
scalar BGP_Topology_2.RC1.eth[1].queue.classifier packets:count 139
scalar BGP_Topology_2.RC1.eth[1].queue.classifier packetLengths:sum 101104
scalar BGP_Topology_2.RC1.eth[1].queue.pauseQueue queueLength:last 0
scalar BGP_Topology_2.RC1.eth[1].queue.pauseQueue queueLength:max 0
scalar BGP_Topology_2.RC1.eth[1].queue.pauseQueue queueLength:timeavg 0
scalar BGP_Topology_2.RC1.eth[1].queue.pauseQueue queueBitLength:last 0
scalar BGP_Topology_2.RC1.eth[1].queue.pauseQueue queueBitLength:max 0
scalar BGP_Topology_2.RC1.eth[1].queue.pauseQueue queueBitLength:timeavg 0
scalar BGP_Topology_2.RC1.eth[1].queue.pauseQueue outgoingPackets:count 0
scalar BGP_Topology_2.RC1.eth[1].queue.pauseQueue outgoingPacketLengths:sum 0
scalar BGP_Topology_2.RC1.eth[1].queue.pauseQueue incomingPackets:count 0
scalar BGP_Topology_2.RC1.eth[1].queue.pauseQueue incomingPacketLengths:sum 0
scalar BGP_Topology_2.RC1.eth[1].queue.pauseQueue droppedPacketsQueueOverflow:count 0
scalar BGP_Topology_2.RC1.eth[1].queue.pauseQueue droppedPacketLengthsQueueOverflow:sum 0
scalar BGP_Topology_2.RC1.eth[1].queue.dataQueue queueLength:last 0
scalar BGP_Topology_2.RC1.eth[1].queue.dataQueue queueLength:max 3
scalar BGP_Topology_2.RC1.eth[1].queue.dataQueue queueLength:timeavg 1.6214000000000002e-07
scalar BGP_Topology_2.RC1.eth[1].queue.dataQueue queueBitLength:last 0
scalar BGP_Topology_2.RC1.eth[1].queue.dataQueue queueBitLength:max 2736
scalar BGP_Topology_2.RC1.eth[1].queue.dataQueue queueBitLength:timeavg 0.00014474336000000002
scalar BGP_Topology_2.RC1.eth[1].queue.dataQueue outgoingPackets:count 139
scalar BGP_Topology_2.RC1.eth[1].queue.dataQueue outgoingPacketLengths:sum 101104
scalar BGP_Topology_2.RC1.eth[1].queue.dataQueue incomingPackets:count 139
scalar BGP_Topology_2.RC1.eth[1].queue.dataQueue incomingPacketLengths:sum 101104
scalar BGP_Topology_2.RC1.eth[1].queue.dataQueue droppedPacketsQueueOverflow:count 0
scalar BGP_Topology_2.RC1.eth[1].queue.dataQueue droppedPacketLengthsQueueOverflow:sum 0
scalar BGP_Topology_2.RC1.eth[1].queue.scheduler packets:count 139
scalar BGP_Topology_2.RC1.eth[1].queue.scheduler packetLengths:sum 101104
scalar BGP_Topology_2.RC1.eth[1].queue queueLength:last -139
scalar BGP_Topology_2.RC1.eth[1].queue queueLength:max 0
scalar BGP_Topology_2.RC1.eth[1].queue queueLength:timeavg -88.406209552306933
scalar BGP_Topology_2.RC1.eth[1].queue queueBitLength:last -101104
scalar BGP_Topology_2.RC1.eth[1].queue queueBitLength:max 0
scalar BGP_Topology_2.RC1.eth[1].queue queueBitLength:timeavg -66117.473910906701
scalar BGP_Topology_2.RC1.eth[1].queue outgoingPackets:count 139
scalar BGP_Topology_2.RC1.eth[1].queue outgoingPacketLengths:sum 101104
scalar BGP_Topology_2.RC1.eth[1].queue incomingPackets:count 0
scalar BGP_Topology_2.RC1.eth[1].queue incomingPacketLengths:sum 0
scalar BGP_Topology_2.RC1.eth[1].queue droppedPacketsQueueOverflow:count 0
scalar BGP_Topology_2.RC1.eth[1].queue droppedPacketLengthsQueueOverflow:sum 0
scalar BGP_Topology_2.RC1.eth[1].mac "simulated time" 1000
scalar BGP_Topology_2.RC1.eth[1].mac full-duplex 1
scalar BGP_Topology_2.RC1.eth[1].mac "frames/sec sent" 0.13900000000000001
scalar BGP_Topology_2.RC1.eth[1].mac "frames/sec rcvd" 0.14899999999999999
scalar BGP_Topology_2.RC1.eth[1].mac "bits/sec sent" 101.248
scalar BGP_Topology_2.RC1.eth[1].mac "bits/sec rcvd" 110.23999999999999
scalar BGP_Topology_2.RC1.eth[1].mac "rx channel idle (%)" 99.999880224000009
scalar BGP_Topology_2.RC1.eth[1].mac "rx channel utilization (%)" 0.000119776
scalar BGP_Topology_2.RC1.eth[1].mac rxPausePkUnits:count 0
scalar BGP_Topology_2.RC1.eth[1].mac rxPausePkUnits:sum 0
scalar BGP_Topology_2.RC1.eth[1].mac txPausePkUnits:count 0
scalar BGP_Topology_2.RC1.eth[1].mac txPausePkUnits:sum 0
scalar BGP_Topology_2.RC1.eth[1].mac rxPkOk:count 149
scalar BGP_Topology_2.RC1.eth[1].mac rxPkOk:sum(packetBytes) 13780
scalar BGP_Topology_2.RC1.eth[1].mac txPk:count 139
scalar BGP_Topology_2.RC1.eth[1].mac txPk:sum(packetBytes) 12656
scalar BGP_Topology_2.RC1.eth[1].mac packetReceivedFromUpper:count 139
scalar BGP_Topology_2.RC1.eth[1].mac packetReceivedFromUpper:sum(packetBytes) 12638
scalar BGP_Topology_2.RC1.eth[1].mac passedUpPk:count 149
scalar BGP_Topology_2.RC1.eth[1].mac passedUpPk:sum(packetBytes) 13780
scalar BGP_Topology_2.RC1.eth[1].mac packetDropIncorrectlyReceived:count 0
scalar BGP_Topology_2.RC1.eth[1].mac packetDropIncorrectlyReceived:sum(packetBytes) 0
scalar BGP_Topology_2.RC1.eth[1].mac packetDropInterfaceDown:count 0
scalar BGP_Topology_2.RC1.eth[1].mac packetDropInterfaceDown:sum(packetBytes) 0
scalar BGP_Topology_2.RC1.eth[1].mac packetDropNotAddressedToUs:count 0
scalar BGP_Topology_2.RC1.eth[1].mac packetDropNotAddressedToUs:sum(packetBytes) 0
scalar BGP_Topology_2.RC1.eth[1] packetDropInterfaceDown:count 0
scalar BGP_Topology_2.RC1.eth[1] packetDropInterfaceDown:sum(packetBytes) 0
scalar BGP_Topology_2.RC1.eth[1] packetDropNoCarrier:count 0
scalar BGP_Topology_2.RC1.eth[1] packetDropNoCarrier:sum(packetBytes) 0
scalar BGP_Topology_2.RC1.eth[2].queue.classifier packets:count 15
scalar BGP_Topology_2.RC1.eth[2].queue.classifier packetLengths:sum 9816
scalar BGP_Topology_2.RC1.eth[2].queue.pauseQueue queueLength:last 0
scalar BGP_Topology_2.RC1.eth[2].queue.pauseQueue queueLength:max 0
scalar BGP_Topology_2.RC1.eth[2].queue.pauseQueue queueLength:timeavg 0
scalar BGP_Topology_2.RC1.eth[2].queue.pauseQueue queueBitLength:last 0
scalar BGP_Topology_2.RC1.eth[2].queue.pauseQueue queueBitLength:max 0
scalar BGP_Topology_2.RC1.eth[2].queue.pauseQueue queueBitLength:timeavg 0
scalar BGP_Topology_2.RC1.eth[2].queue.pauseQueue outgoingPackets:count 0
scalar BGP_Topology_2.RC1.eth[2].queue.pauseQueue outgoingPacketLengths:sum 0
scalar BGP_Topology_2.RC1.eth[2].queue.pauseQueue incomingPackets:count 0
scalar BGP_Topology_2.RC1.eth[2].queue.pauseQueue incomingPacketLengths:sum 0
scalar BGP_Topology_2.RC1.eth[2].queue.pauseQueue droppedPacketsQueueOverflow:count 0
scalar BGP_Topology_2.RC1.eth[2].queue.pauseQueue droppedPacketLengthsQueueOverflow:sum 0
scalar BGP_Topology_2.RC1.eth[2].queue.dataQueue queueLength:last 0
scalar BGP_Topology_2.RC1.eth[2].queue.dataQueue queueLength:max 1
scalar BGP_Topology_2.RC1.eth[2].queue.dataQueue queueLength:timeavg 4.4620000000000005e-08
scalar BGP_Topology_2.RC1.eth[2].queue.dataQueue queueBitLength:last 0
scalar BGP_Topology_2.RC1.eth[2].queue.dataQueue queueBitLength:max 3040
scalar BGP_Topology_2.RC1.eth[2].queue.dataQueue queueBitLength:timeavg 2.6582560000000003e-05
scalar BGP_Topology_2.RC1.eth[2].queue.dataQueue outgoingPackets:count 15
scalar BGP_Topology_2.RC1.eth[2].queue.dataQueue outgoingPacketLengths:sum 9816
scalar BGP_Topology_2.RC1.eth[2].queue.dataQueue incomingPackets:count 15
scalar BGP_Topology_2.RC1.eth[2].queue.dataQueue incomingPacketLengths:sum 9816
scalar BGP_Topology_2.RC1.eth[2].queue.dataQueue droppedPacketsQueueOverflow:count 0
scalar BGP_Topology_2.RC1.eth[2].queue.dataQueue droppedPacketLengthsQueueOverflow:sum 0
scalar BGP_Topology_2.RC1.eth[2].queue.scheduler packets:count 15
scalar BGP_Topology_2.RC1.eth[2].queue.scheduler packetLengths:sum 9816
scalar BGP_Topology_2.RC1.eth[2].queue queueLength:last -15
scalar BGP_Topology_2.RC1.eth[2].queue queueLength:max 0
scalar BGP_Topology_2.RC1.eth[2].queue queueLength:timeavg -13.58349956338
scalar BGP_Topology_2.RC1.eth[2].queue queueBitLength:last -9816
scalar BGP_Topology_2.RC1.eth[2].queue queueBitLength:max 0
scalar BGP_Topology_2.RC1.eth[2].queue queueBitLength:timeavg -8994.1156669887987
scalar BGP_Topology_2.RC1.eth[2].queue outgoingPackets:count 15
scalar BGP_Topology_2.RC1.eth[2].queue outgoingPacketLengths:sum 9816
scalar BGP_Topology_2.RC1.eth[2].queue incomingPackets:count 0
scalar BGP_Topology_2.RC1.eth[2].queue incomingPacketLengths:sum 0
scalar BGP_Topology_2.RC1.eth[2].queue droppedPacketsQueueOverflow:count 0
scalar BGP_Topology_2.RC1.eth[2].queue droppedPacketLengthsQueueOverflow:sum 0
scalar BGP_Topology_2.RC1.eth[2].mac "simulated time" 1000
scalar BGP_Topology_2.RC1.eth[2].mac full-duplex 1
scalar BGP_Topology_2.RC1.eth[2].mac "frames/sec sent" 0.014999999999999999
scalar BGP_Topology_2.RC1.eth[2].mac "frames/sec rcvd" 0.014
scalar BGP_Topology_2.RC1.eth[2].mac "bits/sec sent" 10.6
scalar BGP_Topology_2.RC1.eth[2].mac "bits/sec rcvd" 7.8799999999999999
scalar BGP_Topology_2.RC1.eth[2].mac "rx channel idle (%)" 99.999991223999999
scalar BGP_Topology_2.RC1.eth[2].mac "rx channel utilization (%)" 8.7760000000000003e-06
scalar BGP_Topology_2.RC1.eth[2].mac rxPausePkUnits:count 0
scalar BGP_Topology_2.RC1.eth[2].mac rxPausePkUnits:sum 0
scalar BGP_Topology_2.RC1.eth[2].mac txPausePkUnits:count 0
scalar BGP_Topology_2.RC1.eth[2].mac txPausePkUnits:sum 0
scalar BGP_Topology_2.RC1.eth[2].mac rxPkOk:count 14
scalar BGP_Topology_2.RC1.eth[2].mac rxPkOk:sum(packetBytes) 985
scalar BGP_Topology_2.RC1.eth[2].mac txPk:count 15
scalar BGP_Topology_2.RC1.eth[2].mac txPk:sum(packetBytes) 1325
scalar BGP_Topology_2.RC1.eth[2].mac packetReceivedFromUpper:count 15
scalar BGP_Topology_2.RC1.eth[2].mac packetReceivedFromUpper:sum(packetBytes) 1227
scalar BGP_Topology_2.RC1.eth[2].mac passedUpPk:count 14
scalar BGP_Topology_2.RC1.eth[2].mac passedUpPk:sum(packetBytes) 985
scalar BGP_Topology_2.RC1.eth[2].mac packetDropIncorrectlyReceived:count 0
scalar BGP_Topology_2.RC1.eth[2].mac packetDropIncorrectlyReceived:sum(packetBytes) 0
scalar BGP_Topology_2.RC1.eth[2].mac packetDropInterfaceDown:count 0
scalar BGP_Topology_2.RC1.eth[2].mac packetDropInterfaceDown:sum(packetBytes) 0
scalar BGP_Topology_2.RC1.eth[2].mac packetDropNotAddressedToUs:count 0
scalar BGP_Topology_2.RC1.eth[2].mac packetDropNotAddressedToUs:sum(packetBytes) 0
scalar BGP_Topology_2.RC1.eth[2] packetDropInterfaceDown:count 0
scalar BGP_Topology_2.RC1.eth[2] packetDropInterfaceDown:sum(packetBytes) 0
scalar BGP_Topology_2.RC1.eth[2] packetDropNoCarrier:count 0
scalar BGP_Topology_2.RC1.eth[2] packetDropNoCarrier:sum(packetBytes) 0
scalar BGP_Topology_2.RC1.ipv4.ip packetDropAddressResolutionFailed:count 0
scalar BGP_Topology_2.RC1.ipv4.ip packetDropAddressResolutionFailed:sum(packetBytes) 0
scalar BGP_Topology_2.RC1.ipv4.ip packetDropHopLimitReached:count 0
scalar BGP_Topology_2.RC1.ipv4.ip packetDropHopLimitReached:sum(packetBytes) 0
scalar BGP_Topology_2.RC1.ipv4.ip packetDropForwardingDisabled:count 0
scalar BGP_Topology_2.RC1.ipv4.ip packetDropForwardingDisabled:sum(packetBytes) 0
scalar BGP_Topology_2.RC1.ipv4.ip packetDropLifetimeExpired:count 0
scalar BGP_Topology_2.RC1.ipv4.ip packetDropLifetimeExpired:sum(packetBytes) 0
scalar BGP_Topology_2.RC1.ipv4.ip packetDropNoInterfaceFound:count 0
scalar BGP_Topology_2.RC1.ipv4.ip packetDropNoInterfaceFound:sum(packetBytes) 0
scalar BGP_Topology_2.RC1.ipv4.ip packetDropNoRouteFound:count 0
scalar BGP_Topology_2.RC1.ipv4.ip packetDropNoRouteFound:sum(packetBytes) 0
scalar BGP_Topology_2.RC1.ipv4.ip packetDropUndefined:count 0
scalar BGP_Topology_2.RC1.ipv4.ip packetDropUndefined:sum(packetBytes) 0
scalar BGP_Topology_2.RC1.ipv4.arp arpResolutionFailed:count 0
scalar BGP_Topology_2.RC1.ipv4.arp arpResolutionCompleted:count 12
scalar BGP_Topology_2.RC1.ipv4.arp arpResolutionInitiated:count 9
scalar BGP_Topology_2.RC1.ipv4.arp arpReplySent:count 3
scalar BGP_Topology_2.RC1.ipv4.arp arpReplySent:sum(packetBytes) 84
scalar BGP_Topology_2.RC1.ipv4.arp arpRequestSent:count 9
scalar BGP_Topology_2.RC1.ipv4.arp arpRequestSent:sum(packetBytes) 252
scalar BGP_Topology_2.RC1.bgp OPENMsgSent 1
scalar BGP_Topology_2.RC1.bgp OPENMsgRecv 1
scalar BGP_Topology_2.RC1.bgp KeepAliveMsgSent 2
scalar BGP_Topology_2.RC1.bgp KeepAliveMsgRcv 2
scalar BGP_Topology_2.RC1.bgp UpdateMsgSent 7
scalar BGP_Topology_2.RC1.bgp UpdateMsgRcv 1
scalar BGP_Topology_2.RC2.ethernet pauseSent:count 0
scalar BGP_Topology_2.RC2.ethernet pauseSent:sum 0
scalar BGP_Topology_2.RC2.ethernet decapPk:count 468
scalar BGP_Topology_2.RC2.ethernet decapPk:sum(packetBytes) 29494
scalar BGP_Topology_2.RC2.ethernet encapPk:count 275
scalar BGP_Topology_2.RC2.ethernet encapPk:sum(packetBytes) 19936
scalar BGP_Topology_2.RC2.lo[0].lo rcvdPkFromHl:count 0
scalar BGP_Topology_2.RC2.lo[0].lo rcvdPkFromHl:sum(packetBytes) 0
scalar BGP_Topology_2.RC2.lo[0].lo passedUpPk:count 0
scalar BGP_Topology_2.RC2.lo[0].lo passedUpPk:sum(packetBytes) 0
scalar BGP_Topology_2.RC2.lo[0] packetDropInterfaceDown:count 0
scalar BGP_Topology_2.RC2.lo[0] packetDropInterfaceDown:sum(packetBytes) 0
scalar BGP_Topology_2.RC2.lo[0] packetDropNoCarrier:count 0
scalar BGP_Topology_2.RC2.lo[0] packetDropNoCarrier:sum(packetBytes) 0
scalar BGP_Topology_2.RC2.eth[0].queue.classifier packets:count 145
scalar BGP_Topology_2.RC2.eth[0].queue.classifier packetLengths:sum 104720
scalar BGP_Topology_2.RC2.eth[0].queue.pauseQueue queueLength:last 0
scalar BGP_Topology_2.RC2.eth[0].queue.pauseQueue queueLength:max 0
scalar BGP_Topology_2.RC2.eth[0].queue.pauseQueue queueLength:timeavg 0
scalar BGP_Topology_2.RC2.eth[0].queue.pauseQueue queueBitLength:last 0
scalar BGP_Topology_2.RC2.eth[0].queue.pauseQueue queueBitLength:max 0
scalar BGP_Topology_2.RC2.eth[0].queue.pauseQueue queueBitLength:timeavg 0
scalar BGP_Topology_2.RC2.eth[0].queue.pauseQueue outgoingPackets:count 0
scalar BGP_Topology_2.RC2.eth[0].queue.pauseQueue outgoingPacketLengths:sum 0
scalar BGP_Topology_2.RC2.eth[0].queue.pauseQueue incomingPackets:count 0
scalar BGP_Topology_2.RC2.eth[0].queue.pauseQueue incomingPacketLengths:sum 0
scalar BGP_Topology_2.RC2.eth[0].queue.pauseQueue droppedPacketsQueueOverflow:count 0
scalar BGP_Topology_2.RC2.eth[0].queue.pauseQueue droppedPacketLengthsQueueOverflow:sum 0
scalar BGP_Topology_2.RC2.eth[0].queue.dataQueue queueLength:last 0
scalar BGP_Topology_2.RC2.eth[0].queue.dataQueue queueLength:max 4
scalar BGP_Topology_2.RC2.eth[0].queue.dataQueue queueLength:timeavg 2.2143999999999998e-07
scalar BGP_Topology_2.RC2.eth[0].queue.dataQueue queueBitLength:last 0
scalar BGP_Topology_2.RC2.eth[0].queue.dataQueue queueBitLength:max 3808
scalar BGP_Topology_2.RC2.eth[0].queue.dataQueue queueBitLength:timeavg 0.00019841663999999997
scalar BGP_Topology_2.RC2.eth[0].queue.dataQueue outgoingPackets:count 145
scalar BGP_Topology_2.RC2.eth[0].queue.dataQueue outgoingPacketLengths:sum 104720
scalar BGP_Topology_2.RC2.eth[0].queue.dataQueue incomingPackets:count 145
scalar BGP_Topology_2.RC2.eth[0].queue.dataQueue incomingPacketLengths:sum 104720
scalar BGP_Topology_2.RC2.eth[0].queue.dataQueue droppedPacketsQueueOverflow:count 0
scalar BGP_Topology_2.RC2.eth[0].queue.dataQueue droppedPacketLengthsQueueOverflow:sum 0
scalar BGP_Topology_2.RC2.eth[0].queue.scheduler packets:count 145
scalar BGP_Topology_2.RC2.eth[0].queue.scheduler packetLengths:sum 104720
scalar BGP_Topology_2.RC2.eth[0].queue queueLength:last -145
scalar BGP_Topology_2.RC2.eth[0].queue queueLength:max 0
scalar BGP_Topology_2.RC2.eth[0].queue queueLength:timeavg -90.85775267504934
scalar BGP_Topology_2.RC2.eth[0].queue queueBitLength:last -104720
scalar BGP_Topology_2.RC2.eth[0].queue queueBitLength:max 0
scalar BGP_Topology_2.RC2.eth[0].queue queueBitLength:timeavg -68354.999447964728
scalar BGP_Topology_2.RC2.eth[0].queue outgoingPackets:count 145
scalar BGP_Topology_2.RC2.eth[0].queue outgoingPacketLengths:sum 104720
scalar BGP_Topology_2.RC2.eth[0].queue incomingPackets:count 0
scalar BGP_Topology_2.RC2.eth[0].queue incomingPacketLengths:sum 0
scalar BGP_Topology_2.RC2.eth[0].queue droppedPacketsQueueOverflow:count 0
scalar BGP_Topology_2.RC2.eth[0].queue droppedPacketLengthsQueueOverflow:sum 0
scalar BGP_Topology_2.RC2.eth[0].mac "simulated time" 1000
scalar BGP_Topology_2.RC2.eth[0].mac full-duplex 1
scalar BGP_Topology_2.RC2.eth[0].mac "frames/sec sent" 0.14499999999999999
scalar BGP_Topology_2.RC2.eth[0].mac "frames/sec rcvd" 0.33300000000000002
scalar BGP_Topology_2.RC2.eth[0].mac "bits/sec sent" 105.872
scalar BGP_Topology_2.RC2.eth[0].mac "bits/sec rcvd" 202.928
scalar BGP_Topology_2.RC2.eth[0].mac "rx channel idle (%)" 99.999775759999991
scalar BGP_Topology_2.RC2.eth[0].mac "rx channel utilization (%)" 0.00022423999999999998
scalar BGP_Topology_2.RC2.eth[0].mac rxPausePkUnits:count 0
scalar BGP_Topology_2.RC2.eth[0].mac rxPausePkUnits:sum 0
scalar BGP_Topology_2.RC2.eth[0].mac txPausePkUnits:count 0
scalar BGP_Topology_2.RC2.eth[0].mac txPausePkUnits:sum 0
scalar BGP_Topology_2.RC2.eth[0].mac rxPkOk:count 333
scalar BGP_Topology_2.RC2.eth[0].mac rxPkOk:sum(packetBytes) 25366
scalar BGP_Topology_2.RC2.eth[0].mac txPk:count 145
scalar BGP_Topology_2.RC2.eth[0].mac txPk:sum(packetBytes) 13234
scalar BGP_Topology_2.RC2.eth[0].mac packetReceivedFromUpper:count 145
scalar BGP_Topology_2.RC2.eth[0].mac packetReceivedFromUpper:sum(packetBytes) 13090
scalar BGP_Topology_2.RC2.eth[0].mac passedUpPk:count 333
scalar BGP_Topology_2.RC2.eth[0].mac passedUpPk:sum(packetBytes) 25366
scalar BGP_Topology_2.RC2.eth[0].mac packetDropIncorrectlyReceived:count 0
scalar BGP_Topology_2.RC2.eth[0].mac packetDropIncorrectlyReceived:sum(packetBytes) 0
scalar BGP_Topology_2.RC2.eth[0].mac packetDropInterfaceDown:count 0
scalar BGP_Topology_2.RC2.eth[0].mac packetDropInterfaceDown:sum(packetBytes) 0
scalar BGP_Topology_2.RC2.eth[0].mac packetDropNotAddressedToUs:count 0
scalar BGP_Topology_2.RC2.eth[0].mac packetDropNotAddressedToUs:sum(packetBytes) 0
scalar BGP_Topology_2.RC2.eth[0] packetDropInterfaceDown:count 0
scalar BGP_Topology_2.RC2.eth[0] packetDropInterfaceDown:sum(packetBytes) 0
scalar BGP_Topology_2.RC2.eth[0] packetDropNoCarrier:count 0
scalar BGP_Topology_2.RC2.eth[0] packetDropNoCarrier:sum(packetBytes) 0
scalar BGP_Topology_2.RC2.eth[1].queue.classifier packets:count 130
scalar BGP_Topology_2.RC2.eth[1].queue.classifier packetLengths:sum 94368
scalar BGP_Topology_2.RC2.eth[1].queue.pauseQueue queueLength:last 0
scalar BGP_Topology_2.RC2.eth[1].queue.pauseQueue queueLength:max 0
scalar BGP_Topology_2.RC2.eth[1].queue.pauseQueue queueLength:timeavg 0
scalar BGP_Topology_2.RC2.eth[1].queue.pauseQueue queueBitLength:last 0
scalar BGP_Topology_2.RC2.eth[1].queue.pauseQueue queueBitLength:max 0
scalar BGP_Topology_2.RC2.eth[1].queue.pauseQueue queueBitLength:timeavg 0
scalar BGP_Topology_2.RC2.eth[1].queue.pauseQueue outgoingPackets:count 0
scalar BGP_Topology_2.RC2.eth[1].queue.pauseQueue outgoingPacketLengths:sum 0
scalar BGP_Topology_2.RC2.eth[1].queue.pauseQueue incomingPackets:count 0
scalar BGP_Topology_2.RC2.eth[1].queue.pauseQueue incomingPacketLengths:sum 0
scalar BGP_Topology_2.RC2.eth[1].queue.pauseQueue droppedPacketsQueueOverflow:count 0
scalar BGP_Topology_2.RC2.eth[1].queue.pauseQueue droppedPacketLengthsQueueOverflow:sum 0
scalar BGP_Topology_2.RC2.eth[1].queue.dataQueue queueLength:last 0
scalar BGP_Topology_2.RC2.eth[1].queue.dataQueue queueLength:max 2
scalar BGP_Topology_2.RC2.eth[1].queue.dataQueue queueLength:timeavg 1.5551999999999998e-07
scalar BGP_Topology_2.RC2.eth[1].queue.dataQueue queueBitLength:last 0
scalar BGP_Topology_2.RC2.eth[1].queue.dataQueue queueBitLength:max 2016
scalar BGP_Topology_2.RC2.eth[1].queue.dataQueue queueBitLength:timeavg 0.00014056447999999998
scalar BGP_Topology_2.RC2.eth[1].queue.dataQueue outgoingPackets:count 130
scalar BGP_Topology_2.RC2.eth[1].queue.dataQueue outgoingPacketLengths:sum 94368
scalar BGP_Topology_2.RC2.eth[1].queue.dataQueue incomingPackets:count 130
scalar BGP_Topology_2.RC2.eth[1].queue.dataQueue incomingPacketLengths:sum 94368
scalar BGP_Topology_2.RC2.eth[1].queue.dataQueue droppedPacketsQueueOverflow:count 0
scalar BGP_Topology_2.RC2.eth[1].queue.dataQueue droppedPacketLengthsQueueOverflow:sum 0
scalar BGP_Topology_2.RC2.eth[1].queue.scheduler packets:count 130
scalar BGP_Topology_2.RC2.eth[1].queue.scheduler packetLengths:sum 94368
scalar BGP_Topology_2.RC2.eth[1].queue queueLength:last -130
scalar BGP_Topology_2.RC2.eth[1].queue queueLength:max 0
scalar BGP_Topology_2.RC2.eth[1].queue queueLength:timeavg -79.628000327769342
scalar BGP_Topology_2.RC2.eth[1].queue queueBitLength:last -94368
scalar BGP_Topology_2.RC2.eth[1].queue queueBitLength:max 0
scalar BGP_Topology_2.RC2.eth[1].queue queueBitLength:timeavg -59549.402496961186
scalar BGP_Topology_2.RC2.eth[1].queue outgoingPackets:count 130
scalar BGP_Topology_2.RC2.eth[1].queue outgoingPacketLengths:sum 94368
scalar BGP_Topology_2.RC2.eth[1].queue incomingPackets:count 0
scalar BGP_Topology_2.RC2.eth[1].queue incomingPacketLengths:sum 0
scalar BGP_Topology_2.RC2.eth[1].queue droppedPacketsQueueOverflow:count 0
scalar BGP_Topology_2.RC2.eth[1].queue droppedPacketLengthsQueueOverflow:sum 0
scalar BGP_Topology_2.RC2.eth[1].mac "simulated time" 1000
scalar BGP_Topology_2.RC2.eth[1].mac full-duplex 1
scalar BGP_Topology_2.RC2.eth[1].mac "frames/sec sent" 0.13
scalar BGP_Topology_2.RC2.eth[1].mac "frames/sec rcvd" 0.13500000000000001
scalar BGP_Topology_2.RC2.eth[1].mac "bits/sec sent" 94.512
scalar BGP_Topology_2.RC2.eth[1].mac "bits/sec rcvd" 100.416
scalar BGP_Topology_2.RC2.eth[1].mac "rx channel idle (%)" 99.999890944000001
scalar BGP_Topology_2.RC2.eth[1].mac "rx channel utilization (%)" 0.00010905599999999999
scalar BGP_Topology_2.RC2.eth[1].mac rxPausePkUnits:count 0
scalar BGP_Topology_2.RC2.eth[1].mac rxPausePkUnits:sum 0
scalar BGP_Topology_2.RC2.eth[1].mac txPausePkUnits:count 0
scalar BGP_Topology_2.RC2.eth[1].mac txPausePkUnits:sum 0
scalar BGP_Topology_2.RC2.eth[1].mac rxPkOk:count 135
scalar BGP_Topology_2.RC2.eth[1].mac rxPkOk:sum(packetBytes) 12552
scalar BGP_Topology_2.RC2.eth[1].mac txPk:count 130
scalar BGP_Topology_2.RC2.eth[1].mac txPk:sum(packetBytes) 11814
scalar BGP_Topology_2.RC2.eth[1].mac packetReceivedFromUpper:count 130
scalar BGP_Topology_2.RC2.eth[1].mac packetReceivedFromUpper:sum(packetBytes) 11796
scalar BGP_Topology_2.RC2.eth[1].mac passedUpPk:count 135
scalar BGP_Topology_2.RC2.eth[1].mac passedUpPk:sum(packetBytes) 12552
scalar BGP_Topology_2.RC2.eth[1].mac packetDropIncorrectlyReceived:count 0
scalar BGP_Topology_2.RC2.eth[1].mac packetDropIncorrectlyReceived:sum(packetBytes) 0
scalar BGP_Topology_2.RC2.eth[1].mac packetDropInterfaceDown:count 0
scalar BGP_Topology_2.RC2.eth[1].mac packetDropInterfaceDown:sum(packetBytes) 0
scalar BGP_Topology_2.RC2.eth[1].mac packetDropNotAddressedToUs:count 0
scalar BGP_Topology_2.RC2.eth[1].mac packetDropNotAddressedToUs:sum(packetBytes) 0
scalar BGP_Topology_2.RC2.eth[1] packetDropInterfaceDown:count 0
scalar BGP_Topology_2.RC2.eth[1] packetDropInterfaceDown:sum(packetBytes) 0
scalar BGP_Topology_2.RC2.eth[1] packetDropNoCarrier:count 0
scalar BGP_Topology_2.RC2.eth[1] packetDropNoCarrier:sum(packetBytes) 0
scalar BGP_Topology_2.RC2.eth[2].queue.classifier packets:count 0
scalar BGP_Topology_2.RC2.eth[2].queue.classifier packetLengths:sum 0
scalar BGP_Topology_2.RC2.eth[2].queue.pauseQueue queueLength:last 0
scalar BGP_Topology_2.RC2.eth[2].queue.pauseQueue queueLength:max 0
scalar BGP_Topology_2.RC2.eth[2].queue.pauseQueue queueLength:timeavg 0
scalar BGP_Topology_2.RC2.eth[2].queue.pauseQueue queueBitLength:last 0
scalar BGP_Topology_2.RC2.eth[2].queue.pauseQueue queueBitLength:max 0
scalar BGP_Topology_2.RC2.eth[2].queue.pauseQueue queueBitLength:timeavg 0
scalar BGP_Topology_2.RC2.eth[2].queue.pauseQueue outgoingPackets:count 0
scalar BGP_Topology_2.RC2.eth[2].queue.pauseQueue outgoingPacketLengths:sum 0
scalar BGP_Topology_2.RC2.eth[2].queue.pauseQueue incomingPackets:count 0
scalar BGP_Topology_2.RC2.eth[2].queue.pauseQueue incomingPacketLengths:sum 0
scalar BGP_Topology_2.RC2.eth[2].queue.pauseQueue droppedPacketsQueueOverflow:count 0
scalar BGP_Topology_2.RC2.eth[2].queue.pauseQueue droppedPacketLengthsQueueOverflow:sum 0
scalar BGP_Topology_2.RC2.eth[2].queue.dataQueue queueLength:last 0
scalar BGP_Topology_2.RC2.eth[2].queue.dataQueue queueLength:max 0
scalar BGP_Topology_2.RC2.eth[2].queue.dataQueue queueLength:timeavg 0
scalar BGP_Topology_2.RC2.eth[2].queue.dataQueue queueBitLength:last 0
scalar BGP_Topology_2.RC2.eth[2].queue.dataQueue queueBitLength:max 0
scalar BGP_Topology_2.RC2.eth[2].queue.dataQueue queueBitLength:timeavg 0
scalar BGP_Topology_2.RC2.eth[2].queue.dataQueue outgoingPackets:count 0
scalar BGP_Topology_2.RC2.eth[2].queue.dataQueue outgoingPacketLengths:sum 0
scalar BGP_Topology_2.RC2.eth[2].queue.dataQueue incomingPackets:count 0
scalar BGP_Topology_2.RC2.eth[2].queue.dataQueue incomingPacketLengths:sum 0
scalar BGP_Topology_2.RC2.eth[2].queue.dataQueue droppedPacketsQueueOverflow:count 0
scalar BGP_Topology_2.RC2.eth[2].queue.dataQueue droppedPacketLengthsQueueOverflow:sum 0
scalar BGP_Topology_2.RC2.eth[2].queue.scheduler packets:count 0
scalar BGP_Topology_2.RC2.eth[2].queue.scheduler packetLengths:sum 0
scalar BGP_Topology_2.RC2.eth[2].queue queueLength:last 0
scalar BGP_Topology_2.RC2.eth[2].queue queueLength:max 0
scalar BGP_Topology_2.RC2.eth[2].queue queueLength:timeavg 0
scalar BGP_Topology_2.RC2.eth[2].queue queueBitLength:last 0
scalar BGP_Topology_2.RC2.eth[2].queue queueBitLength:max 0
scalar BGP_Topology_2.RC2.eth[2].queue queueBitLength:timeavg 0
scalar BGP_Topology_2.RC2.eth[2].queue outgoingPackets:count 0
scalar BGP_Topology_2.RC2.eth[2].queue outgoingPacketLengths:sum 0
scalar BGP_Topology_2.RC2.eth[2].queue incomingPackets:count 0
scalar BGP_Topology_2.RC2.eth[2].queue incomingPacketLengths:sum 0
scalar BGP_Topology_2.RC2.eth[2].queue droppedPacketsQueueOverflow:count 0
scalar BGP_Topology_2.RC2.eth[2].queue droppedPacketLengthsQueueOverflow:sum 0
scalar BGP_Topology_2.RC2.eth[2].mac "simulated time" 1000
scalar BGP_Topology_2.RC2.eth[2].mac full-duplex 1
scalar BGP_Topology_2.RC2.eth[2].mac "frames/sec sent" 0
scalar BGP_Topology_2.RC2.eth[2].mac "frames/sec rcvd" 0
scalar BGP_Topology_2.RC2.eth[2].mac "bits/sec sent" 0
scalar BGP_Topology_2.RC2.eth[2].mac "bits/sec rcvd" 0
scalar BGP_Topology_2.RC2.eth[2].mac "rx channel idle (%)" 100
scalar BGP_Topology_2.RC2.eth[2].mac "rx channel utilization (%)" 0
scalar BGP_Topology_2.RC2.eth[2].mac rxPausePkUnits:count 0
scalar BGP_Topology_2.RC2.eth[2].mac rxPausePkUnits:sum 0
scalar BGP_Topology_2.RC2.eth[2].mac txPausePkUnits:count 0
scalar BGP_Topology_2.RC2.eth[2].mac txPausePkUnits:sum 0
scalar BGP_Topology_2.RC2.eth[2].mac rxPkOk:count 0
scalar BGP_Topology_2.RC2.eth[2].mac rxPkOk:sum(packetBytes) 0
scalar BGP_Topology_2.RC2.eth[2].mac txPk:count 0
scalar BGP_Topology_2.RC2.eth[2].mac txPk:sum(packetBytes) 0
scalar BGP_Topology_2.RC2.eth[2].mac packetReceivedFromUpper:count 0
scalar BGP_Topology_2.RC2.eth[2].mac packetReceivedFromUpper:sum(packetBytes) 0
scalar BGP_Topology_2.RC2.eth[2].mac passedUpPk:count 0
scalar BGP_Topology_2.RC2.eth[2].mac passedUpPk:sum(packetBytes) 0
scalar BGP_Topology_2.RC2.eth[2].mac packetDropIncorrectlyReceived:count 0
scalar BGP_Topology_2.RC2.eth[2].mac packetDropIncorrectlyReceived:sum(packetBytes) 0
scalar BGP_Topology_2.RC2.eth[2].mac packetDropInterfaceDown:count 0
scalar BGP_Topology_2.RC2.eth[2].mac packetDropInterfaceDown:sum(packetBytes) 0
scalar BGP_Topology_2.RC2.eth[2].mac packetDropNotAddressedToUs:count 0
scalar BGP_Topology_2.RC2.eth[2].mac packetDropNotAddressedToUs:sum(packetBytes) 0
scalar BGP_Topology_2.RC2.eth[2] packetDropInterfaceDown:count 0
scalar BGP_Topology_2.RC2.eth[2] packetDropInterfaceDown:sum(packetBytes) 0
scalar BGP_Topology_2.RC2.eth[2] packetDropNoCarrier:count 0
scalar BGP_Topology_2.RC2.eth[2] packetDropNoCarrier:sum(packetBytes) 0
scalar BGP_Topology_2.RC2.ipv4.ip packetDropAddressResolutionFailed:count 0
scalar BGP_Topology_2.RC2.ipv4.ip packetDropAddressResolutionFailed:sum(packetBytes) 0
scalar BGP_Topology_2.RC2.ipv4.ip packetDropHopLimitReached:count 0
scalar BGP_Topology_2.RC2.ipv4.ip packetDropHopLimitReached:sum(packetBytes) 0
scalar BGP_Topology_2.RC2.ipv4.ip packetDropForwardingDisabled:count 0
scalar BGP_Topology_2.RC2.ipv4.ip packetDropForwardingDisabled:sum(packetBytes) 0
scalar BGP_Topology_2.RC2.ipv4.ip packetDropLifetimeExpired:count 0
scalar BGP_Topology_2.RC2.ipv4.ip packetDropLifetimeExpired:sum(packetBytes) 0
scalar BGP_Topology_2.RC2.ipv4.ip packetDropNoInterfaceFound:count 0
scalar BGP_Topology_2.RC2.ipv4.ip packetDropNoInterfaceFound:sum(packetBytes) 0
scalar BGP_Topology_2.RC2.ipv4.ip packetDropNoRouteFound:count 0
scalar BGP_Topology_2.RC2.ipv4.ip packetDropNoRouteFound:sum(packetBytes) 0
scalar BGP_Topology_2.RC2.ipv4.ip packetDropUndefined:count 0
scalar BGP_Topology_2.RC2.ipv4.ip packetDropUndefined:sum(packetBytes) 0
scalar BGP_Topology_2.RC2.ipv4.arp arpResolutionFailed:count 0
scalar BGP_Topology_2.RC2.ipv4.arp arpResolutionCompleted:count 9
scalar BGP_Topology_2.RC2.ipv4.arp arpResolutionInitiated:count 1
scalar BGP_Topology_2.RC2.ipv4.arp arpReplySent:count 8
scalar BGP_Topology_2.RC2.ipv4.arp arpReplySent:sum(packetBytes) 224
scalar BGP_Topology_2.RC2.ipv4.arp arpRequestSent:count 1
scalar BGP_Topology_2.RC2.ipv4.arp arpRequestSent:sum(packetBytes) 28
scalar BGP_Topology_2.RC3.ethernet pauseSent:count 0
scalar BGP_Topology_2.RC3.ethernet pauseSent:sum 0
scalar BGP_Topology_2.RC3.ethernet decapPk:count 288
scalar BGP_Topology_2.RC3.ethernet decapPk:sum(packetBytes) 21264
scalar BGP_Topology_2.RC3.ethernet encapPk:count 290
scalar BGP_Topology_2.RC3.ethernet encapPk:sum(packetBytes) 21744
scalar BGP_Topology_2.RC3.lo[0].lo rcvdPkFromHl:count 0
scalar BGP_Topology_2.RC3.lo[0].lo rcvdPkFromHl:sum(packetBytes) 0
scalar BGP_Topology_2.RC3.lo[0].lo passedUpPk:count 0
scalar BGP_Topology_2.RC3.lo[0].lo passedUpPk:sum(packetBytes) 0
scalar BGP_Topology_2.RC3.lo[0] packetDropInterfaceDown:count 0
scalar BGP_Topology_2.RC3.lo[0] packetDropInterfaceDown:sum(packetBytes) 0
scalar BGP_Topology_2.RC3.lo[0] packetDropNoCarrier:count 0
scalar BGP_Topology_2.RC3.lo[0] packetDropNoCarrier:sum(packetBytes) 0
scalar BGP_Topology_2.RC3.eth[0].queue.classifier packets:count 149
scalar BGP_Topology_2.RC3.eth[0].queue.classifier packetLengths:sum 110096
scalar BGP_Topology_2.RC3.eth[0].queue.pauseQueue queueLength:last 0
scalar BGP_Topology_2.RC3.eth[0].queue.pauseQueue queueLength:max 0
scalar BGP_Topology_2.RC3.eth[0].queue.pauseQueue queueLength:timeavg 0
scalar BGP_Topology_2.RC3.eth[0].queue.pauseQueue queueBitLength:last 0
scalar BGP_Topology_2.RC3.eth[0].queue.pauseQueue queueBitLength:max 0
scalar BGP_Topology_2.RC3.eth[0].queue.pauseQueue queueBitLength:timeavg 0
scalar BGP_Topology_2.RC3.eth[0].queue.pauseQueue outgoingPackets:count 0
scalar BGP_Topology_2.RC3.eth[0].queue.pauseQueue outgoingPacketLengths:sum 0
scalar BGP_Topology_2.RC3.eth[0].queue.pauseQueue incomingPackets:count 0
scalar BGP_Topology_2.RC3.eth[0].queue.pauseQueue incomingPacketLengths:sum 0
scalar BGP_Topology_2.RC3.eth[0].queue.pauseQueue droppedPacketsQueueOverflow:count 0
scalar BGP_Topology_2.RC3.eth[0].queue.pauseQueue droppedPacketLengthsQueueOverflow:sum 0
scalar BGP_Topology_2.RC3.eth[0].queue.dataQueue queueLength:last 0
scalar BGP_Topology_2.RC3.eth[0].queue.dataQueue queueLength:max 4
scalar BGP_Topology_2.RC3.eth[0].queue.dataQueue queueLength:timeavg 3.6821999999999989e-07
scalar BGP_Topology_2.RC3.eth[0].queue.dataQueue queueBitLength:last 0
scalar BGP_Topology_2.RC3.eth[0].queue.dataQueue queueBitLength:max 3808
scalar BGP_Topology_2.RC3.eth[0].queue.dataQueue queueBitLength:timeavg 0.00031926112000000005
scalar BGP_Topology_2.RC3.eth[0].queue.dataQueue outgoingPackets:count 149
scalar BGP_Topology_2.RC3.eth[0].queue.dataQueue outgoingPacketLengths:sum 110096
scalar BGP_Topology_2.RC3.eth[0].queue.dataQueue incomingPackets:count 149
scalar BGP_Topology_2.RC3.eth[0].queue.dataQueue incomingPacketLengths:sum 110096
scalar BGP_Topology_2.RC3.eth[0].queue.dataQueue droppedPacketsQueueOverflow:count 0
scalar BGP_Topology_2.RC3.eth[0].queue.dataQueue droppedPacketLengthsQueueOverflow:sum 0
scalar BGP_Topology_2.RC3.eth[0].queue.scheduler packets:count 149
scalar BGP_Topology_2.RC3.eth[0].queue.scheduler packetLengths:sum 110096
scalar BGP_Topology_2.RC3.eth[0].queue queueLength:last -149
scalar BGP_Topology_2.RC3.eth[0].queue queueLength:max 0
scalar BGP_Topology_2.RC3.eth[0].queue queueLength:timeavg -97.952681145260016
scalar BGP_Topology_2.RC3.eth[0].queue queueBitLength:last -110096
scalar BGP_Topology_2.RC3.eth[0].queue queueBitLength:max 0
scalar BGP_Topology_2.RC3.eth[0].queue queueBitLength:timeavg -74708.50858179167
scalar BGP_Topology_2.RC3.eth[0].queue outgoingPackets:count 149
scalar BGP_Topology_2.RC3.eth[0].queue outgoingPacketLengths:sum 110096
scalar BGP_Topology_2.RC3.eth[0].queue incomingPackets:count 0
scalar BGP_Topology_2.RC3.eth[0].queue incomingPacketLengths:sum 0
scalar BGP_Topology_2.RC3.eth[0].queue droppedPacketsQueueOverflow:count 0
scalar BGP_Topology_2.RC3.eth[0].queue droppedPacketLengthsQueueOverflow:sum 0
scalar BGP_Topology_2.RC3.eth[0].mac "simulated time" 1000
scalar BGP_Topology_2.RC3.eth[0].mac full-duplex 1
scalar BGP_Topology_2.RC3.eth[0].mac "frames/sec sent" 0.14899999999999999
scalar BGP_Topology_2.RC3.eth[0].mac "frames/sec rcvd" 0.13900000000000001
scalar BGP_Topology_2.RC3.eth[0].mac "bits/sec sent" 110.23999999999999
scalar BGP_Topology_2.RC3.eth[0].mac "bits/sec rcvd" 101.248
scalar BGP_Topology_2.RC3.eth[0].mac "rx channel idle (%)" 99.999889855999996
scalar BGP_Topology_2.RC3.eth[0].mac "rx channel utilization (%)" 0.00011014399999999999
scalar BGP_Topology_2.RC3.eth[0].mac rxPausePkUnits:count 0
scalar BGP_Topology_2.RC3.eth[0].mac rxPausePkUnits:sum 0
scalar BGP_Topology_2.RC3.eth[0].mac txPausePkUnits:count 0
scalar BGP_Topology_2.RC3.eth[0].mac txPausePkUnits:sum 0
scalar BGP_Topology_2.RC3.eth[0].mac rxPkOk:count 139
scalar BGP_Topology_2.RC3.eth[0].mac rxPkOk:sum(packetBytes) 12656
scalar BGP_Topology_2.RC3.eth[0].mac txPk:count 149
scalar BGP_Topology_2.RC3.eth[0].mac txPk:sum(packetBytes) 13780
scalar BGP_Topology_2.RC3.eth[0].mac packetReceivedFromUpper:count 149
scalar BGP_Topology_2.RC3.eth[0].mac packetReceivedFromUpper:sum(packetBytes) 13762
scalar BGP_Topology_2.RC3.eth[0].mac passedUpPk:count 139
scalar BGP_Topology_2.RC3.eth[0].mac passedUpPk:sum(packetBytes) 12656
scalar BGP_Topology_2.RC3.eth[0].mac packetDropIncorrectlyReceived:count 0
scalar BGP_Topology_2.RC3.eth[0].mac packetDropIncorrectlyReceived:sum(packetBytes) 0
scalar BGP_Topology_2.RC3.eth[0].mac packetDropInterfaceDown:count 0
scalar BGP_Topology_2.RC3.eth[0].mac packetDropInterfaceDown:sum(packetBytes) 0
scalar BGP_Topology_2.RC3.eth[0].mac packetDropNotAddressedToUs:count 0
scalar BGP_Topology_2.RC3.eth[0].mac packetDropNotAddressedToUs:sum(packetBytes) 0
scalar BGP_Topology_2.RC3.eth[0] packetDropInterfaceDown:count 0
scalar BGP_Topology_2.RC3.eth[0] packetDropInterfaceDown:sum(packetBytes) 0
scalar BGP_Topology_2.RC3.eth[0] packetDropNoCarrier:count 0
scalar BGP_Topology_2.RC3.eth[0] packetDropNoCarrier:sum(packetBytes) 0
scalar BGP_Topology_2.RC3.eth[1].queue.classifier packets:count 141
scalar BGP_Topology_2.RC3.eth[1].queue.classifier packetLengths:sum 105616
scalar BGP_Topology_2.RC3.eth[1].queue.pauseQueue queueLength:last 0
scalar BGP_Topology_2.RC3.eth[1].queue.pauseQueue queueLength:max 0
scalar BGP_Topology_2.RC3.eth[1].queue.pauseQueue queueLength:timeavg 0
scalar BGP_Topology_2.RC3.eth[1].queue.pauseQueue queueBitLength:last 0
scalar BGP_Topology_2.RC3.eth[1].queue.pauseQueue queueBitLength:max 0
scalar BGP_Topology_2.RC3.eth[1].queue.pauseQueue queueBitLength:timeavg 0
scalar BGP_Topology_2.RC3.eth[1].queue.pauseQueue outgoingPackets:count 0
scalar BGP_Topology_2.RC3.eth[1].queue.pauseQueue outgoingPacketLengths:sum 0
scalar BGP_Topology_2.RC3.eth[1].queue.pauseQueue incomingPackets:count 0
scalar BGP_Topology_2.RC3.eth[1].queue.pauseQueue incomingPacketLengths:sum 0
scalar BGP_Topology_2.RC3.eth[1].queue.pauseQueue droppedPacketsQueueOverflow:count 0
scalar BGP_Topology_2.RC3.eth[1].queue.pauseQueue droppedPacketLengthsQueueOverflow:sum 0
scalar BGP_Topology_2.RC3.eth[1].queue.dataQueue queueLength:last 0
scalar BGP_Topology_2.RC3.eth[1].queue.dataQueue queueLength:max 3
scalar BGP_Topology_2.RC3.eth[1].queue.dataQueue queueLength:timeavg 1.839e-07
scalar BGP_Topology_2.RC3.eth[1].queue.dataQueue queueBitLength:last 0
scalar BGP_Topology_2.RC3.eth[1].queue.dataQueue queueBitLength:max 2960
scalar BGP_Topology_2.RC3.eth[1].queue.dataQueue queueBitLength:timeavg 0.00016784479999999995
scalar BGP_Topology_2.RC3.eth[1].queue.dataQueue outgoingPackets:count 141
scalar BGP_Topology_2.RC3.eth[1].queue.dataQueue outgoingPacketLengths:sum 105616
scalar BGP_Topology_2.RC3.eth[1].queue.dataQueue incomingPackets:count 141
scalar BGP_Topology_2.RC3.eth[1].queue.dataQueue incomingPacketLengths:sum 105616
scalar BGP_Topology_2.RC3.eth[1].queue.dataQueue droppedPacketsQueueOverflow:count 0
scalar BGP_Topology_2.RC3.eth[1].queue.dataQueue droppedPacketLengthsQueueOverflow:sum 0
scalar BGP_Topology_2.RC3.eth[1].queue.scheduler packets:count 141
scalar BGP_Topology_2.RC3.eth[1].queue.scheduler packetLengths:sum 105616
scalar BGP_Topology_2.RC3.eth[1].queue queueLength:last -141
scalar BGP_Topology_2.RC3.eth[1].queue queueLength:max 0
scalar BGP_Topology_2.RC3.eth[1].queue queueLength:timeavg -90.372390167807168
scalar BGP_Topology_2.RC3.eth[1].queue queueBitLength:last -105616
scalar BGP_Topology_2.RC3.eth[1].queue queueBitLength:max 0
scalar BGP_Topology_2.RC3.eth[1].queue queueBitLength:timeavg -70538.61964590881
scalar BGP_Topology_2.RC3.eth[1].queue outgoingPackets:count 141
scalar BGP_Topology_2.RC3.eth[1].queue outgoingPacketLengths:sum 105616
scalar BGP_Topology_2.RC3.eth[1].queue incomingPackets:count 0
scalar BGP_Topology_2.RC3.eth[1].queue incomingPacketLengths:sum 0
scalar BGP_Topology_2.RC3.eth[1].queue droppedPacketsQueueOverflow:count 0
scalar BGP_Topology_2.RC3.eth[1].queue droppedPacketLengthsQueueOverflow:sum 0
scalar BGP_Topology_2.RC3.eth[1].mac "simulated time" 1000
scalar BGP_Topology_2.RC3.eth[1].mac full-duplex 1
scalar BGP_Topology_2.RC3.eth[1].mac "frames/sec sent" 0.14099999999999999
scalar BGP_Topology_2.RC3.eth[1].mac "frames/sec rcvd" 0.14899999999999999
scalar BGP_Topology_2.RC3.eth[1].mac "bits/sec sent" 105.76000000000001
scalar BGP_Topology_2.RC3.eth[1].mac "bits/sec rcvd" 110.336
scalar BGP_Topology_2.RC3.eth[1].mac "rx channel idle (%)" 99.999880128000001
scalar BGP_Topology_2.RC3.eth[1].mac "rx channel utilization (%)" 0.00011987199999999999
scalar BGP_Topology_2.RC3.eth[1].mac rxPausePkUnits:count 0
scalar BGP_Topology_2.RC3.eth[1].mac rxPausePkUnits:sum 0
scalar BGP_Topology_2.RC3.eth[1].mac txPausePkUnits:count 0
scalar BGP_Topology_2.RC3.eth[1].mac txPausePkUnits:sum 0
scalar BGP_Topology_2.RC3.eth[1].mac rxPkOk:count 149
scalar BGP_Topology_2.RC3.eth[1].mac rxPkOk:sum(packetBytes) 13792
scalar BGP_Topology_2.RC3.eth[1].mac txPk:count 141
scalar BGP_Topology_2.RC3.eth[1].mac txPk:sum(packetBytes) 13220
scalar BGP_Topology_2.RC3.eth[1].mac packetReceivedFromUpper:count 141
scalar BGP_Topology_2.RC3.eth[1].mac packetReceivedFromUpper:sum(packetBytes) 13202
scalar BGP_Topology_2.RC3.eth[1].mac passedUpPk:count 149
scalar BGP_Topology_2.RC3.eth[1].mac passedUpPk:sum(packetBytes) 13792
scalar BGP_Topology_2.RC3.eth[1].mac packetDropIncorrectlyReceived:count 0
scalar BGP_Topology_2.RC3.eth[1].mac packetDropIncorrectlyReceived:sum(packetBytes) 0
scalar BGP_Topology_2.RC3.eth[1].mac packetDropInterfaceDown:count 0
scalar BGP_Topology_2.RC3.eth[1].mac packetDropInterfaceDown:sum(packetBytes) 0
scalar BGP_Topology_2.RC3.eth[1].mac packetDropNotAddressedToUs:count 0
scalar BGP_Topology_2.RC3.eth[1].mac packetDropNotAddressedToUs:sum(packetBytes) 0
scalar BGP_Topology_2.RC3.eth[1] packetDropInterfaceDown:count 0
scalar BGP_Topology_2.RC3.eth[1] packetDropInterfaceDown:sum(packetBytes) 0
scalar BGP_Topology_2.RC3.eth[1] packetDropNoCarrier:count 0
scalar BGP_Topology_2.RC3.eth[1] packetDropNoCarrier:sum(packetBytes) 0
scalar BGP_Topology_2.RC3.eth[2].queue.classifier packets:count 0
scalar BGP_Topology_2.RC3.eth[2].queue.classifier packetLengths:sum 0
scalar BGP_Topology_2.RC3.eth[2].queue.pauseQueue queueLength:last 0
scalar BGP_Topology_2.RC3.eth[2].queue.pauseQueue queueLength:max 0
scalar BGP_Topology_2.RC3.eth[2].queue.pauseQueue queueLength:timeavg 0
scalar BGP_Topology_2.RC3.eth[2].queue.pauseQueue queueBitLength:last 0
scalar BGP_Topology_2.RC3.eth[2].queue.pauseQueue queueBitLength:max 0
scalar BGP_Topology_2.RC3.eth[2].queue.pauseQueue queueBitLength:timeavg 0
scalar BGP_Topology_2.RC3.eth[2].queue.pauseQueue outgoingPackets:count 0
scalar BGP_Topology_2.RC3.eth[2].queue.pauseQueue outgoingPacketLengths:sum 0
scalar BGP_Topology_2.RC3.eth[2].queue.pauseQueue incomingPackets:count 0
scalar BGP_Topology_2.RC3.eth[2].queue.pauseQueue incomingPacketLengths:sum 0
scalar BGP_Topology_2.RC3.eth[2].queue.pauseQueue droppedPacketsQueueOverflow:count 0
scalar BGP_Topology_2.RC3.eth[2].queue.pauseQueue droppedPacketLengthsQueueOverflow:sum 0
scalar BGP_Topology_2.RC3.eth[2].queue.dataQueue queueLength:last 0
scalar BGP_Topology_2.RC3.eth[2].queue.dataQueue queueLength:max 0
scalar BGP_Topology_2.RC3.eth[2].queue.dataQueue queueLength:timeavg 0
scalar BGP_Topology_2.RC3.eth[2].queue.dataQueue queueBitLength:last 0
scalar BGP_Topology_2.RC3.eth[2].queue.dataQueue queueBitLength:max 0
scalar BGP_Topology_2.RC3.eth[2].queue.dataQueue queueBitLength:timeavg 0
scalar BGP_Topology_2.RC3.eth[2].queue.dataQueue outgoingPackets:count 0
scalar BGP_Topology_2.RC3.eth[2].queue.dataQueue outgoingPacketLengths:sum 0
scalar BGP_Topology_2.RC3.eth[2].queue.dataQueue incomingPackets:count 0
scalar BGP_Topology_2.RC3.eth[2].queue.dataQueue incomingPacketLengths:sum 0
scalar BGP_Topology_2.RC3.eth[2].queue.dataQueue droppedPacketsQueueOverflow:count 0
scalar BGP_Topology_2.RC3.eth[2].queue.dataQueue droppedPacketLengthsQueueOverflow:sum 0
scalar BGP_Topology_2.RC3.eth[2].queue.scheduler packets:count 0
scalar BGP_Topology_2.RC3.eth[2].queue.scheduler packetLengths:sum 0
scalar BGP_Topology_2.RC3.eth[2].queue queueLength:last 0
scalar BGP_Topology_2.RC3.eth[2].queue queueLength:max 0
scalar BGP_Topology_2.RC3.eth[2].queue queueLength:timeavg 0
scalar BGP_Topology_2.RC3.eth[2].queue queueBitLength:last 0
scalar BGP_Topology_2.RC3.eth[2].queue queueBitLength:max 0
scalar BGP_Topology_2.RC3.eth[2].queue queueBitLength:timeavg 0
scalar BGP_Topology_2.RC3.eth[2].queue outgoingPackets:count 0
scalar BGP_Topology_2.RC3.eth[2].queue outgoingPacketLengths:sum 0
scalar BGP_Topology_2.RC3.eth[2].queue incomingPackets:count 0
scalar BGP_Topology_2.RC3.eth[2].queue incomingPacketLengths:sum 0
scalar BGP_Topology_2.RC3.eth[2].queue droppedPacketsQueueOverflow:count 0
scalar BGP_Topology_2.RC3.eth[2].queue droppedPacketLengthsQueueOverflow:sum 0
scalar BGP_Topology_2.RC3.eth[2].mac "simulated time" 1000
scalar BGP_Topology_2.RC3.eth[2].mac full-duplex 1
scalar BGP_Topology_2.RC3.eth[2].mac "frames/sec sent" 0
scalar BGP_Topology_2.RC3.eth[2].mac "frames/sec rcvd" 0
scalar BGP_Topology_2.RC3.eth[2].mac "bits/sec sent" 0
scalar BGP_Topology_2.RC3.eth[2].mac "bits/sec rcvd" 0
scalar BGP_Topology_2.RC3.eth[2].mac "rx channel idle (%)" 100
scalar BGP_Topology_2.RC3.eth[2].mac "rx channel utilization (%)" 0
scalar BGP_Topology_2.RC3.eth[2].mac rxPausePkUnits:count 0
scalar BGP_Topology_2.RC3.eth[2].mac rxPausePkUnits:sum 0
scalar BGP_Topology_2.RC3.eth[2].mac txPausePkUnits:count 0
scalar BGP_Topology_2.RC3.eth[2].mac txPausePkUnits:sum 0
scalar BGP_Topology_2.RC3.eth[2].mac rxPkOk:count 0
scalar BGP_Topology_2.RC3.eth[2].mac rxPkOk:sum(packetBytes) 0
scalar BGP_Topology_2.RC3.eth[2].mac txPk:count 0
scalar BGP_Topology_2.RC3.eth[2].mac txPk:sum(packetBytes) 0
scalar BGP_Topology_2.RC3.eth[2].mac packetReceivedFromUpper:count 0
scalar BGP_Topology_2.RC3.eth[2].mac packetReceivedFromUpper:sum(packetBytes) 0
scalar BGP_Topology_2.RC3.eth[2].mac passedUpPk:count 0
scalar BGP_Topology_2.RC3.eth[2].mac passedUpPk:sum(packetBytes) 0
scalar BGP_Topology_2.RC3.eth[2].mac packetDropIncorrectlyReceived:count 0
scalar BGP_Topology_2.RC3.eth[2].mac packetDropIncorrectlyReceived:sum(packetBytes) 0
scalar BGP_Topology_2.RC3.eth[2].mac packetDropInterfaceDown:count 0
scalar BGP_Topology_2.RC3.eth[2].mac packetDropInterfaceDown:sum(packetBytes) 0
scalar BGP_Topology_2.RC3.eth[2].mac packetDropNotAddressedToUs:count 0
scalar BGP_Topology_2.RC3.eth[2].mac packetDropNotAddressedToUs:sum(packetBytes) 0
scalar BGP_Topology_2.RC3.eth[2] packetDropInterfaceDown:count 0
scalar BGP_Topology_2.RC3.eth[2] packetDropInterfaceDown:sum(packetBytes) 0
scalar BGP_Topology_2.RC3.eth[2] packetDropNoCarrier:count 0
scalar BGP_Topology_2.RC3.eth[2] packetDropNoCarrier:sum(packetBytes) 0
scalar BGP_Topology_2.RC3.ipv4.ip packetDropAddressResolutionFailed:count 0
scalar BGP_Topology_2.RC3.ipv4.ip packetDropAddressResolutionFailed:sum(packetBytes) 0
scalar BGP_Topology_2.RC3.ipv4.ip packetDropHopLimitReached:count 0
scalar BGP_Topology_2.RC3.ipv4.ip packetDropHopLimitReached:sum(packetBytes) 0
scalar BGP_Topology_2.RC3.ipv4.ip packetDropForwardingDisabled:count 0
scalar BGP_Topology_2.RC3.ipv4.ip packetDropForwardingDisabled:sum(packetBytes) 0
scalar BGP_Topology_2.RC3.ipv4.ip packetDropLifetimeExpired:count 0
scalar BGP_Topology_2.RC3.ipv4.ip packetDropLifetimeExpired:sum(packetBytes) 0
scalar BGP_Topology_2.RC3.ipv4.ip packetDropNoInterfaceFound:count 0
scalar BGP_Topology_2.RC3.ipv4.ip packetDropNoInterfaceFound:sum(packetBytes) 0
scalar BGP_Topology_2.RC3.ipv4.ip packetDropNoRouteFound:count 0
scalar BGP_Topology_2.RC3.ipv4.ip packetDropNoRouteFound:sum(packetBytes) 0
scalar BGP_Topology_2.RC3.ipv4.ip packetDropUndefined:count 0
scalar BGP_Topology_2.RC3.ipv4.ip packetDropUndefined:sum(packetBytes) 0
scalar BGP_Topology_2.RC3.ipv4.arp arpResolutionFailed:count 0
scalar BGP_Topology_2.RC3.ipv4.arp arpResolutionCompleted:count 2
scalar BGP_Topology_2.RC3.ipv4.arp arpResolutionInitiated:count 1
scalar BGP_Topology_2.RC3.ipv4.arp arpReplySent:count 1
scalar BGP_Topology_2.RC3.ipv4.arp arpReplySent:sum(packetBytes) 28
scalar BGP_Topology_2.RC3.ipv4.arp arpRequestSent:count 1
scalar BGP_Topology_2.RC3.ipv4.arp arpRequestSent:sum(packetBytes) 28
scalar BGP_Topology_2.RB1.ethernet pauseSent:count 0
scalar BGP_Topology_2.RB1.ethernet pauseSent:sum 0
scalar BGP_Topology_2.RB1.ethernet decapPk:count 920
scalar BGP_Topology_2.RB1.ethernet decapPk:sum(packetBytes) 43152
scalar BGP_Topology_2.RB1.ethernet encapPk:count 28
scalar BGP_Topology_2.RB1.ethernet encapPk:sum(packetBytes) 1676
scalar BGP_Topology_2.RB1.lo[0].lo rcvdPkFromHl:count 0
scalar BGP_Topology_2.RB1.lo[0].lo rcvdPkFromHl:sum(packetBytes) 0
scalar BGP_Topology_2.RB1.lo[0].lo passedUpPk:count 0
scalar BGP_Topology_2.RB1.lo[0].lo passedUpPk:sum(packetBytes) 0
scalar BGP_Topology_2.RB1.lo[0] packetDropInterfaceDown:count 0
scalar BGP_Topology_2.RB1.lo[0] packetDropInterfaceDown:sum(packetBytes) 0
scalar BGP_Topology_2.RB1.lo[0] packetDropNoCarrier:count 0
scalar BGP_Topology_2.RB1.lo[0] packetDropNoCarrier:sum(packetBytes) 0
scalar BGP_Topology_2.RB1.eth[0].queue.classifier packets:count 14
scalar BGP_Topology_2.RB1.eth[0].queue.classifier packetLengths:sum 7240
scalar BGP_Topology_2.RB1.eth[0].queue.pauseQueue queueLength:last 0
scalar BGP_Topology_2.RB1.eth[0].queue.pauseQueue queueLength:max 0
scalar BGP_Topology_2.RB1.eth[0].queue.pauseQueue queueLength:timeavg 0
scalar BGP_Topology_2.RB1.eth[0].queue.pauseQueue queueBitLength:last 0
scalar BGP_Topology_2.RB1.eth[0].queue.pauseQueue queueBitLength:max 0
scalar BGP_Topology_2.RB1.eth[0].queue.pauseQueue queueBitLength:timeavg 0
scalar BGP_Topology_2.RB1.eth[0].queue.pauseQueue outgoingPackets:count 0
scalar BGP_Topology_2.RB1.eth[0].queue.pauseQueue outgoingPacketLengths:sum 0
scalar BGP_Topology_2.RB1.eth[0].queue.pauseQueue incomingPackets:count 0
scalar BGP_Topology_2.RB1.eth[0].queue.pauseQueue incomingPacketLengths:sum 0
scalar BGP_Topology_2.RB1.eth[0].queue.pauseQueue droppedPacketsQueueOverflow:count 0
scalar BGP_Topology_2.RB1.eth[0].queue.pauseQueue droppedPacketLengthsQueueOverflow:sum 0
scalar BGP_Topology_2.RB1.eth[0].queue.dataQueue queueLength:last 0
scalar BGP_Topology_2.RB1.eth[0].queue.dataQueue queueLength:max 1
scalar BGP_Topology_2.RB1.eth[0].queue.dataQueue queueLength:timeavg 1.3999999999999998e-08
scalar BGP_Topology_2.RB1.eth[0].queue.dataQueue queueBitLength:last 0
scalar BGP_Topology_2.RB1.eth[0].queue.dataQueue queueBitLength:max 832
scalar BGP_Topology_2.RB1.eth[0].queue.dataQueue queueBitLength:timeavg 9.0014399999999993e-06
scalar BGP_Topology_2.RB1.eth[0].queue.dataQueue outgoingPackets:count 14
scalar BGP_Topology_2.RB1.eth[0].queue.dataQueue outgoingPacketLengths:sum 7240
scalar BGP_Topology_2.RB1.eth[0].queue.dataQueue incomingPackets:count 14
scalar BGP_Topology_2.RB1.eth[0].queue.dataQueue incomingPacketLengths:sum 7240
scalar BGP_Topology_2.RB1.eth[0].queue.dataQueue droppedPacketsQueueOverflow:count 0
scalar BGP_Topology_2.RB1.eth[0].queue.dataQueue droppedPacketLengthsQueueOverflow:sum 0
scalar BGP_Topology_2.RB1.eth[0].queue.scheduler packets:count 14
scalar BGP_Topology_2.RB1.eth[0].queue.scheduler packetLengths:sum 7240
scalar BGP_Topology_2.RB1.eth[0].queue queueLength:last -14
scalar BGP_Topology_2.RB1.eth[0].queue queueLength:max 0
scalar BGP_Topology_2.RB1.eth[0].queue queueLength:timeavg -12.77999960372
scalar BGP_Topology_2.RB1.eth[0].queue queueBitLength:last -7240
scalar BGP_Topology_2.RB1.eth[0].queue queueBitLength:max 0
scalar BGP_Topology_2.RB1.eth[0].queue queueBitLength:timeavg -6630.51578885856
scalar BGP_Topology_2.RB1.eth[0].queue outgoingPackets:count 14
scalar BGP_Topology_2.RB1.eth[0].queue outgoingPacketLengths:sum 7240
scalar BGP_Topology_2.RB1.eth[0].queue incomingPackets:count 0
scalar BGP_Topology_2.RB1.eth[0].queue incomingPacketLengths:sum 0
scalar BGP_Topology_2.RB1.eth[0].queue droppedPacketsQueueOverflow:count 0
scalar BGP_Topology_2.RB1.eth[0].queue droppedPacketLengthsQueueOverflow:sum 0
scalar BGP_Topology_2.RB1.eth[0].mac "simulated time" 1000
scalar BGP_Topology_2.RB1.eth[0].mac full-duplex 1
scalar BGP_Topology_2.RB1.eth[0].mac "frames/sec sent" 0.014
scalar BGP_Topology_2.RB1.eth[0].mac "frames/sec rcvd" 0.90500000000000003
scalar BGP_Topology_2.RB1.eth[0].mac "bits/sec sent" 7.8799999999999999
scalar BGP_Topology_2.RB1.eth[0].mac "bits/sec rcvd" 466.27999999999997
scalar BGP_Topology_2.RB1.eth[0].mac "rx channel idle (%)" 99.999475799999999
scalar BGP_Topology_2.RB1.eth[0].mac "rx channel utilization (%)" 0.00052419999999999995
scalar BGP_Topology_2.RB1.eth[0].mac rxPausePkUnits:count 0
scalar BGP_Topology_2.RB1.eth[0].mac rxPausePkUnits:sum 0
scalar BGP_Topology_2.RB1.eth[0].mac txPausePkUnits:count 0
scalar BGP_Topology_2.RB1.eth[0].mac txPausePkUnits:sum 0
scalar BGP_Topology_2.RB1.eth[0].mac rxPkOk:count 905
scalar BGP_Topology_2.RB1.eth[0].mac rxPkOk:sum(packetBytes) 58285
scalar BGP_Topology_2.RB1.eth[0].mac txPk:count 14
scalar BGP_Topology_2.RB1.eth[0].mac txPk:sum(packetBytes) 985
scalar BGP_Topology_2.RB1.eth[0].mac packetReceivedFromUpper:count 14
scalar BGP_Topology_2.RB1.eth[0].mac packetReceivedFromUpper:sum(packetBytes) 905
scalar BGP_Topology_2.RB1.eth[0].mac passedUpPk:count 905
scalar BGP_Topology_2.RB1.eth[0].mac passedUpPk:sum(packetBytes) 58285
scalar BGP_Topology_2.RB1.eth[0].mac packetDropIncorrectlyReceived:count 0
scalar BGP_Topology_2.RB1.eth[0].mac packetDropIncorrectlyReceived:sum(packetBytes) 0
scalar BGP_Topology_2.RB1.eth[0].mac packetDropInterfaceDown:count 0
scalar BGP_Topology_2.RB1.eth[0].mac packetDropInterfaceDown:sum(packetBytes) 0
scalar BGP_Topology_2.RB1.eth[0].mac packetDropNotAddressedToUs:count 0
scalar BGP_Topology_2.RB1.eth[0].mac packetDropNotAddressedToUs:sum(packetBytes) 0
scalar BGP_Topology_2.RB1.eth[0] packetDropInterfaceDown:count 0
scalar BGP_Topology_2.RB1.eth[0] packetDropInterfaceDown:sum(packetBytes) 0
scalar BGP_Topology_2.RB1.eth[0] packetDropNoCarrier:count 0
scalar BGP_Topology_2.RB1.eth[0] packetDropNoCarrier:sum(packetBytes) 0
scalar BGP_Topology_2.RB1.eth[1].queue.classifier packets:count 14
scalar BGP_Topology_2.RB1.eth[1].queue.classifier packetLengths:sum 10200
scalar BGP_Topology_2.RB1.eth[1].queue.pauseQueue queueLength:last 0
scalar BGP_Topology_2.RB1.eth[1].queue.pauseQueue queueLength:max 0
scalar BGP_Topology_2.RB1.eth[1].queue.pauseQueue queueLength:timeavg 0
scalar BGP_Topology_2.RB1.eth[1].queue.pauseQueue queueBitLength:last 0
scalar BGP_Topology_2.RB1.eth[1].queue.pauseQueue queueBitLength:max 0
scalar BGP_Topology_2.RB1.eth[1].queue.pauseQueue queueBitLength:timeavg 0
scalar BGP_Topology_2.RB1.eth[1].queue.pauseQueue outgoingPackets:count 0
scalar BGP_Topology_2.RB1.eth[1].queue.pauseQueue outgoingPacketLengths:sum 0
scalar BGP_Topology_2.RB1.eth[1].queue.pauseQueue incomingPackets:count 0
scalar BGP_Topology_2.RB1.eth[1].queue.pauseQueue incomingPacketLengths:sum 0
scalar BGP_Topology_2.RB1.eth[1].queue.pauseQueue droppedPacketsQueueOverflow:count 0
scalar BGP_Topology_2.RB1.eth[1].queue.pauseQueue droppedPacketLengthsQueueOverflow:sum 0
scalar BGP_Topology_2.RB1.eth[1].queue.dataQueue queueLength:last 0
scalar BGP_Topology_2.RB1.eth[1].queue.dataQueue queueLength:max 2
scalar BGP_Topology_2.RB1.eth[1].queue.dataQueue queueLength:timeavg 1.2180000000000001e-08
scalar BGP_Topology_2.RB1.eth[1].queue.dataQueue queueBitLength:last 0
scalar BGP_Topology_2.RB1.eth[1].queue.dataQueue queueBitLength:max 832
scalar BGP_Topology_2.RB1.eth[1].queue.dataQueue queueBitLength:timeavg 4.8316799999999993e-06
scalar BGP_Topology_2.RB1.eth[1].queue.dataQueue outgoingPackets:count 14
scalar BGP_Topology_2.RB1.eth[1].queue.dataQueue outgoingPacketLengths:sum 10200
scalar BGP_Topology_2.RB1.eth[1].queue.dataQueue incomingPackets:count 14
scalar BGP_Topology_2.RB1.eth[1].queue.dataQueue incomingPacketLengths:sum 10200
scalar BGP_Topology_2.RB1.eth[1].queue.dataQueue droppedPacketsQueueOverflow:count 0
scalar BGP_Topology_2.RB1.eth[1].queue.dataQueue droppedPacketLengthsQueueOverflow:sum 0
scalar BGP_Topology_2.RB1.eth[1].queue.scheduler packets:count 14
scalar BGP_Topology_2.RB1.eth[1].queue.scheduler packetLengths:sum 10200
scalar BGP_Topology_2.RB1.eth[1].queue queueLength:last -14
scalar BGP_Topology_2.RB1.eth[1].queue queueLength:max 0
scalar BGP_Topology_2.RB1.eth[1].queue queueLength:timeavg -12.597999573560001
scalar BGP_Topology_2.RB1.eth[1].queue queueBitLength:last -10200
scalar BGP_Topology_2.RB1.eth[1].queue queueBitLength:max 0
scalar BGP_Topology_2.RB1.eth[1].queue queueBitLength:timeavg -9318.8636348197615
scalar BGP_Topology_2.RB1.eth[1].queue outgoingPackets:count 14
scalar BGP_Topology_2.RB1.eth[1].queue outgoingPacketLengths:sum 10200
scalar BGP_Topology_2.RB1.eth[1].queue incomingPackets:count 0
scalar BGP_Topology_2.RB1.eth[1].queue incomingPacketLengths:sum 0
scalar BGP_Topology_2.RB1.eth[1].queue droppedPacketsQueueOverflow:count 0
scalar BGP_Topology_2.RB1.eth[1].queue droppedPacketLengthsQueueOverflow:sum 0
scalar BGP_Topology_2.RB1.eth[1].mac "simulated time" 1000
scalar BGP_Topology_2.RB1.eth[1].mac full-duplex 1
scalar BGP_Topology_2.RB1.eth[1].mac "frames/sec sent" 0.014
scalar BGP_Topology_2.RB1.eth[1].mac "frames/sec rcvd" 0.014999999999999999
scalar BGP_Topology_2.RB1.eth[1].mac "bits/sec sent" 10.904
scalar BGP_Topology_2.RB1.eth[1].mac "bits/sec rcvd" 11.416
scalar BGP_Topology_2.RB1.eth[1].mac "rx channel idle (%)" 99.999987623999999
scalar BGP_Topology_2.RB1.eth[1].mac "rx channel utilization (%)" 1.2376e-05
scalar BGP_Topology_2.RB1.eth[1].mac rxPausePkUnits:count 0
scalar BGP_Topology_2.RB1.eth[1].mac rxPausePkUnits:sum 0
scalar BGP_Topology_2.RB1.eth[1].mac txPausePkUnits:count 0
scalar BGP_Topology_2.RB1.eth[1].mac txPausePkUnits:sum 0
scalar BGP_Topology_2.RB1.eth[1].mac rxPkOk:count 15
scalar BGP_Topology_2.RB1.eth[1].mac rxPkOk:sum(packetBytes) 1427
scalar BGP_Topology_2.RB1.eth[1].mac txPk:count 14
scalar BGP_Topology_2.RB1.eth[1].mac txPk:sum(packetBytes) 1363
scalar BGP_Topology_2.RB1.eth[1].mac packetReceivedFromUpper:count 14
scalar BGP_Topology_2.RB1.eth[1].mac packetReceivedFromUpper:sum(packetBytes) 1275
scalar BGP_Topology_2.RB1.eth[1].mac passedUpPk:count 15
scalar BGP_Topology_2.RB1.eth[1].mac passedUpPk:sum(packetBytes) 1427
scalar BGP_Topology_2.RB1.eth[1].mac packetDropIncorrectlyReceived:count 0
scalar BGP_Topology_2.RB1.eth[1].mac packetDropIncorrectlyReceived:sum(packetBytes) 0
scalar BGP_Topology_2.RB1.eth[1].mac packetDropInterfaceDown:count 0
scalar BGP_Topology_2.RB1.eth[1].mac packetDropInterfaceDown:sum(packetBytes) 0
scalar BGP_Topology_2.RB1.eth[1].mac packetDropNotAddressedToUs:count 0
scalar BGP_Topology_2.RB1.eth[1].mac packetDropNotAddressedToUs:sum(packetBytes) 0
scalar BGP_Topology_2.RB1.eth[1] packetDropInterfaceDown:count 0
scalar BGP_Topology_2.RB1.eth[1] packetDropInterfaceDown:sum(packetBytes) 0
scalar BGP_Topology_2.RB1.eth[1] packetDropNoCarrier:count 0
scalar BGP_Topology_2.RB1.eth[1] packetDropNoCarrier:sum(packetBytes) 0
scalar BGP_Topology_2.RB1.ipv4.ip packetDropAddressResolutionFailed:count 0
scalar BGP_Topology_2.RB1.ipv4.ip packetDropAddressResolutionFailed:sum(packetBytes) 0
[...]
scalar BGP_Topology_2.RB1.tcp.conn-temp rto:vector:sum 0
scalar BGP_Topology_2.RB1.tcp.conn-temp rto:vector:sumweights 0
scalar BGP_Topology_2.RB1.tcp.conn-temp rto:vector:mean -nan
scalar BGP_Topology_2.RB1.tcp.conn-temp rto:vector:stddev nan
scalar BGP_Topology_2.RB1.tcp.conn-temp rto:vector:min inf
scalar BGP_Topology_2.RB1.tcp.conn-temp rto:vector:max -inf
scalar BGP_Topology_2.RB1.tcp.conn-temp rto:vector:starttime nan
scalar BGP_Topology_2.RB1.tcp.conn-temp rto:vector:endtime nan
scalar BGP_Topology_2.RB1.tcp.conn-temp numRtos:vector:count 0
scalar BGP_Topology_2.RB1.tcp.conn-temp numRtos:vector:sum 0
scalar BGP_Topology_2.RB1.tcp.conn-temp numRtos:vector:sumweights 0
scalar BGP_Topology_2.RB1.tcp.conn-temp numRtos:vector:mean -nan
scalar BGP_Topology_2.RB1.tcp.conn-temp numRtos:vector:stddev nan
scalar BGP_Topology_2.RB1.tcp.conn-temp numRtos:vector:min inf
scalar BGP_Topology_2.RB1.tcp.conn-temp numRtos:vector:max -inf
scalar BGP_Topology_2.RB1.tcp.conn-temp numRtos:vector:starttime nan
scalar BGP_Topology_2.RB1.tcp.conn-temp numRtos:vector:endtime nan
scalar BGP_Topology_2.RB1.tcp.conn-temp load:vector:count 0
scalar BGP_Topology_2.RB1.tcp.conn-temp load:vector:sum 0
scalar BGP_Topology_2.RB1.tcp.conn-temp load:vector:sumweights 0
scalar BGP_Topology_2.RB1.tcp.conn-temp load:vector:mean -nan
scalar BGP_Topology_2.RB1.tcp.conn-temp load:vector:stddev nan
scalar BGP_Topology_2.RB1.tcp.conn-temp load:vector:min inf
scalar BGP_Topology_2.RB1.tcp.conn-temp load:vector:max -inf
scalar BGP_Topology_2.RB1.tcp.conn-temp load:vector:starttime nan
scalar BGP_Topology_2.RB1.tcp.conn-temp load:vector:endtime nan
scalar BGP_Topology_2.RB1.tcp.conn-temp calcLoad:vector:count 0
scalar BGP_Topology_2.RB1.tcp.conn-temp calcLoad:vector:sum 0
scalar BGP_Topology_2.RB1.tcp.conn-temp calcLoad:vector:sumweights 0
scalar BGP_Topology_2.RB1.tcp.conn-temp calcLoad:vector:mean -nan
scalar BGP_Topology_2.RB1.tcp.conn-temp calcLoad:vector:stddev nan
scalar BGP_Topology_2.RB1.tcp.conn-temp calcLoad:vector:min inf
scalar BGP_Topology_2.RB1.tcp.conn-temp calcLoad:vector:max -inf
scalar BGP_Topology_2.RB1.tcp.conn-temp calcLoad:vector:starttime nan
scalar BGP_Topology_2.RB1.tcp.conn-temp calcLoad:vector:endtime nan
scalar BGP_Topology_2.RB1.tcp.conn-temp markingProb:vector:count 0
scalar BGP_Topology_2.RB1.tcp.conn-temp markingProb:vector:sum 0
scalar BGP_Topology_2.RB1.tcp.conn-temp markingProb:vector:sumweights 0
scalar BGP_Topology_2.RB1.tcp.conn-temp markingProb:vector:mean -nan
scalar BGP_Topology_2.RB1.tcp.conn-temp markingProb:vector:stddev nan
scalar BGP_Topology_2.RB1.tcp.conn-temp markingProb:vector:min inf
scalar BGP_Topology_2.RB1.tcp.conn-temp markingProb:vector:max -inf
scalar BGP_Topology_2.RB1.tcp.conn-temp markingProb:vector:starttime nan
scalar BGP_Topology_2.RB1.tcp.conn-temp markingProb:vector:endtime nan
scalar BGP_Topology_2.RB2.tcp.conn-temp state:vector:count 0
scalar BGP_Topology_2.RB2.tcp.conn-temp state:vector:sum 0
scalar BGP_Topology_2.RB2.tcp.conn-temp state:vector:sumweights 0
scalar BGP_Topology_2.RB2.tcp.conn-temp state:vector:mean -nan
scalar BGP_Topology_2.RB2.tcp.conn-temp state:vector:stddev nan
scalar BGP_Topology_2.RB2.tcp.conn-temp state:vector:min inf
scalar BGP_Topology_2.RB2.tcp.conn-temp state:vector:max -inf
scalar BGP_Topology_2.RB2.tcp.conn-temp state:vector:starttime nan
scalar BGP_Topology_2.RB2.tcp.conn-temp state:vector:endtime nan
scalar BGP_Topology_2.RB2.tcp.conn-temp sndWnd:vector:count 0
scalar BGP_Topology_2.RB2.tcp.conn-temp sndWnd:vector:sum 0
scalar BGP_Topology_2.RB2.tcp.conn-temp sndWnd:vector:sumweights 0
scalar BGP_Topology_2.RB2.tcp.conn-temp sndWnd:vector:mean -nan
scalar BGP_Topology_2.RB2.tcp.conn-temp sndWnd:vector:stddev nan
scalar BGP_Topology_2.RB2.tcp.conn-temp sndWnd:vector:min inf
scalar BGP_Topology_2.RB2.tcp.conn-temp sndWnd:vector:max -inf
scalar BGP_Topology_2.RB2.tcp.conn-temp sndWnd:vector:starttime nan
scalar BGP_Topology_2.RB2.tcp.conn-temp sndWnd:vector:endtime nan
scalar BGP_Topology_2.RB2.tcp.conn-temp rcvWnd:vector:count 0
scalar BGP_Topology_2.RB2.tcp.conn-temp rcvWnd:vector:sum 0
scalar BGP_Topology_2.RB2.tcp.conn-temp rcvWnd:vector:sumweights 0
scalar BGP_Topology_2.RB2.tcp.conn-temp rcvWnd:vector:mean -nan
scalar BGP_Topology_2.RB2.tcp.conn-temp rcvWnd:vector:stddev nan
scalar BGP_Topology_2.RB2.tcp.conn-temp rcvWnd:vector:min inf
scalar BGP_Topology_2.RB2.tcp.conn-temp rcvWnd:vector:max -inf
scalar BGP_Topology_2.RB2.tcp.conn-temp rcvWnd:vector:starttime nan
scalar BGP_Topology_2.RB2.tcp.conn-temp rcvWnd:vector:endtime nan
scalar BGP_Topology_2.RB2.tcp.conn-temp rcvAdv:vector:count 0
scalar BGP_Topology_2.RB2.tcp.conn-temp rcvAdv:vector:sum 0
scalar BGP_Topology_2.RB2.tcp.conn-temp rcvAdv:vector:sumweights 0
scalar BGP_Topology_2.RB2.tcp.conn-temp rcvAdv:vector:mean -nan
scalar BGP_Topology_2.RB2.tcp.conn-temp rcvAdv:vector:stddev nan
scalar BGP_Topology_2.RB2.tcp.conn-temp rcvAdv:vector:min inf
scalar BGP_Topology_2.RB2.tcp.conn-temp rcvAdv:vector:max -inf
scalar BGP_Topology_2.RB2.tcp.conn-temp rcvAdv:vector:starttime nan
scalar BGP_Topology_2.RB2.tcp.conn-temp rcvAdv:vector:endtime nan
scalar BGP_Topology_2.RB2.tcp.conn-temp sndNxt:vector:count 0
scalar BGP_Topology_2.RB2.tcp.conn-temp sndNxt:vector:sum 0
scalar BGP_Topology_2.RB2.tcp.conn-temp sndNxt:vector:sumweights 0
scalar BGP_Topology_2.RB2.tcp.conn-temp sndNxt:vector:mean -nan
scalar BGP_Topology_2.RB2.tcp.conn-temp sndNxt:vector:stddev nan
scalar BGP_Topology_2.RB2.tcp.conn-temp sndNxt:vector:min inf
scalar BGP_Topology_2.RB2.tcp.conn-temp sndNxt:vector:max -inf
scalar BGP_Topology_2.RB2.tcp.conn-temp sndNxt:vector:starttime nan
scalar BGP_Topology_2.RB2.tcp.conn-temp sndNxt:vector:endtime nan
scalar BGP_Topology_2.RB2.tcp.conn-temp sndAck:vector:count 0
scalar BGP_Topology_2.RB2.tcp.conn-temp sndAck:vector:sum 0
scalar BGP_Topology_2.RB2.tcp.conn-temp sndAck:vector:sumweights 0
scalar BGP_Topology_2.RB2.tcp.conn-temp sndAck:vector:mean -nan
scalar BGP_Topology_2.RB2.tcp.conn-temp sndAck:vector:stddev nan
scalar BGP_Topology_2.RB2.tcp.conn-temp sndAck:vector:min inf
scalar BGP_Topology_2.RB2.tcp.conn-temp sndAck:vector:max -inf
scalar BGP_Topology_2.RB2.tcp.conn-temp sndAck:vector:starttime nan
scalar BGP_Topology_2.RB2.tcp.conn-temp sndAck:vector:endtime nan
scalar BGP_Topology_2.RB2.tcp.conn-temp rcvSeq:vector:count 0
scalar BGP_Topology_2.RB2.tcp.conn-temp rcvSeq:vector:sum 0
scalar BGP_Topology_2.RB2.tcp.conn-temp rcvSeq:vector:sumweights 0
scalar BGP_Topology_2.RB2.tcp.conn-temp rcvSeq:vector:mean -nan
scalar BGP_Topology_2.RB2.tcp.conn-temp rcvSeq:vector:stddev nan
scalar BGP_Topology_2.RB2.tcp.conn-temp rcvSeq:vector:min inf
scalar BGP_Topology_2.RB2.tcp.conn-temp rcvSeq:vector:max -inf
scalar BGP_Topology_2.RB2.tcp.conn-temp rcvSeq:vector:starttime nan
scalar BGP_Topology_2.RB2.tcp.conn-temp rcvSeq:vector:endtime nan
scalar BGP_Topology_2.RB2.tcp.conn-temp rcvAck:vector:count 0
scalar BGP_Topology_2.RB2.tcp.conn-temp rcvAck:vector:sum 0
scalar BGP_Topology_2.RB2.tcp.conn-temp rcvAck:vector:sumweights 0
scalar BGP_Topology_2.RB2.tcp.conn-temp rcvAck:vector:mean -nan
scalar BGP_Topology_2.RB2.tcp.conn-temp rcvAck:vector:stddev nan
scalar BGP_Topology_2.RB2.tcp.conn-temp rcvAck:vector:min inf
scalar BGP_Topology_2.RB2.tcp.conn-temp rcvAck:vector:max -inf
scalar BGP_Topology_2.RB2.tcp.conn-temp rcvAck:vector:starttime nan
scalar BGP_Topology_2.RB2.tcp.conn-temp rcvAck:vector:endtime nan
scalar BGP_Topology_2.RB2.tcp.conn-temp unacked:vector:count 0
scalar BGP_Topology_2.RB2.tcp.conn-temp unacked:vector:sum 0
scalar BGP_Topology_2.RB2.tcp.conn-temp unacked:vector:sumweights 0
scalar BGP_Topology_2.RB2.tcp.conn-temp unacked:vector:mean -nan
scalar BGP_Topology_2.RB2.tcp.conn-temp unacked:vector:stddev nan
scalar BGP_Topology_2.RB2.tcp.conn-temp unacked:vector:min inf
scalar BGP_Topology_2.RB2.tcp.conn-temp unacked:vector:max -inf
scalar BGP_Topology_2.RB2.tcp.conn-temp unacked:vector:starttime nan
scalar BGP_Topology_2.RB2.tcp.conn-temp unacked:vector:endtime nan
scalar BGP_Topology_2.RB2.tcp.conn-temp dupAcks:vector:count 0
scalar BGP_Topology_2.RB2.tcp.conn-temp dupAcks:vector:sum 0
scalar BGP_Topology_2.RB2.tcp.conn-temp dupAcks:vector:sumweights 0
scalar BGP_Topology_2.RB2.tcp.conn-temp dupAcks:vector:mean -nan
scalar BGP_Topology_2.RB2.tcp.conn-temp dupAcks:vector:stddev nan
scalar BGP_Topology_2.RB2.tcp.conn-temp dupAcks:vector:min inf
scalar BGP_Topology_2.RB2.tcp.conn-temp dupAcks:vector:max -inf
scalar BGP_Topology_2.RB2.tcp.conn-temp dupAcks:vector:starttime nan
scalar BGP_Topology_2.RB2.tcp.conn-temp dupAcks:vector:endtime nan
scalar BGP_Topology_2.RB2.tcp.conn-temp pipe:vector:count 0
scalar BGP_Topology_2.RB2.tcp.conn-temp pipe:vector:sum 0
scalar BGP_Topology_2.RB2.tcp.conn-temp pipe:vector:sumweights 0
scalar BGP_Topology_2.RB2.tcp.conn-temp pipe:vector:mean -nan
scalar BGP_Topology_2.RB2.tcp.conn-temp pipe:vector:stddev nan
scalar BGP_Topology_2.RB2.tcp.conn-temp pipe:vector:min inf
scalar BGP_Topology_2.RB2.tcp.conn-temp pipe:vector:max -inf
scalar BGP_Topology_2.RB2.tcp.conn-temp pipe:vector:starttime nan
scalar BGP_Topology_2.RB2.tcp.conn-temp pipe:vector:endtime nan
scalar BGP_Topology_2.RB2.tcp.conn-temp sndSacks:vector:count 0
scalar BGP_Topology_2.RB2.tcp.conn-temp sndSacks:vector:sum 0
scalar BGP_Topology_2.RB2.tcp.conn-temp sndSacks:vector:sumweights 0
scalar BGP_Topology_2.RB2.tcp.conn-temp sndSacks:vector:mean -nan
scalar BGP_Topology_2.RB2.tcp.conn-temp sndSacks:vector:stddev nan
scalar BGP_Topology_2.RB2.tcp.conn-temp sndSacks:vector:min inf
scalar BGP_Topology_2.RB2.tcp.conn-temp sndSacks:vector:max -inf
scalar BGP_Topology_2.RB2.tcp.conn-temp sndSacks:vector:starttime nan
scalar BGP_Topology_2.RB2.tcp.conn-temp sndSacks:vector:endtime nan
scalar BGP_Topology_2.RB2.tcp.conn-temp rcvSacks:vector:count 0
scalar BGP_Topology_2.RB2.tcp.conn-temp rcvSacks:vector:sum 0
scalar BGP_Topology_2.RB2.tcp.conn-temp rcvSacks:vector:sumweights 0
scalar BGP_Topology_2.RB2.tcp.conn-temp rcvSacks:vector:mean -nan
scalar BGP_Topology_2.RB2.tcp.conn-temp rcvSacks:vector:stddev nan
scalar BGP_Topology_2.RB2.tcp.conn-temp rcvSacks:vector:min inf
scalar BGP_Topology_2.RB2.tcp.conn-temp rcvSacks:vector:max -inf
scalar BGP_Topology_2.RB2.tcp.conn-temp rcvSacks:vector:starttime nan
scalar BGP_Topology_2.RB2.tcp.conn-temp rcvSacks:vector:endtime nan
scalar BGP_Topology_2.RB2.tcp.conn-temp rcvOooSeg:vector:count 0
scalar BGP_Topology_2.RB2.tcp.conn-temp rcvOooSeg:vector:sum 0
scalar BGP_Topology_2.RB2.tcp.conn-temp rcvOooSeg:vector:sumweights 0
scalar BGP_Topology_2.RB2.tcp.conn-temp rcvOooSeg:vector:mean -nan
scalar BGP_Topology_2.RB2.tcp.conn-temp rcvOooSeg:vector:stddev nan
scalar BGP_Topology_2.RB2.tcp.conn-temp rcvOooSeg:vector:min inf
scalar BGP_Topology_2.RB2.tcp.conn-temp rcvOooSeg:vector:max -inf
scalar BGP_Topology_2.RB2.tcp.conn-temp rcvOooSeg:vector:starttime nan
scalar BGP_Topology_2.RB2.tcp.conn-temp rcvOooSeg:vector:endtime nan
scalar BGP_Topology_2.RB2.tcp.conn-temp rcvNASeg:vector:count 0
scalar BGP_Topology_2.RB2.tcp.conn-temp rcvNASeg:vector:sum 0
scalar BGP_Topology_2.RB2.tcp.conn-temp rcvNASeg:vector:sumweights 0
scalar BGP_Topology_2.RB2.tcp.conn-temp rcvNASeg:vector:mean -nan
scalar BGP_Topology_2.RB2.tcp.conn-temp rcvNASeg:vector:stddev nan
scalar BGP_Topology_2.RB2.tcp.conn-temp rcvNASeg:vector:min inf
scalar BGP_Topology_2.RB2.tcp.conn-temp rcvNASeg:vector:max -inf
scalar BGP_Topology_2.RB2.tcp.conn-temp rcvNASeg:vector:starttime nan
scalar BGP_Topology_2.RB2.tcp.conn-temp rcvNASeg:vector:endtime nan
scalar BGP_Topology_2.RB2.tcp.conn-temp sackedBytes:vector:count 0
scalar BGP_Topology_2.RB2.tcp.conn-temp sackedBytes:vector:sum 0
scalar BGP_Topology_2.RB2.tcp.conn-temp sackedBytes:vector:sumweights 0
scalar BGP_Topology_2.RB2.tcp.conn-temp sackedBytes:vector:mean -nan
scalar BGP_Topology_2.RB2.tcp.conn-temp sackedBytes:vector:stddev nan
scalar BGP_Topology_2.RB2.tcp.conn-temp sackedBytes:vector:min inf
scalar BGP_Topology_2.RB2.tcp.conn-temp sackedBytes:vector:max -inf
scalar BGP_Topology_2.RB2.tcp.conn-temp sackedBytes:vector:starttime nan
scalar BGP_Topology_2.RB2.tcp.conn-temp sackedBytes:vector:endtime nan
scalar BGP_Topology_2.RB2.tcp.conn-temp tcpRcvQueueBytes:vector:count 0
scalar BGP_Topology_2.RB2.tcp.conn-temp tcpRcvQueueBytes:vector:sum 0
scalar BGP_Topology_2.RB2.tcp.conn-temp tcpRcvQueueBytes:vector:sumweights 0
scalar BGP_Topology_2.RB2.tcp.conn-temp tcpRcvQueueBytes:vector:mean -nan
scalar BGP_Topology_2.RB2.tcp.conn-temp tcpRcvQueueBytes:vector:stddev nan
scalar BGP_Topology_2.RB2.tcp.conn-temp tcpRcvQueueBytes:vector:min inf
scalar BGP_Topology_2.RB2.tcp.conn-temp tcpRcvQueueBytes:vector:max -inf
scalar BGP_Topology_2.RB2.tcp.conn-temp tcpRcvQueueBytes:vector:starttime nan
scalar BGP_Topology_2.RB2.tcp.conn-temp tcpRcvQueueBytes:vector:endtime nan
scalar BGP_Topology_2.RB2.tcp.conn-temp tcpRcvQueueDrops:vector:count 0
scalar BGP_Topology_2.RB2.tcp.conn-temp tcpRcvQueueDrops:vector:sum 0
scalar BGP_Topology_2.RB2.tcp.conn-temp tcpRcvQueueDrops:vector:sumweights 0
scalar BGP_Topology_2.RB2.tcp.conn-temp tcpRcvQueueDrops:vector:mean -nan
scalar BGP_Topology_2.RB2.tcp.conn-temp tcpRcvQueueDrops:vector:stddev nan
scalar BGP_Topology_2.RB2.tcp.conn-temp tcpRcvQueueDrops:vector:min inf
scalar BGP_Topology_2.RB2.tcp.conn-temp tcpRcvQueueDrops:vector:max -inf
scalar BGP_Topology_2.RB2.tcp.conn-temp tcpRcvQueueDrops:vector:starttime nan
scalar BGP_Topology_2.RB2.tcp.conn-temp tcpRcvQueueDrops:vector:endtime nan
scalar BGP_Topology_2.RB2.tcp.conn-temp tcpRcvPayloadBytes:vector:count 0
scalar BGP_Topology_2.RB2.tcp.conn-temp tcpRcvPayloadBytes:vector:sum 0
scalar BGP_Topology_2.RB2.tcp.conn-temp tcpRcvPayloadBytes:vector:sumweights 0
scalar BGP_Topology_2.RB2.tcp.conn-temp tcpRcvPayloadBytes:vector:mean -nan
scalar BGP_Topology_2.RB2.tcp.conn-temp tcpRcvPayloadBytes:vector:stddev nan
scalar BGP_Topology_2.RB2.tcp.conn-temp tcpRcvPayloadBytes:vector:min inf
scalar BGP_Topology_2.RB2.tcp.conn-temp tcpRcvPayloadBytes:vector:max -inf
scalar BGP_Topology_2.RB2.tcp.conn-temp tcpRcvPayloadBytes:vector:starttime nan
scalar BGP_Topology_2.RB2.tcp.conn-temp tcpRcvPayloadBytes:vector:endtime nan
scalar BGP_Topology_2.RB2.tcp.conn-temp cwnd:vector:count 0
scalar BGP_Topology_2.RB2.tcp.conn-temp cwnd:vector:sum 0
scalar BGP_Topology_2.RB2.tcp.conn-temp cwnd:vector:sumweights 0
scalar BGP_Topology_2.RB2.tcp.conn-temp cwnd:vector:mean -nan
scalar BGP_Topology_2.RB2.tcp.conn-temp cwnd:vector:stddev nan
scalar BGP_Topology_2.RB2.tcp.conn-temp cwnd:vector:min inf
scalar BGP_Topology_2.RB2.tcp.conn-temp cwnd:vector:max -inf
scalar BGP_Topology_2.RB2.tcp.conn-temp cwnd:vector:starttime nan
scalar BGP_Topology_2.RB2.tcp.conn-temp cwnd:vector:endtime nan
scalar BGP_Topology_2.RB2.tcp.conn-temp ssthresh:vector:count 0
scalar BGP_Topology_2.RB2.tcp.conn-temp ssthresh:vector:sum 0
scalar BGP_Topology_2.RB2.tcp.conn-temp ssthresh:vector:sumweights 0
scalar BGP_Topology_2.RB2.tcp.conn-temp ssthresh:vector:mean -nan
scalar BGP_Topology_2.RB2.tcp.conn-temp ssthresh:vector:stddev nan
scalar BGP_Topology_2.RB2.tcp.conn-temp ssthresh:vector:min inf
scalar BGP_Topology_2.RB2.tcp.conn-temp ssthresh:vector:max -inf
scalar BGP_Topology_2.RB2.tcp.conn-temp ssthresh:vector:starttime nan
scalar BGP_Topology_2.RB2.tcp.conn-temp ssthresh:vector:endtime nan
scalar BGP_Topology_2.RB2.tcp.conn-temp rtt:vector:count 0
scalar BGP_Topology_2.RB2.tcp.conn-temp rtt:vector:sum 0
scalar BGP_Topology_2.RB2.tcp.conn-temp rtt:vector:sumweights 0
scalar BGP_Topology_2.RB2.tcp.conn-temp rtt:vector:mean -nan
scalar BGP_Topology_2.RB2.tcp.conn-temp rtt:vector:stddev nan
scalar BGP_Topology_2.RB2.tcp.conn-temp rtt:vector:min inf
scalar BGP_Topology_2.RB2.tcp.conn-temp rtt:vector:max -inf
scalar BGP_Topology_2.RB2.tcp.conn-temp rtt:vector:starttime nan
scalar BGP_Topology_2.RB2.tcp.conn-temp rtt:vector:endtime nan
scalar BGP_Topology_2.RB2.tcp.conn-temp srtt:vector:count 0
scalar BGP_Topology_2.RB2.tcp.conn-temp srtt:vector:sum 0
scalar BGP_Topology_2.RB2.tcp.conn-temp srtt:vector:sumweights 0
scalar BGP_Topology_2.RB2.tcp.conn-temp srtt:vector:mean -nan
scalar BGP_Topology_2.RB2.tcp.conn-temp srtt:vector:stddev nan
scalar BGP_Topology_2.RB2.tcp.conn-temp srtt:vector:min inf
scalar BGP_Topology_2.RB2.tcp.conn-temp srtt:vector:max -inf
scalar BGP_Topology_2.RB2.tcp.conn-temp srtt:vector:starttime nan
scalar BGP_Topology_2.RB2.tcp.conn-temp srtt:vector:endtime nan
scalar BGP_Topology_2.RB2.tcp.conn-temp rttvar:vector:count 0
scalar BGP_Topology_2.RB2.tcp.conn-temp rttvar:vector:sum 0
scalar BGP_Topology_2.RB2.tcp.conn-temp rttvar:vector:sumweights 0
scalar BGP_Topology_2.RB2.tcp.conn-temp rttvar:vector:mean -nan
scalar BGP_Topology_2.RB2.tcp.conn-temp rttvar:vector:stddev nan
scalar BGP_Topology_2.RB2.tcp.conn-temp rttvar:vector:min inf
scalar BGP_Topology_2.RB2.tcp.conn-temp rttvar:vector:max -inf
scalar BGP_Topology_2.RB2.tcp.conn-temp rttvar:vector:starttime nan
scalar BGP_Topology_2.RB2.tcp.conn-temp rttvar:vector:endtime nan
scalar BGP_Topology_2.RB2.tcp.conn-temp rto:vector:count 0
scalar BGP_Topology_2.RB2.tcp.conn-temp rto:vector:sum 0
scalar BGP_Topology_2.RB2.tcp.conn-temp rto:vector:sumweights 0
scalar BGP_Topology_2.RB2.tcp.conn-temp rto:vector:mean -nan
scalar BGP_Topology_2.RB2.tcp.conn-temp rto:vector:stddev nan
scalar BGP_Topology_2.RB2.tcp.conn-temp rto:vector:min inf
scalar BGP_Topology_2.RB2.tcp.conn-temp rto:vector:max -inf
scalar BGP_Topology_2.RB2.tcp.conn-temp rto:vector:starttime nan
scalar BGP_Topology_2.RB2.tcp.conn-temp rto:vector:endtime nan
scalar BGP_Topology_2.RB2.tcp.conn-temp numRtos:vector:count 0
scalar BGP_Topology_2.RB2.tcp.conn-temp numRtos:vector:sum 0
scalar BGP_Topology_2.RB2.tcp.conn-temp numRtos:vector:sumweights 0
scalar BGP_Topology_2.RB2.tcp.conn-temp numRtos:vector:mean -nan
scalar BGP_Topology_2.RB2.tcp.conn-temp numRtos:vector:stddev nan
scalar BGP_Topology_2.RB2.tcp.conn-temp numRtos:vector:min inf
scalar BGP_Topology_2.RB2.tcp.conn-temp numRtos:vector:max -inf
scalar BGP_Topology_2.RB2.tcp.conn-temp numRtos:vector:starttime nan
scalar BGP_Topology_2.RB2.tcp.conn-temp numRtos:vector:endtime nan
scalar BGP_Topology_2.RB2.tcp.conn-temp load:vector:count 0
scalar BGP_Topology_2.RB2.tcp.conn-temp load:vector:sum 0
scalar BGP_Topology_2.RB2.tcp.conn-temp load:vector:sumweights 0
scalar BGP_Topology_2.RB2.tcp.conn-temp load:vector:mean -nan
scalar BGP_Topology_2.RB2.tcp.conn-temp load:vector:stddev nan
scalar BGP_Topology_2.RB2.tcp.conn-temp load:vector:min inf
scalar BGP_Topology_2.RB2.tcp.conn-temp load:vector:max -inf
scalar BGP_Topology_2.RB2.tcp.conn-temp load:vector:starttime nan
scalar BGP_Topology_2.RB2.tcp.conn-temp load:vector:endtime nan
scalar BGP_Topology_2.RB2.tcp.conn-temp calcLoad:vector:count 0
scalar BGP_Topology_2.RB2.tcp.conn-temp calcLoad:vector:sum 0
scalar BGP_Topology_2.RB2.tcp.conn-temp calcLoad:vector:sumweights 0
scalar BGP_Topology_2.RB2.tcp.conn-temp calcLoad:vector:mean -nan
scalar BGP_Topology_2.RB2.tcp.conn-temp calcLoad:vector:stddev nan
scalar BGP_Topology_2.RB2.tcp.conn-temp calcLoad:vector:min inf
scalar BGP_Topology_2.RB2.tcp.conn-temp calcLoad:vector:max -inf
scalar BGP_Topology_2.RB2.tcp.conn-temp calcLoad:vector:starttime nan
scalar BGP_Topology_2.RB2.tcp.conn-temp calcLoad:vector:endtime nan
scalar BGP_Topology_2.RB2.tcp.conn-temp markingProb:vector:count 0
scalar BGP_Topology_2.RB2.tcp.conn-temp markingProb:vector:sum 0
scalar BGP_Topology_2.RB2.tcp.conn-temp markingProb:vector:sumweights 0
scalar BGP_Topology_2.RB2.tcp.conn-temp markingProb:vector:mean -nan
scalar BGP_Topology_2.RB2.tcp.conn-temp markingProb:vector:stddev nan
scalar BGP_Topology_2.RB2.tcp.conn-temp markingProb:vector:min inf
scalar BGP_Topology_2.RB2.tcp.conn-temp markingProb:vector:max -inf
scalar BGP_Topology_2.RB2.tcp.conn-temp markingProb:vector:starttime nan
scalar BGP_Topology_2.RB2.tcp.conn-temp markingProb:vector:endtime nan

