version 3
run StatisticXMac-0-20251118-12:00:43-114797
attr configname StatisticXMac
attr datetime 20251118-12:00:43
attr datetimef 20251118-120043
attr experiment StatisticXMac
attr inifile omnetpp.ini
attr iterationvars "$gwSlotDuration=0.01, $snSlotDuration=2.5*0.01"
attr iterationvarsd gwSlotDuration=0.01/snSlotDuration=2.5#2a0.01
attr iterationvarsf gwSlotDuration=0.01,snSlotDuration=2.5#2a0.01-
attr measurement "$gwSlotDuration=0.01, $snSlotDuration=2.5*0.01"
attr network SensorNetworkShowcaseB
attr processid 114797
attr repetition 0
attr replication #0
attr resultdir results
attr runnumber 0
attr seedset 0
itervar gwSlotDuration 0.01
itervar snSlotDuration 2.5*0.01
config **.param-recording false
config image-path /home/zoli/Projects/OMNET/inet/images
config output-scalar-file results/omnetpp.ini-StatisticXMac-#0.sca
config output-scalar-precision 17
config output-vector-file results/omnetpp.ini-StatisticXMac-#0.vec
config output-vector-precision 17
config record-eventlog false
config sim-time-limit 25s
config extends StatisticBase
config **.wlan[*].mac.typename XMac
config *.gateway.wlan[*].mac.slotDuration 0.01s
config *.sensor*.wlan[*].mac.slotDuration 2.5*0.01s
config **.wlan[*].queue.typename DropTailQueue
config **.wlan[*].queue.packetCapacity 20
config network SensorNetworkShowcaseB
config **.vector-recording false
config repeat 2
config **.vector-recording false
config **.packetReceived:count.scalar-recording true
config **.residualEnergyCapacity:last.scalar-recording true
config **.scalar-recording false
config **.param-recording false
config sim-time-limit 25s
config **.wlan[*].typename WirelessInterface
config **.wlan[*].radio.typename ApskRadio
config **.wlan[*].radio.signalAnalogRepresentation "\"scalar\""
config **.arp.typename GlobalArp
config *.gateway.forwarding true
config **.maxTransmissionDuration 100ms
config *.configurator.addStaticRoutes false
config *.configurator.config "xmldoc(\"config.xml\")"
config **.radio.centerFrequency 2.45GHz
config **.radio.bandwidth 2.8MHz
config **.radio.transmitter.bitrate "19200 bps"
config **.radio.transmitter.headerLength 8b
config **.radio.transmitter.preambleDuration 0.0001s
config **.radio.transmitter.power 2.24mW
config **.radio.receiver.energyDetection -90dBm
config **.radio.receiver.sensitivity -100dBm
config **.radio.receiver.snirThreshold -8dB
config *.radioMedium.backgroundNoise.power -110dBm
config **.wlan[*].mac.headerLength 8b
config *.sensor*.numApps 1
config *.sensor*.app[0].typename UdpBasicApp
config *.sensor*.app[0].destAddresses "\"server\""
config *.sensor*.app[0].destPort 1000
config *.sensor*.app[0].sendInterval 1s
config *.sensor*.app[0].startTime exponential(1s)
config *.sensor*.app[0].messageLength 10Byte
config *.server.numApps 1
config *.server.app[0].typename UdpSink
config *.server.app[0].localPort 1000
config *.visualizer.routingTableVisualizer.displayRoutingTables false
config *.visualizer.routingTableVisualizer.displayRoutesIndividually false
config *.visualizer.routingTableVisualizer.lineShift 0
config *.visualizer.routingTableVisualizer.displayLabels false
config *.visualizer.infoVisualizer.modules "\"*.server.app[0]\""
config *.visualizer.infoVisualizer.format "\"%t\""
config *.visualizer.networkRouteVisualizer.displayRoutes true
config *.visualizer.physicalLinkVisualizer.displayLinks true

scalar SensorNetworkShowcaseB.sensor4.energyStorage residualEnergyCapacity:last -0.045101540881491459
scalar SensorNetworkShowcaseB.sensor4.udp packetReceived:count 0
scalar SensorNetworkShowcaseB.sensor4.app[0] packetReceived:count 0
scalar SensorNetworkShowcaseB.sensor1.energyStorage residualEnergyCapacity:last -0.043088575944548513
scalar SensorNetworkShowcaseB.sensor1.udp packetReceived:count 0
scalar SensorNetworkShowcaseB.sensor1.app[0] packetReceived:count 0
scalar SensorNetworkShowcaseB.sensor2.energyStorage residualEnergyCapacity:last -0.04855048336479896
scalar SensorNetworkShowcaseB.sensor2.udp packetReceived:count 0
scalar SensorNetworkShowcaseB.sensor2.app[0] packetReceived:count 0
scalar SensorNetworkShowcaseB.sensor3.energyStorage residualEnergyCapacity:last -0.047580270497368536
scalar SensorNetworkShowcaseB.sensor3.udp packetReceived:count 0
scalar SensorNetworkShowcaseB.sensor3.app[0] packetReceived:count 0
scalar SensorNetworkShowcaseB.gateway.energyStorage residualEnergyCapacity:last -0.033128526967438454
scalar SensorNetworkShowcaseB.gateway.udp packetReceived:count 0
scalar SensorNetworkShowcaseB.server.udp packetReceived:count 0
scalar SensorNetworkShowcaseB.server.app[0] packetReceived:count 0
scalar SensorNetworkShowcaseB.sensor4.energyStorage powerConsumption:vector:count 0
scalar SensorNetworkShowcaseB.sensor4.energyStorage powerConsumption:vector:sum 0
scalar SensorNetworkShowcaseB.sensor4.energyStorage powerConsumption:vector:sumweights 0
scalar SensorNetworkShowcaseB.sensor4.energyStorage powerConsumption:vector:mean -nan
scalar SensorNetworkShowcaseB.sensor4.energyStorage powerConsumption:vector:stddev nan
scalar SensorNetworkShowcaseB.sensor4.energyStorage powerConsumption:vector:min inf
scalar SensorNetworkShowcaseB.sensor4.energyStorage powerConsumption:vector:max -inf
scalar SensorNetworkShowcaseB.sensor4.energyStorage powerConsumption:vector:starttime nan
scalar SensorNetworkShowcaseB.sensor4.energyStorage powerConsumption:vector:endtime nan
scalar SensorNetworkShowcaseB.sensor4.energyStorage powerGeneration:vector:count 0
scalar SensorNetworkShowcaseB.sensor4.energyStorage powerGeneration:vector:sum 0
scalar SensorNetworkShowcaseB.sensor4.energyStorage powerGeneration:vector:sumweights 0
scalar SensorNetworkShowcaseB.sensor4.energyStorage powerGeneration:vector:mean -nan
scalar SensorNetworkShowcaseB.sensor4.energyStorage powerGeneration:vector:stddev nan
scalar SensorNetworkShowcaseB.sensor4.energyStorage powerGeneration:vector:min inf
scalar SensorNetworkShowcaseB.sensor4.energyStorage powerGeneration:vector:max -inf
scalar SensorNetworkShowcaseB.sensor4.energyStorage powerGeneration:vector:starttime nan
scalar SensorNetworkShowcaseB.sensor4.energyStorage powerGeneration:vector:endtime nan
scalar SensorNetworkShowcaseB.sensor4.energyStorage residualEnergyCapacity:vector:count 0
scalar SensorNetworkShowcaseB.sensor4.energyStorage residualEnergyCapacity:vector:sum 0
scalar SensorNetworkShowcaseB.sensor4.energyStorage residualEnergyCapacity:vector:sumweights 0
scalar SensorNetworkShowcaseB.sensor4.energyStorage residualEnergyCapacity:vector:mean -nan
scalar SensorNetworkShowcaseB.sensor4.energyStorage residualEnergyCapacity:vector:stddev nan
scalar SensorNetworkShowcaseB.sensor4.energyStorage residualEnergyCapacity:vector:min inf
scalar SensorNetworkShowcaseB.sensor4.energyStorage residualEnergyCapacity:vector:max -inf
scalar SensorNetworkShowcaseB.sensor4.energyStorage residualEnergyCapacity:vector:starttime nan
scalar SensorNetworkShowcaseB.sensor4.energyStorage residualEnergyCapacity:vector:endtime nan
scalar SensorNetworkShowcaseB.sensor4.lo[0].lo rcvdPkFromHl:vector(packetBytes):count 0
scalar SensorNetworkShowcaseB.sensor4.lo[0].lo rcvdPkFromHl:vector(packetBytes):sum 0
scalar SensorNetworkShowcaseB.sensor4.lo[0].lo rcvdPkFromHl:vector(packetBytes):sumweights 0
scalar SensorNetworkShowcaseB.sensor4.lo[0].lo rcvdPkFromHl:vector(packetBytes):mean -nan
scalar SensorNetworkShowcaseB.sensor4.lo[0].lo rcvdPkFromHl:vector(packetBytes):stddev nan
scalar SensorNetworkShowcaseB.sensor4.lo[0].lo rcvdPkFromHl:vector(packetBytes):min inf
scalar SensorNetworkShowcaseB.sensor4.lo[0].lo rcvdPkFromHl:vector(packetBytes):max -inf
scalar SensorNetworkShowcaseB.sensor4.lo[0].lo rcvdPkFromHl:vector(packetBytes):starttime nan
scalar SensorNetworkShowcaseB.sensor4.lo[0].lo rcvdPkFromHl:vector(packetBytes):endtime nan
scalar SensorNetworkShowcaseB.sensor4.lo[0].lo passedUpPk:vector(packetBytes):count 0
scalar SensorNetworkShowcaseB.sensor4.lo[0].lo passedUpPk:vector(packetBytes):sum 0
scalar SensorNetworkShowcaseB.sensor4.lo[0].lo passedUpPk:vector(packetBytes):sumweights 0
scalar SensorNetworkShowcaseB.sensor4.lo[0].lo passedUpPk:vector(packetBytes):mean -nan
scalar SensorNetworkShowcaseB.sensor4.lo[0].lo passedUpPk:vector(packetBytes):stddev nan
scalar SensorNetworkShowcaseB.sensor4.lo[0].lo passedUpPk:vector(packetBytes):min inf
scalar SensorNetworkShowcaseB.sensor4.lo[0].lo passedUpPk:vector(packetBytes):max -inf
scalar SensorNetworkShowcaseB.sensor4.lo[0].lo passedUpPk:vector(packetBytes):starttime nan
scalar SensorNetworkShowcaseB.sensor4.lo[0].lo passedUpPk:vector(packetBytes):endtime nan
scalar SensorNetworkShowcaseB.sensor4.lo[0] packetDropInterfaceDown:vector(packetBytes):count 0
scalar SensorNetworkShowcaseB.sensor4.lo[0] packetDropInterfaceDown:vector(packetBytes):sum 0
scalar SensorNetworkShowcaseB.sensor4.lo[0] packetDropInterfaceDown:vector(packetBytes):sumweights 0
scalar SensorNetworkShowcaseB.sensor4.lo[0] packetDropInterfaceDown:vector(packetBytes):mean -nan
scalar SensorNetworkShowcaseB.sensor4.lo[0] packetDropInterfaceDown:vector(packetBytes):stddev nan
scalar SensorNetworkShowcaseB.sensor4.lo[0] packetDropInterfaceDown:vector(packetBytes):min inf
scalar SensorNetworkShowcaseB.sensor4.lo[0] packetDropInterfaceDown:vector(packetBytes):max -inf
scalar SensorNetworkShowcaseB.sensor4.lo[0] packetDropInterfaceDown:vector(packetBytes):starttime nan
scalar SensorNetworkShowcaseB.sensor4.lo[0] packetDropInterfaceDown:vector(packetBytes):endtime nan
scalar SensorNetworkShowcaseB.sensor4.lo[0] packetDropNoCarrier:vector(packetBytes):count 0
scalar SensorNetworkShowcaseB.sensor4.lo[0] packetDropNoCarrier:vector(packetBytes):sum 0
scalar SensorNetworkShowcaseB.sensor4.lo[0] packetDropNoCarrier:vector(packetBytes):sumweights 0
scalar SensorNetworkShowcaseB.sensor4.lo[0] packetDropNoCarrier:vector(packetBytes):mean -nan
scalar SensorNetworkShowcaseB.sensor4.lo[0] packetDropNoCarrier:vector(packetBytes):stddev nan
scalar SensorNetworkShowcaseB.sensor4.lo[0] packetDropNoCarrier:vector(packetBytes):min inf
scalar SensorNetworkShowcaseB.sensor4.lo[0] packetDropNoCarrier:vector(packetBytes):max -inf
scalar SensorNetworkShowcaseB.sensor4.lo[0] packetDropNoCarrier:vector(packetBytes):starttime nan
scalar SensorNetworkShowcaseB.sensor4.lo[0] packetDropNoCarrier:vector(packetBytes):endtime nan
scalar SensorNetworkShowcaseB.sensor4.wlan[0].queue queueLength:vector:count 0
scalar SensorNetworkShowcaseB.sensor4.wlan[0].queue queueLength:vector:sum 0
scalar SensorNetworkShowcaseB.sensor4.wlan[0].queue queueLength:vector:sumweights 0
scalar SensorNetworkShowcaseB.sensor4.wlan[0].queue queueLength:vector:mean -nan
scalar SensorNetworkShowcaseB.sensor4.wlan[0].queue queueLength:vector:stddev nan
scalar SensorNetworkShowcaseB.sensor4.wlan[0].queue queueLength:vector:min inf
scalar SensorNetworkShowcaseB.sensor4.wlan[0].queue queueLength:vector:max -inf
scalar SensorNetworkShowcaseB.sensor4.wlan[0].queue queueLength:vector:starttime nan
scalar SensorNetworkShowcaseB.sensor4.wlan[0].queue queueLength:vector:endtime nan
scalar SensorNetworkShowcaseB.sensor4.wlan[0].queue queueBitLength:vector:count 0
scalar SensorNetworkShowcaseB.sensor4.wlan[0].queue queueBitLength:vector:sum 0
scalar SensorNetworkShowcaseB.sensor4.wlan[0].queue queueBitLength:vector:sumweights 0
scalar SensorNetworkShowcaseB.sensor4.wlan[0].queue queueBitLength:vector:mean -nan
scalar SensorNetworkShowcaseB.sensor4.wlan[0].queue queueBitLength:vector:stddev nan
scalar SensorNetworkShowcaseB.sensor4.wlan[0].queue queueBitLength:vector:min inf
scalar SensorNetworkShowcaseB.sensor4.wlan[0].queue queueBitLength:vector:max -inf
scalar SensorNetworkShowcaseB.sensor4.wlan[0].queue queueBitLength:vector:starttime nan
scalar SensorNetworkShowcaseB.sensor4.wlan[0].queue queueBitLength:vector:endtime nan
scalar SensorNetworkShowcaseB.sensor4.wlan[0].queue queueingTime:vector:count 0
scalar SensorNetworkShowcaseB.sensor4.wlan[0].queue queueingTime:vector:sum 0
scalar SensorNetworkShowcaseB.sensor4.wlan[0].queue queueingTime:vector:sumweights 0
scalar SensorNetworkShowcaseB.sensor4.wlan[0].queue queueingTime:vector:mean -nan
scalar SensorNetworkShowcaseB.sensor4.wlan[0].queue queueingTime:vector:stddev nan
scalar SensorNetworkShowcaseB.sensor4.wlan[0].queue queueingTime:vector:min inf
scalar SensorNetworkShowcaseB.sensor4.wlan[0].queue queueingTime:vector:max -inf
scalar SensorNetworkShowcaseB.sensor4.wlan[0].queue queueingTime:vector:starttime nan
scalar SensorNetworkShowcaseB.sensor4.wlan[0].queue queueingTime:vector:endtime nan
scalar SensorNetworkShowcaseB.sensor4.wlan[0].queue incomingPacketLengths:vector:count 0
scalar SensorNetworkShowcaseB.sensor4.wlan[0].queue incomingPacketLengths:vector:sum 0
scalar SensorNetworkShowcaseB.sensor4.wlan[0].queue incomingPacketLengths:vector:sumweights 0
scalar SensorNetworkShowcaseB.sensor4.wlan[0].queue incomingPacketLengths:vector:mean -nan
scalar SensorNetworkShowcaseB.sensor4.wlan[0].queue incomingPacketLengths:vector:stddev nan
scalar SensorNetworkShowcaseB.sensor4.wlan[0].queue incomingPacketLengths:vector:min inf
scalar SensorNetworkShowcaseB.sensor4.wlan[0].queue incomingPacketLengths:vector:max -inf
scalar SensorNetworkShowcaseB.sensor4.wlan[0].queue incomingPacketLengths:vector:starttime nan
scalar SensorNetworkShowcaseB.sensor4.wlan[0].queue incomingPacketLengths:vector:endtime nan
scalar SensorNetworkShowcaseB.sensor4.wlan[0].queue incomingDataRate:vector:count 0
scalar SensorNetworkShowcaseB.sensor4.wlan[0].queue incomingDataRate:vector:sum 0
scalar SensorNetworkShowcaseB.sensor4.wlan[0].queue incomingDataRate:vector:sumweights 0
scalar SensorNetworkShowcaseB.sensor4.wlan[0].queue incomingDataRate:vector:mean -nan
scalar SensorNetworkShowcaseB.sensor4.wlan[0].queue incomingDataRate:vector:stddev nan
scalar SensorNetworkShowcaseB.sensor4.wlan[0].queue incomingDataRate:vector:min inf
scalar SensorNetworkShowcaseB.sensor4.wlan[0].queue incomingDataRate:vector:max -inf
scalar SensorNetworkShowcaseB.sensor4.wlan[0].queue incomingDataRate:vector:starttime nan
scalar SensorNetworkShowcaseB.sensor4.wlan[0].queue incomingDataRate:vector:endtime nan
scalar SensorNetworkShowcaseB.sensor4.wlan[0].queue outgoingPacketLengths:vector:count 0
scalar SensorNetworkShowcaseB.sensor4.wlan[0].queue outgoingPacketLengths:vector:sum 0
scalar SensorNetworkShowcaseB.sensor4.wlan[0].queue outgoingPacketLengths:vector:sumweights 0
scalar SensorNetworkShowcaseB.sensor4.wlan[0].queue outgoingPacketLengths:vector:mean -nan
scalar SensorNetworkShowcaseB.sensor4.wlan[0].queue outgoingPacketLengths:vector:stddev nan
scalar SensorNetworkShowcaseB.sensor4.wlan[0].queue outgoingPacketLengths:vector:min inf
scalar SensorNetworkShowcaseB.sensor4.wlan[0].queue outgoingPacketLengths:vector:max -inf
scalar SensorNetworkShowcaseB.sensor4.wlan[0].queue outgoingPacketLengths:vector:starttime nan
scalar SensorNetworkShowcaseB.sensor4.wlan[0].queue outgoingPacketLengths:vector:endtime nan
scalar SensorNetworkShowcaseB.sensor4.wlan[0].queue outgoingDataRate:vector:count 0
scalar SensorNetworkShowcaseB.sensor4.wlan[0].queue outgoingDataRate:vector:sum 0
scalar SensorNetworkShowcaseB.sensor4.wlan[0].queue outgoingDataRate:vector:sumweights 0
scalar SensorNetworkShowcaseB.sensor4.wlan[0].queue outgoingDataRate:vector:mean -nan
scalar SensorNetworkShowcaseB.sensor4.wlan[0].queue outgoingDataRate:vector:stddev nan
scalar SensorNetworkShowcaseB.sensor4.wlan[0].queue outgoingDataRate:vector:min inf
scalar SensorNetworkShowcaseB.sensor4.wlan[0].queue outgoingDataRate:vector:max -inf
scalar SensorNetworkShowcaseB.sensor4.wlan[0].queue outgoingDataRate:vector:starttime nan
scalar SensorNetworkShowcaseB.sensor4.wlan[0].queue outgoingDataRate:vector:endtime nan
scalar SensorNetworkShowcaseB.sensor4.wlan[0].queue droppedPacketLengthsQueueOverflow:vector:count 0
scalar SensorNetworkShowcaseB.sensor4.wlan[0].queue droppedPacketLengthsQueueOverflow:vector:sum 0
scalar SensorNetworkShowcaseB.sensor4.wlan[0].queue droppedPacketLengthsQueueOverflow:vector:sumweights 0
scalar SensorNetworkShowcaseB.sensor4.wlan[0].queue droppedPacketLengthsQueueOverflow:vector:mean -nan
scalar SensorNetworkShowcaseB.sensor4.wlan[0].queue droppedPacketLengthsQueueOverflow:vector:stddev nan
scalar SensorNetworkShowcaseB.sensor4.wlan[0].queue droppedPacketLengthsQueueOverflow:vector:min inf
scalar SensorNetworkShowcaseB.sensor4.wlan[0].queue droppedPacketLengthsQueueOverflow:vector:max -inf
scalar SensorNetworkShowcaseB.sensor4.wlan[0].queue droppedPacketLengthsQueueOverflow:vector:starttime nan
scalar SensorNetworkShowcaseB.sensor4.wlan[0].queue droppedPacketLengthsQueueOverflow:vector:endtime nan
scalar SensorNetworkShowcaseB.sensor4.wlan[0].queue flowQueueingTime:vector:count 0
scalar SensorNetworkShowcaseB.sensor4.wlan[0].queue flowQueueingTime:vector:sum 0
scalar SensorNetworkShowcaseB.sensor4.wlan[0].queue flowQueueingTime:vector:sumweights 0
scalar SensorNetworkShowcaseB.sensor4.wlan[0].queue flowQueueingTime:vector:mean -nan
scalar SensorNetworkShowcaseB.sensor4.wlan[0].queue flowQueueingTime:vector:stddev nan
scalar SensorNetworkShowcaseB.sensor4.wlan[0].queue flowQueueingTime:vector:min inf
scalar SensorNetworkShowcaseB.sensor4.wlan[0].queue flowQueueingTime:vector:max -inf
scalar SensorNetworkShowcaseB.sensor4.wlan[0].queue flowQueueingTime:vector:starttime nan
scalar SensorNetworkShowcaseB.sensor4.wlan[0].queue flowQueueingTime:vector:endtime nan
scalar SensorNetworkShowcaseB.sensor4.wlan[0].queue flowIncomingDataRate:vector:count 0
scalar SensorNetworkShowcaseB.sensor4.wlan[0].queue flowIncomingDataRate:vector:sum 0
scalar SensorNetworkShowcaseB.sensor4.wlan[0].queue flowIncomingDataRate:vector:sumweights 0
scalar SensorNetworkShowcaseB.sensor4.wlan[0].queue flowIncomingDataRate:vector:mean -nan
scalar SensorNetworkShowcaseB.sensor4.wlan[0].queue flowIncomingDataRate:vector:stddev nan
scalar SensorNetworkShowcaseB.sensor4.wlan[0].queue flowIncomingDataRate:vector:min inf
scalar SensorNetworkShowcaseB.sensor4.wlan[0].queue flowIncomingDataRate:vector:max -inf
scalar SensorNetworkShowcaseB.sensor4.wlan[0].queue flowIncomingDataRate:vector:starttime nan
scalar SensorNetworkShowcaseB.sensor4.wlan[0].queue flowIncomingDataRate:vector:endtime nan
scalar SensorNetworkShowcaseB.sensor4.wlan[0].queue flowOutgoingDataRate:vector:count 0
scalar SensorNetworkShowcaseB.sensor4.wlan[0].queue flowOutgoingDataRate:vector:sum 0
scalar SensorNetworkShowcaseB.sensor4.wlan[0].queue flowOutgoingDataRate:vector:sumweights 0
scalar SensorNetworkShowcaseB.sensor4.wlan[0].queue flowOutgoingDataRate:vector:mean -nan
scalar SensorNetworkShowcaseB.sensor4.wlan[0].queue flowOutgoingDataRate:vector:stddev nan
scalar SensorNetworkShowcaseB.sensor4.wlan[0].queue flowOutgoingDataRate:vector:min inf
scalar SensorNetworkShowcaseB.sensor4.wlan[0].queue flowOutgoingDataRate:vector:max -inf
scalar SensorNetworkShowcaseB.sensor4.wlan[0].queue flowOutgoingDataRate:vector:starttime nan
scalar SensorNetworkShowcaseB.sensor4.wlan[0].queue flowOutgoingDataRate:vector:endtime nan
scalar SensorNetworkShowcaseB.sensor4.wlan[0].radio.energyConsumer powerConsumption:vector:count 0
scalar SensorNetworkShowcaseB.sensor4.wlan[0].radio.energyConsumer powerConsumption:vector:sum 0
scalar SensorNetworkShowcaseB.sensor4.wlan[0].radio.energyConsumer powerConsumption:vector:sumweights 0
scalar SensorNetworkShowcaseB.sensor4.wlan[0].radio.energyConsumer powerConsumption:vector:mean -nan
scalar SensorNetworkShowcaseB.sensor4.wlan[0].radio.energyConsumer powerConsumption:vector:stddev nan
scalar SensorNetworkShowcaseB.sensor4.wlan[0].radio.energyConsumer powerConsumption:vector:min inf
scalar SensorNetworkShowcaseB.sensor4.wlan[0].radio.energyConsumer powerConsumption:vector:max -inf
scalar SensorNetworkShowcaseB.sensor4.wlan[0].radio.energyConsumer powerConsumption:vector:starttime nan
scalar SensorNetworkShowcaseB.sensor4.wlan[0].radio.energyConsumer powerConsumption:vector:endtime nan
scalar SensorNetworkShowcaseB.sensor4.wlan[0].radio radioMode:vector:count 0
scalar SensorNetworkShowcaseB.sensor4.wlan[0].radio radioMode:vector:sum 0
scalar SensorNetworkShowcaseB.sensor4.wlan[0].radio radioMode:vector:sumweights 0
scalar SensorNetworkShowcaseB.sensor4.wlan[0].radio radioMode:vector:mean -nan
scalar SensorNetworkShowcaseB.sensor4.wlan[0].radio radioMode:vector:stddev nan
scalar SensorNetworkShowcaseB.sensor4.wlan[0].radio radioMode:vector:min inf
scalar SensorNetworkShowcaseB.sensor4.wlan[0].radio radioMode:vector:max -inf
scalar SensorNetworkShowcaseB.sensor4.wlan[0].radio radioMode:vector:starttime nan
scalar SensorNetworkShowcaseB.sensor4.wlan[0].radio radioMode:vector:endtime nan
scalar SensorNetworkShowcaseB.sensor4.wlan[0].radio receptionState:vector:count 0
scalar SensorNetworkShowcaseB.sensor4.wlan[0].radio receptionState:vector:sum 0
scalar SensorNetworkShowcaseB.sensor4.wlan[0].radio receptionState:vector:sumweights 0
scalar SensorNetworkShowcaseB.sensor4.wlan[0].radio receptionState:vector:mean -nan
scalar SensorNetworkShowcaseB.sensor4.wlan[0].radio receptionState:vector:stddev nan
scalar SensorNetworkShowcaseB.sensor4.wlan[0].radio receptionState:vector:min inf
scalar SensorNetworkShowcaseB.sensor4.wlan[0].radio receptionState:vector:max -inf
scalar SensorNetworkShowcaseB.sensor4.wlan[0].radio receptionState:vector:starttime nan
scalar SensorNetworkShowcaseB.sensor4.wlan[0].radio receptionState:vector:endtime nan
scalar SensorNetworkShowcaseB.sensor4.wlan[0].radio transmissionState:vector:count 0
scalar SensorNetworkShowcaseB.sensor4.wlan[0].radio transmissionState:vector:sum 0
scalar SensorNetworkShowcaseB.sensor4.wlan[0].radio transmissionState:vector:sumweights 0
scalar SensorNetworkShowcaseB.sensor4.wlan[0].radio transmissionState:vector:mean -nan
scalar SensorNetworkShowcaseB.sensor4.wlan[0].radio transmissionState:vector:stddev nan
scalar SensorNetworkShowcaseB.sensor4.wlan[0].radio transmissionState:vector:min inf
scalar SensorNetworkShowcaseB.sensor4.wlan[0].radio transmissionState:vector:max -inf
scalar SensorNetworkShowcaseB.sensor4.wlan[0].radio transmissionState:vector:starttime nan
scalar SensorNetworkShowcaseB.sensor4.wlan[0].radio transmissionState:vector:endtime nan
scalar SensorNetworkShowcaseB.sensor4.wlan[0].radio packetDropped:vector(packetBytes):count 0
scalar SensorNetworkShowcaseB.sensor4.wlan[0].radio packetDropped:vector(packetBytes):sum 0
scalar SensorNetworkShowcaseB.sensor4.wlan[0].radio packetDropped:vector(packetBytes):sumweights 0
scalar SensorNetworkShowcaseB.sensor4.wlan[0].radio packetDropped:vector(packetBytes):mean -nan
scalar SensorNetworkShowcaseB.sensor4.wlan[0].radio packetDropped:vector(packetBytes):stddev nan
scalar SensorNetworkShowcaseB.sensor4.wlan[0].radio packetDropped:vector(packetBytes):min inf
scalar SensorNetworkShowcaseB.sensor4.wlan[0].radio packetDropped:vector(packetBytes):max -inf
scalar SensorNetworkShowcaseB.sensor4.wlan[0].radio packetDropped:vector(packetBytes):starttime nan
scalar SensorNetworkShowcaseB.sensor4.wlan[0].radio packetDropped:vector(packetBytes):endtime nan
scalar SensorNetworkShowcaseB.sensor4.wlan[0] packetDropInterfaceDown:vector(packetBytes):count 0
scalar SensorNetworkShowcaseB.sensor4.wlan[0] packetDropInterfaceDown:vector(packetBytes):sum 0
scalar SensorNetworkShowcaseB.sensor4.wlan[0] packetDropInterfaceDown:vector(packetBytes):sumweights 0
scalar SensorNetworkShowcaseB.sensor4.wlan[0] packetDropInterfaceDown:vector(packetBytes):mean -nan
scalar SensorNetworkShowcaseB.sensor4.wlan[0] packetDropInterfaceDown:vector(packetBytes):stddev nan
scalar SensorNetworkShowcaseB.sensor4.wlan[0] packetDropInterfaceDown:vector(packetBytes):min inf
scalar SensorNetworkShowcaseB.sensor4.wlan[0] packetDropInterfaceDown:vector(packetBytes):max -inf
scalar SensorNetworkShowcaseB.sensor4.wlan[0] packetDropInterfaceDown:vector(packetBytes):starttime nan
scalar SensorNetworkShowcaseB.sensor4.wlan[0] packetDropInterfaceDown:vector(packetBytes):endtime nan
scalar SensorNetworkShowcaseB.sensor4.wlan[0] packetDropNoCarrier:vector(packetBytes):count 0
scalar SensorNetworkShowcaseB.sensor4.wlan[0] packetDropNoCarrier:vector(packetBytes):sum 0
scalar SensorNetworkShowcaseB.sensor4.wlan[0] packetDropNoCarrier:vector(packetBytes):sumweights 0
scalar SensorNetworkShowcaseB.sensor4.wlan[0] packetDropNoCarrier:vector(packetBytes):mean -nan
scalar SensorNetworkShowcaseB.sensor4.wlan[0] packetDropNoCarrier:vector(packetBytes):stddev nan
scalar SensorNetworkShowcaseB.sensor4.wlan[0] packetDropNoCarrier:vector(packetBytes):min inf
scalar SensorNetworkShowcaseB.sensor4.wlan[0] packetDropNoCarrier:vector(packetBytes):max -inf
scalar SensorNetworkShowcaseB.sensor4.wlan[0] packetDropNoCarrier:vector(packetBytes):starttime nan
scalar SensorNetworkShowcaseB.sensor4.wlan[0] packetDropNoCarrier:vector(packetBytes):endtime nan
scalar SensorNetworkShowcaseB.sensor4.ipv4.ip packetDropAddressResolutionFailed:vector(packetBytes):count 0
scalar SensorNetworkShowcaseB.sensor4.ipv4.ip packetDropAddressResolutionFailed:vector(packetBytes):sum 0
scalar SensorNetworkShowcaseB.sensor4.ipv4.ip packetDropAddressResolutionFailed:vector(packetBytes):sumweights 0
scalar SensorNetworkShowcaseB.sensor4.ipv4.ip packetDropAddressResolutionFailed:vector(packetBytes):mean -nan
scalar SensorNetworkShowcaseB.sensor4.ipv4.ip packetDropAddressResolutionFailed:vector(packetBytes):stddev nan
scalar SensorNetworkShowcaseB.sensor4.ipv4.ip packetDropAddressResolutionFailed:vector(packetBytes):min inf
scalar SensorNetworkShowcaseB.sensor4.ipv4.ip packetDropAddressResolutionFailed:vector(packetBytes):max -inf
scalar SensorNetworkShowcaseB.sensor4.ipv4.ip packetDropAddressResolutionFailed:vector(packetBytes):starttime nan
scalar SensorNetworkShowcaseB.sensor4.ipv4.ip packetDropAddressResolutionFailed:vector(packetBytes):endtime nan
scalar SensorNetworkShowcaseB.sensor4.ipv4.ip packetDropHopLimitReached:vector(packetBytes):count 0
scalar SensorNetworkShowcaseB.sensor4.ipv4.ip packetDropHopLimitReached:vector(packetBytes):sum 0
scalar SensorNetworkShowcaseB.sensor4.ipv4.ip packetDropHopLimitReached:vector(packetBytes):sumweights 0
scalar SensorNetworkShowcaseB.sensor4.ipv4.ip packetDropHopLimitReached:vector(packetBytes):mean -nan
scalar SensorNetworkShowcaseB.sensor4.ipv4.ip packetDropHopLimitReached:vector(packetBytes):stddev nan
scalar SensorNetworkShowcaseB.sensor4.ipv4.ip packetDropHopLimitReached:vector(packetBytes):min inf
scalar SensorNetworkShowcaseB.sensor4.ipv4.ip packetDropHopLimitReached:vector(packetBytes):max -inf
scalar SensorNetworkShowcaseB.sensor4.ipv4.ip packetDropHopLimitReached:vector(packetBytes):starttime nan
scalar SensorNetworkShowcaseB.sensor4.ipv4.ip packetDropHopLimitReached:vector(packetBytes):endtime nan
scalar SensorNetworkShowcaseB.sensor4.ipv4.ip packetDropForwardingDisabled:vector(packetBytes):count 0
scalar SensorNetworkShowcaseB.sensor4.ipv4.ip packetDropForwardingDisabled:vector(packetBytes):sum 0
scalar SensorNetworkShowcaseB.sensor4.ipv4.ip packetDropForwardingDisabled:vector(packetBytes):sumweights 0
scalar SensorNetworkShowcaseB.sensor4.ipv4.ip packetDropForwardingDisabled:vector(packetBytes):mean -nan
scalar SensorNetworkShowcaseB.sensor4.ipv4.ip packetDropForwardingDisabled:vector(packetBytes):stddev nan
scalar SensorNetworkShowcaseB.sensor4.ipv4.ip packetDropForwardingDisabled:vector(packetBytes):min inf
scalar SensorNetworkShowcaseB.sensor4.ipv4.ip packetDropForwardingDisabled:vector(packetBytes):max -inf
scalar SensorNetworkShowcaseB.sensor4.ipv4.ip packetDropForwardingDisabled:vector(packetBytes):starttime nan
scalar SensorNetworkShowcaseB.sensor4.ipv4.ip packetDropForwardingDisabled:vector(packetBytes):endtime nan
scalar SensorNetworkShowcaseB.sensor4.ipv4.ip packetDropLifetimeExpired:vector(packetBytes):count 0
scalar SensorNetworkShowcaseB.sensor4.ipv4.ip packetDropLifetimeExpired:vector(packetBytes):sum 0
scalar SensorNetworkShowcaseB.sensor4.ipv4.ip packetDropLifetimeExpired:vector(packetBytes):sumweights 0
scalar SensorNetworkShowcaseB.sensor4.ipv4.ip packetDropLifetimeExpired:vector(packetBytes):mean -nan
scalar SensorNetworkShowcaseB.sensor4.ipv4.ip packetDropLifetimeExpired:vector(packetBytes):stddev nan
scalar SensorNetworkShowcaseB.sensor4.ipv4.ip packetDropLifetimeExpired:vector(packetBytes):min inf
scalar SensorNetworkShowcaseB.sensor4.ipv4.ip packetDropLifetimeExpired:vector(packetBytes):max -inf
scalar SensorNetworkShowcaseB.sensor4.ipv4.ip packetDropLifetimeExpired:vector(packetBytes):starttime nan
scalar SensorNetworkShowcaseB.sensor4.ipv4.ip packetDropLifetimeExpired:vector(packetBytes):endtime nan
scalar SensorNetworkShowcaseB.sensor4.ipv4.ip packetDropNoInterfaceFound:vector(packetBytes):count 0
scalar SensorNetworkShowcaseB.sensor4.ipv4.ip packetDropNoInterfaceFound:vector(packetBytes):sum 0
scalar SensorNetworkShowcaseB.sensor4.ipv4.ip packetDropNoInterfaceFound:vector(packetBytes):sumweights 0
scalar SensorNetworkShowcaseB.sensor4.ipv4.ip packetDropNoInterfaceFound:vector(packetBytes):mean -nan
scalar SensorNetworkShowcaseB.sensor4.ipv4.ip packetDropNoInterfaceFound:vector(packetBytes):stddev nan
scalar SensorNetworkShowcaseB.sensor4.ipv4.ip packetDropNoInterfaceFound:vector(packetBytes):min inf
scalar SensorNetworkShowcaseB.sensor4.ipv4.ip packetDropNoInterfaceFound:vector(packetBytes):max -inf
scalar SensorNetworkShowcaseB.sensor4.ipv4.ip packetDropNoInterfaceFound:vector(packetBytes):starttime nan
scalar SensorNetworkShowcaseB.sensor4.ipv4.ip packetDropNoInterfaceFound:vector(packetBytes):endtime nan
scalar SensorNetworkShowcaseB.sensor4.ipv4.ip packetDropNoRouteFound:vector(packetBytes):count 0
scalar SensorNetworkShowcaseB.sensor4.ipv4.ip packetDropNoRouteFound:vector(packetBytes):sum 0
scalar SensorNetworkShowcaseB.sensor4.ipv4.ip packetDropNoRouteFound:vector(packetBytes):sumweights 0
scalar SensorNetworkShowcaseB.sensor4.ipv4.ip packetDropNoRouteFound:vector(packetBytes):mean -nan
scalar SensorNetworkShowcaseB.sensor4.ipv4.ip packetDropNoRouteFound:vector(packetBytes):stddev nan
scalar SensorNetworkShowcaseB.sensor4.ipv4.ip packetDropNoRouteFound:vector(packetBytes):min inf
scalar SensorNetworkShowcaseB.sensor4.ipv4.ip packetDropNoRouteFound:vector(packetBytes):max -inf
scalar SensorNetworkShowcaseB.sensor4.ipv4.ip packetDropNoRouteFound:vector(packetBytes):starttime nan
scalar SensorNetworkShowcaseB.sensor4.ipv4.ip packetDropNoRouteFound:vector(packetBytes):endtime nan
scalar SensorNetworkShowcaseB.sensor4.ipv4.ip packetDropUndefined:vector(packetBytes):count 0
scalar SensorNetworkShowcaseB.sensor4.ipv4.ip packetDropUndefined:vector(packetBytes):sum 0
scalar SensorNetworkShowcaseB.sensor4.ipv4.ip packetDropUndefined:vector(packetBytes):sumweights 0
scalar SensorNetworkShowcaseB.sensor4.ipv4.ip packetDropUndefined:vector(packetBytes):mean -nan
scalar SensorNetworkShowcaseB.sensor4.ipv4.ip packetDropUndefined:vector(packetBytes):stddev nan
scalar SensorNetworkShowcaseB.sensor4.ipv4.ip packetDropUndefined:vector(packetBytes):min inf
scalar SensorNetworkShowcaseB.sensor4.ipv4.ip packetDropUndefined:vector(packetBytes):max -inf
scalar SensorNetworkShowcaseB.sensor4.ipv4.ip packetDropUndefined:vector(packetBytes):starttime nan
scalar SensorNetworkShowcaseB.sensor4.ipv4.ip packetDropUndefined:vector(packetBytes):endtime nan
scalar SensorNetworkShowcaseB.sensor4.udp packetSent:vector(packetBytes):count 0
scalar SensorNetworkShowcaseB.sensor4.udp packetSent:vector(packetBytes):sum 0
scalar SensorNetworkShowcaseB.sensor4.udp packetSent:vector(packetBytes):sumweights 0
scalar SensorNetworkShowcaseB.sensor4.udp packetSent:vector(packetBytes):mean -nan
scalar SensorNetworkShowcaseB.sensor4.udp packetSent:vector(packetBytes):stddev nan
scalar SensorNetworkShowcaseB.sensor4.udp packetSent:vector(packetBytes):min inf
scalar SensorNetworkShowcaseB.sensor4.udp packetSent:vector(packetBytes):max -inf
scalar SensorNetworkShowcaseB.sensor4.udp packetSent:vector(packetBytes):starttime nan
scalar SensorNetworkShowcaseB.sensor4.udp packetSent:vector(packetBytes):endtime nan
scalar SensorNetworkShowcaseB.sensor4.udp packetReceived:vector(packetBytes):count 0
scalar SensorNetworkShowcaseB.sensor4.udp packetReceived:vector(packetBytes):sum 0
scalar SensorNetworkShowcaseB.sensor4.udp packetReceived:vector(packetBytes):sumweights 0
scalar SensorNetworkShowcaseB.sensor4.udp packetReceived:vector(packetBytes):mean -nan
scalar SensorNetworkShowcaseB.sensor4.udp packetReceived:vector(packetBytes):stddev nan
scalar SensorNetworkShowcaseB.sensor4.udp packetReceived:vector(packetBytes):min inf
scalar SensorNetworkShowcaseB.sensor4.udp packetReceived:vector(packetBytes):max -inf
scalar SensorNetworkShowcaseB.sensor4.udp packetReceived:vector(packetBytes):starttime nan
scalar SensorNetworkShowcaseB.sensor4.udp packetReceived:vector(packetBytes):endtime nan
scalar SensorNetworkShowcaseB.sensor4.udp passedUpPk:vector(count):count 0
scalar SensorNetworkShowcaseB.sensor4.udp passedUpPk:vector(count):sum 0
scalar SensorNetworkShowcaseB.sensor4.udp passedUpPk:vector(count):sumweights 0
scalar SensorNetworkShowcaseB.sensor4.udp passedUpPk:vector(count):mean -nan
scalar SensorNetworkShowcaseB.sensor4.udp passedUpPk:vector(count):stddev nan
scalar SensorNetworkShowcaseB.sensor4.udp passedUpPk:vector(count):min inf
scalar SensorNetworkShowcaseB.sensor4.udp passedUpPk:vector(count):max -inf
scalar SensorNetworkShowcaseB.sensor4.udp passedUpPk:vector(count):starttime nan
scalar SensorNetworkShowcaseB.sensor4.udp passedUpPk:vector(count):endtime nan
scalar SensorNetworkShowcaseB.sensor4.udp droppedPkWrongPort:vector(count):count 0
scalar SensorNetworkShowcaseB.sensor4.udp droppedPkWrongPort:vector(count):sum 0
scalar SensorNetworkShowcaseB.sensor4.udp droppedPkWrongPort:vector(count):sumweights 0
scalar SensorNetworkShowcaseB.sensor4.udp droppedPkWrongPort:vector(count):mean -nan
scalar SensorNetworkShowcaseB.sensor4.udp droppedPkWrongPort:vector(count):stddev nan
scalar SensorNetworkShowcaseB.sensor4.udp droppedPkWrongPort:vector(count):min inf
scalar SensorNetworkShowcaseB.sensor4.udp droppedPkWrongPort:vector(count):max -inf
scalar SensorNetworkShowcaseB.sensor4.udp droppedPkWrongPort:vector(count):starttime nan
scalar SensorNetworkShowcaseB.sensor4.udp droppedPkWrongPort:vector(count):endtime nan
scalar SensorNetworkShowcaseB.sensor4.udp droppedPkBadChecksum:vector(count):count 0
scalar SensorNetworkShowcaseB.sensor4.udp droppedPkBadChecksum:vector(count):sum 0
scalar SensorNetworkShowcaseB.sensor4.udp droppedPkBadChecksum:vector(count):sumweights 0
scalar SensorNetworkShowcaseB.sensor4.udp droppedPkBadChecksum:vector(count):mean -nan
scalar SensorNetworkShowcaseB.sensor4.udp droppedPkBadChecksum:vector(count):stddev nan
scalar SensorNetworkShowcaseB.sensor4.udp droppedPkBadChecksum:vector(count):min inf
scalar SensorNetworkShowcaseB.sensor4.udp droppedPkBadChecksum:vector(count):max -inf
scalar SensorNetworkShowcaseB.sensor4.udp droppedPkBadChecksum:vector(count):starttime nan
scalar SensorNetworkShowcaseB.sensor4.udp droppedPkBadChecksum:vector(count):endtime nan
scalar SensorNetworkShowcaseB.sensor4.app[0] packetReceived:vector(packetBytes):count 0
scalar SensorNetworkShowcaseB.sensor4.app[0] packetReceived:vector(packetBytes):sum 0
scalar SensorNetworkShowcaseB.sensor4.app[0] packetReceived:vector(packetBytes):sumweights 0
scalar SensorNetworkShowcaseB.sensor4.app[0] packetReceived:vector(packetBytes):mean -nan
scalar SensorNetworkShowcaseB.sensor4.app[0] packetReceived:vector(packetBytes):stddev nan
scalar SensorNetworkShowcaseB.sensor4.app[0] packetReceived:vector(packetBytes):min inf
scalar SensorNetworkShowcaseB.sensor4.app[0] packetReceived:vector(packetBytes):max -inf
scalar SensorNetworkShowcaseB.sensor4.app[0] packetReceived:vector(packetBytes):starttime nan
scalar SensorNetworkShowcaseB.sensor4.app[0] packetReceived:vector(packetBytes):endtime nan
scalar SensorNetworkShowcaseB.sensor4.app[0] throughput:vector:count 0
scalar SensorNetworkShowcaseB.sensor4.app[0] throughput:vector:sum 0
scalar SensorNetworkShowcaseB.sensor4.app[0] throughput:vector:sumweights 0
scalar SensorNetworkShowcaseB.sensor4.app[0] throughput:vector:mean -nan
scalar SensorNetworkShowcaseB.sensor4.app[0] throughput:vector:stddev nan
scalar SensorNetworkShowcaseB.sensor4.app[0] throughput:vector:min inf
scalar SensorNetworkShowcaseB.sensor4.app[0] throughput:vector:max -inf
scalar SensorNetworkShowcaseB.sensor4.app[0] throughput:vector:starttime nan
scalar SensorNetworkShowcaseB.sensor4.app[0] throughput:vector:endtime nan
scalar SensorNetworkShowcaseB.sensor4.app[0] packetSent:vector(packetBytes):count 0
scalar SensorNetworkShowcaseB.sensor4.app[0] packetSent:vector(packetBytes):sum 0
scalar SensorNetworkShowcaseB.sensor4.app[0] packetSent:vector(packetBytes):sumweights 0
scalar SensorNetworkShowcaseB.sensor4.app[0] packetSent:vector(packetBytes):mean -nan
scalar SensorNetworkShowcaseB.sensor4.app[0] packetSent:vector(packetBytes):stddev nan
scalar SensorNetworkShowcaseB.sensor4.app[0] packetSent:vector(packetBytes):min inf
scalar SensorNetworkShowcaseB.sensor4.app[0] packetSent:vector(packetBytes):max -inf
scalar SensorNetworkShowcaseB.sensor4.app[0] packetSent:vector(packetBytes):starttime nan
scalar SensorNetworkShowcaseB.sensor4.app[0] packetSent:vector(packetBytes):endtime nan
scalar SensorNetworkShowcaseB.sensor4.app[0] rcvdPkLifetime:vector:count 0
scalar SensorNetworkShowcaseB.sensor4.app[0] rcvdPkLifetime:vector:sum 0
scalar SensorNetworkShowcaseB.sensor4.app[0] rcvdPkLifetime:vector:sumweights 0
scalar SensorNetworkShowcaseB.sensor4.app[0] rcvdPkLifetime:vector:mean -nan
scalar SensorNetworkShowcaseB.sensor4.app[0] rcvdPkLifetime:vector:stddev nan
scalar SensorNetworkShowcaseB.sensor4.app[0] rcvdPkLifetime:vector:min inf
scalar SensorNetworkShowcaseB.sensor4.app[0] rcvdPkLifetime:vector:max -inf
scalar SensorNetworkShowcaseB.sensor4.app[0] rcvdPkLifetime:vector:starttime nan
scalar SensorNetworkShowcaseB.sensor4.app[0] rcvdPkLifetime:vector:endtime nan
scalar SensorNetworkShowcaseB.sensor4.app[0] rcvdPkSeqNo:vector:count 0
scalar SensorNetworkShowcaseB.sensor4.app[0] rcvdPkSeqNo:vector:sum 0
scalar SensorNetworkShowcaseB.sensor4.app[0] rcvdPkSeqNo:vector:sumweights 0
scalar SensorNetworkShowcaseB.sensor4.app[0] rcvdPkSeqNo:vector:mean -nan
scalar SensorNetworkShowcaseB.sensor4.app[0] rcvdPkSeqNo:vector:stddev nan
scalar SensorNetworkShowcaseB.sensor4.app[0] rcvdPkSeqNo:vector:min inf
scalar SensorNetworkShowcaseB.sensor4.app[0] rcvdPkSeqNo:vector:max -inf
scalar SensorNetworkShowcaseB.sensor4.app[0] rcvdPkSeqNo:vector:starttime nan
scalar SensorNetworkShowcaseB.sensor4.app[0] rcvdPkSeqNo:vector:endtime nan
scalar SensorNetworkShowcaseB.sensor1.energyStorage powerConsumption:vector:count 0
scalar SensorNetworkShowcaseB.sensor1.energyStorage powerConsumption:vector:sum 0
scalar SensorNetworkShowcaseB.sensor1.energyStorage powerConsumption:vector:sumweights 0
scalar SensorNetworkShowcaseB.sensor1.energyStorage powerConsumption:vector:mean -nan
scalar SensorNetworkShowcaseB.sensor1.energyStorage powerConsumption:vector:stddev nan
scalar SensorNetworkShowcaseB.sensor1.energyStorage powerConsumption:vector:min inf
scalar SensorNetworkShowcaseB.sensor1.energyStorage powerConsumption:vector:max -inf
scalar SensorNetworkShowcaseB.sensor1.energyStorage powerConsumption:vector:starttime nan
scalar SensorNetworkShowcaseB.sensor1.energyStorage powerConsumption:vector:endtime nan
scalar SensorNetworkShowcaseB.sensor1.energyStorage powerGeneration:vector:count 0
scalar SensorNetworkShowcaseB.sensor1.energyStorage powerGeneration:vector:sum 0
scalar SensorNetworkShowcaseB.sensor1.energyStorage powerGeneration:vector:sumweights 0
scalar SensorNetworkShowcaseB.sensor1.energyStorage powerGeneration:vector:mean -nan
scalar SensorNetworkShowcaseB.sensor1.energyStorage powerGeneration:vector:stddev nan
scalar SensorNetworkShowcaseB.sensor1.energyStorage powerGeneration:vector:min inf
scalar SensorNetworkShowcaseB.sensor1.energyStorage powerGeneration:vector:max -inf
scalar SensorNetworkShowcaseB.sensor1.energyStorage powerGeneration:vector:starttime nan
scalar SensorNetworkShowcaseB.sensor1.energyStorage powerGeneration:vector:endtime nan
scalar SensorNetworkShowcaseB.sensor1.energyStorage residualEnergyCapacity:vector:count 0
scalar SensorNetworkShowcaseB.sensor1.energyStorage residualEnergyCapacity:vector:sum 0
scalar SensorNetworkShowcaseB.sensor1.energyStorage residualEnergyCapacity:vector:sumweights 0
scalar SensorNetworkShowcaseB.sensor1.energyStorage residualEnergyCapacity:vector:mean -nan
scalar SensorNetworkShowcaseB.sensor1.energyStorage residualEnergyCapacity:vector:stddev nan
scalar SensorNetworkShowcaseB.sensor1.energyStorage residualEnergyCapacity:vector:min inf
scalar SensorNetworkShowcaseB.sensor1.energyStorage residualEnergyCapacity:vector:max -inf
scalar SensorNetworkShowcaseB.sensor1.energyStorage residualEnergyCapacity:vector:starttime nan
scalar SensorNetworkShowcaseB.sensor1.energyStorage residualEnergyCapacity:vector:endtime nan
scalar SensorNetworkShowcaseB.sensor1.lo[0].lo rcvdPkFromHl:vector(packetBytes):count 0
scalar SensorNetworkShowcaseB.sensor1.lo[0].lo rcvdPkFromHl:vector(packetBytes):sum 0
scalar SensorNetworkShowcaseB.sensor1.lo[0].lo rcvdPkFromHl:vector(packetBytes):sumweights 0
scalar SensorNetworkShowcaseB.sensor1.lo[0].lo rcvdPkFromHl:vector(packetBytes):mean -nan
scalar SensorNetworkShowcaseB.sensor1.lo[0].lo rcvdPkFromHl:vector(packetBytes):stddev nan
scalar SensorNetworkShowcaseB.sensor1.lo[0].lo rcvdPkFromHl:vector(packetBytes):min inf
scalar SensorNetworkShowcaseB.sensor1.lo[0].lo rcvdPkFromHl:vector(packetBytes):max -inf
scalar SensorNetworkShowcaseB.sensor1.lo[0].lo rcvdPkFromHl:vector(packetBytes):starttime nan
scalar SensorNetworkShowcaseB.sensor1.lo[0].lo rcvdPkFromHl:vector(packetBytes):endtime nan
scalar SensorNetworkShowcaseB.sensor1.lo[0].lo passedUpPk:vector(packetBytes):count 0
scalar SensorNetworkShowcaseB.sensor1.lo[0].lo passedUpPk:vector(packetBytes):sum 0
scalar SensorNetworkShowcaseB.sensor1.lo[0].lo passedUpPk:vector(packetBytes):sumweights 0
scalar SensorNetworkShowcaseB.sensor1.lo[0].lo passedUpPk:vector(packetBytes):mean -nan
scalar SensorNetworkShowcaseB.sensor1.lo[0].lo passedUpPk:vector(packetBytes):stddev nan
scalar SensorNetworkShowcaseB.sensor1.lo[0].lo passedUpPk:vector(packetBytes):min inf
scalar SensorNetworkShowcaseB.sensor1.lo[0].lo passedUpPk:vector(packetBytes):max -inf
scalar SensorNetworkShowcaseB.sensor1.lo[0].lo passedUpPk:vector(packetBytes):starttime nan
scalar SensorNetworkShowcaseB.sensor1.lo[0].lo passedUpPk:vector(packetBytes):endtime nan
scalar SensorNetworkShowcaseB.sensor1.lo[0] packetDropInterfaceDown:vector(packetBytes):count 0
scalar SensorNetworkShowcaseB.sensor1.lo[0] packetDropInterfaceDown:vector(packetBytes):sum 0
scalar SensorNetworkShowcaseB.sensor1.lo[0] packetDropInterfaceDown:vector(packetBytes):sumweights 0
scalar SensorNetworkShowcaseB.sensor1.lo[0] packetDropInterfaceDown:vector(packetBytes):mean -nan
scalar SensorNetworkShowcaseB.sensor1.lo[0] packetDropInterfaceDown:vector(packetBytes):stddev nan
scalar SensorNetworkShowcaseB.sensor1.lo[0] packetDropInterfaceDown:vector(packetBytes):min inf
scalar SensorNetworkShowcaseB.sensor1.lo[0] packetDropInterfaceDown:vector(packetBytes):max -inf
scalar SensorNetworkShowcaseB.sensor1.lo[0] packetDropInterfaceDown:vector(packetBytes):starttime nan
scalar SensorNetworkShowcaseB.sensor1.lo[0] packetDropInterfaceDown:vector(packetBytes):endtime nan
scalar SensorNetworkShowcaseB.sensor1.lo[0] packetDropNoCarrier:vector(packetBytes):count 0
scalar SensorNetworkShowcaseB.sensor1.lo[0] packetDropNoCarrier:vector(packetBytes):sum 0
scalar SensorNetworkShowcaseB.sensor1.lo[0] packetDropNoCarrier:vector(packetBytes):sumweights 0
scalar SensorNetworkShowcaseB.sensor1.lo[0] packetDropNoCarrier:vector(packetBytes):mean -nan
scalar SensorNetworkShowcaseB.sensor1.lo[0] packetDropNoCarrier:vector(packetBytes):stddev nan
scalar SensorNetworkShowcaseB.sensor1.lo[0] packetDropNoCarrier:vector(packetBytes):min inf
scalar SensorNetworkShowcaseB.sensor1.lo[0] packetDropNoCarrier:vector(packetBytes):max -inf
scalar SensorNetworkShowcaseB.sensor1.lo[0] packetDropNoCarrier:vector(packetBytes):starttime nan
scalar SensorNetworkShowcaseB.sensor1.lo[0] packetDropNoCarrier:vector(packetBytes):endtime nan
scalar SensorNetworkShowcaseB.sensor1.wlan[0].queue queueLength:vector:count 0
scalar SensorNetworkShowcaseB.sensor1.wlan[0].queue queueLength:vector:sum 0
scalar SensorNetworkShowcaseB.sensor1.wlan[0].queue queueLength:vector:sumweights 0
scalar SensorNetworkShowcaseB.sensor1.wlan[0].queue queueLength:vector:mean -nan
scalar SensorNetworkShowcaseB.sensor1.wlan[0].queue queueLength:vector:stddev nan
scalar SensorNetworkShowcaseB.sensor1.wlan[0].queue queueLength:vector:min inf
scalar SensorNetworkShowcaseB.sensor1.wlan[0].queue queueLength:vector:max -inf
scalar SensorNetworkShowcaseB.sensor1.wlan[0].queue queueLength:vector:starttime nan
scalar SensorNetworkShowcaseB.sensor1.wlan[0].queue queueLength:vector:endtime nan
scalar SensorNetworkShowcaseB.sensor1.wlan[0].queue queueBitLength:vector:count 0
scalar SensorNetworkShowcaseB.sensor1.wlan[0].queue queueBitLength:vector:sum 0
scalar SensorNetworkShowcaseB.sensor1.wlan[0].queue queueBitLength:vector:sumweights 0
scalar SensorNetworkShowcaseB.sensor1.wlan[0].queue queueBitLength:vector:mean -nan
scalar SensorNetworkShowcaseB.sensor1.wlan[0].queue queueBitLength:vector:stddev nan
scalar SensorNetworkShowcaseB.sensor1.wlan[0].queue queueBitLength:vector:min inf
scalar SensorNetworkShowcaseB.sensor1.wlan[0].queue queueBitLength:vector:max -inf
scalar SensorNetworkShowcaseB.sensor1.wlan[0].queue queueBitLength:vector:starttime nan
scalar SensorNetworkShowcaseB.sensor1.wlan[0].queue queueBitLength:vector:endtime nan
scalar SensorNetworkShowcaseB.sensor1.wlan[0].queue queueingTime:vector:count 0
scalar SensorNetworkShowcaseB.sensor1.wlan[0].queue queueingTime:vector:sum 0
scalar SensorNetworkShowcaseB.sensor1.wlan[0].queue queueingTime:vector:sumweights 0
scalar SensorNetworkShowcaseB.sensor1.wlan[0].queue queueingTime:vector:mean -nan
scalar SensorNetworkShowcaseB.sensor1.wlan[0].queue queueingTime:vector:stddev nan
scalar SensorNetworkShowcaseB.sensor1.wlan[0].queue queueingTime:vector:min inf
scalar SensorNetworkShowcaseB.sensor1.wlan[0].queue queueingTime:vector:max -inf
scalar SensorNetworkShowcaseB.sensor1.wlan[0].queue queueingTime:vector:starttime nan
scalar SensorNetworkShowcaseB.sensor1.wlan[0].queue queueingTime:vector:endtime nan
scalar SensorNetworkShowcaseB.sensor1.wlan[0].queue incomingPacketLengths:vector:count 0
scalar SensorNetworkShowcaseB.sensor1.wlan[0].queue incomingPacketLengths:vector:sum 0
scalar SensorNetworkShowcaseB.sensor1.wlan[0].queue incomingPacketLengths:vector:sumweights 0
scalar SensorNetworkShowcaseB.sensor1.wlan[0].queue incomingPacketLengths:vector:mean -nan
scalar SensorNetworkShowcaseB.sensor1.wlan[0].queue incomingPacketLengths:vector:stddev nan
scalar SensorNetworkShowcaseB.sensor1.wlan[0].queue incomingPacketLengths:vector:min inf
scalar SensorNetworkShowcaseB.sensor1.wlan[0].queue incomingPacketLengths:vector:max -inf
scalar SensorNetworkShowcaseB.sensor1.wlan[0].queue incomingPacketLengths:vector:starttime nan
scalar SensorNetworkShowcaseB.sensor1.wlan[0].queue incomingPacketLengths:vector:endtime nan
scalar SensorNetworkShowcaseB.sensor1.wlan[0].queue incomingDataRate:vector:count 0
scalar SensorNetworkShowcaseB.sensor1.wlan[0].queue incomingDataRate:vector:sum 0
scalar SensorNetworkShowcaseB.sensor1.wlan[0].queue incomingDataRate:vector:sumweights 0
scalar SensorNetworkShowcaseB.sensor1.wlan[0].queue incomingDataRate:vector:mean -nan
scalar SensorNetworkShowcaseB.sensor1.wlan[0].queue incomingDataRate:vector:stddev nan
scalar SensorNetworkShowcaseB.sensor1.wlan[0].queue incomingDataRate:vector:min inf
scalar SensorNetworkShowcaseB.sensor1.wlan[0].queue incomingDataRate:vector:max -inf
scalar SensorNetworkShowcaseB.sensor1.wlan[0].queue incomingDataRate:vector:starttime nan
scalar SensorNetworkShowcaseB.sensor1.wlan[0].queue incomingDataRate:vector:endtime nan
scalar SensorNetworkShowcaseB.sensor1.wlan[0].queue outgoingPacketLengths:vector:count 0
scalar SensorNetworkShowcaseB.sensor1.wlan[0].queue outgoingPacketLengths:vector:sum 0
scalar SensorNetworkShowcaseB.sensor1.wlan[0].queue outgoingPacketLengths:vector:sumweights 0
scalar SensorNetworkShowcaseB.sensor1.wlan[0].queue outgoingPacketLengths:vector:mean -nan
scalar SensorNetworkShowcaseB.sensor1.wlan[0].queue outgoingPacketLengths:vector:stddev nan
scalar SensorNetworkShowcaseB.sensor1.wlan[0].queue outgoingPacketLengths:vector:min inf
scalar SensorNetworkShowcaseB.sensor1.wlan[0].queue outgoingPacketLengths:vector:max -inf
scalar SensorNetworkShowcaseB.sensor1.wlan[0].queue outgoingPacketLengths:vector:starttime nan
scalar SensorNetworkShowcaseB.sensor1.wlan[0].queue outgoingPacketLengths:vector:endtime nan
scalar SensorNetworkShowcaseB.sensor1.wlan[0].queue outgoingDataRate:vector:count 0
scalar SensorNetworkShowcaseB.sensor1.wlan[0].queue outgoingDataRate:vector:sum 0
scalar SensorNetworkShowcaseB.sensor1.wlan[0].queue outgoingDataRate:vector:sumweights 0
scalar SensorNetworkShowcaseB.sensor1.wlan[0].queue outgoingDataRate:vector:mean -nan
scalar SensorNetworkShowcaseB.sensor1.wlan[0].queue outgoingDataRate:vector:stddev nan
scalar SensorNetworkShowcaseB.sensor1.wlan[0].queue outgoingDataRate:vector:min inf
scalar SensorNetworkShowcaseB.sensor1.wlan[0].queue outgoingDataRate:vector:max -inf
scalar SensorNetworkShowcaseB.sensor1.wlan[0].queue outgoingDataRate:vector:starttime nan
scalar SensorNetworkShowcaseB.sensor1.wlan[0].queue outgoingDataRate:vector:endtime nan
scalar SensorNetworkShowcaseB.sensor1.wlan[0].queue droppedPacketLengthsQueueOverflow:vector:count 0
scalar SensorNetworkShowcaseB.sensor1.wlan[0].queue droppedPacketLengthsQueueOverflow:vector:sum 0
scalar SensorNetworkShowcaseB.sensor1.wlan[0].queue droppedPacketLengthsQueueOverflow:vector:sumweights 0
scalar SensorNetworkShowcaseB.sensor1.wlan[0].queue droppedPacketLengthsQueueOverflow:vector:mean -nan
scalar SensorNetworkShowcaseB.sensor1.wlan[0].queue droppedPacketLengthsQueueOverflow:vector:stddev nan
scalar SensorNetworkShowcaseB.sensor1.wlan[0].queue droppedPacketLengthsQueueOverflow:vector:min inf
scalar SensorNetworkShowcaseB.sensor1.wlan[0].queue droppedPacketLengthsQueueOverflow:vector:max -inf
scalar SensorNetworkShowcaseB.sensor1.wlan[0].queue droppedPacketLengthsQueueOverflow:vector:starttime nan
scalar SensorNetworkShowcaseB.sensor1.wlan[0].queue droppedPacketLengthsQueueOverflow:vector:endtime nan
scalar SensorNetworkShowcaseB.sensor1.wlan[0].queue flowQueueingTime:vector:count 0
scalar SensorNetworkShowcaseB.sensor1.wlan[0].queue flowQueueingTime:vector:sum 0
scalar SensorNetworkShowcaseB.sensor1.wlan[0].queue flowQueueingTime:vector:sumweights 0
scalar SensorNetworkShowcaseB.sensor1.wlan[0].queue flowQueueingTime:vector:mean -nan
scalar SensorNetworkShowcaseB.sensor1.wlan[0].queue flowQueueingTime:vector:stddev nan
scalar SensorNetworkShowcaseB.sensor1.wlan[0].queue flowQueueingTime:vector:min inf
scalar SensorNetworkShowcaseB.sensor1.wlan[0].queue flowQueueingTime:vector:max -inf
scalar SensorNetworkShowcaseB.sensor1.wlan[0].queue flowQueueingTime:vector:starttime nan
scalar SensorNetworkShowcaseB.sensor1.wlan[0].queue flowQueueingTime:vector:endtime nan
scalar SensorNetworkShowcaseB.sensor1.wlan[0].queue flowIncomingDataRate:vector:count 0
scalar SensorNetworkShowcaseB.sensor1.wlan[0].queue flowIncomingDataRate:vector:sum 0
scalar SensorNetworkShowcaseB.sensor1.wlan[0].queue flowIncomingDataRate:vector:sumweights 0
scalar SensorNetworkShowcaseB.sensor1.wlan[0].queue flowIncomingDataRate:vector:mean -nan
scalar SensorNetworkShowcaseB.sensor1.wlan[0].queue flowIncomingDataRate:vector:stddev nan
scalar SensorNetworkShowcaseB.sensor1.wlan[0].queue flowIncomingDataRate:vector:min inf
scalar SensorNetworkShowcaseB.sensor1.wlan[0].queue flowIncomingDataRate:vector:max -inf
scalar SensorNetworkShowcaseB.sensor1.wlan[0].queue flowIncomingDataRate:vector:starttime nan
scalar SensorNetworkShowcaseB.sensor1.wlan[0].queue flowIncomingDataRate:vector:endtime nan
scalar SensorNetworkShowcaseB.sensor1.wlan[0].queue flowOutgoingDataRate:vector:count 0
scalar SensorNetworkShowcaseB.sensor1.wlan[0].queue flowOutgoingDataRate:vector:sum 0
scalar SensorNetworkShowcaseB.sensor1.wlan[0].queue flowOutgoingDataRate:vector:sumweights 0
scalar SensorNetworkShowcaseB.sensor1.wlan[0].queue flowOutgoingDataRate:vector:mean -nan
scalar SensorNetworkShowcaseB.sensor1.wlan[0].queue flowOutgoingDataRate:vector:stddev nan
scalar SensorNetworkShowcaseB.sensor1.wlan[0].queue flowOutgoingDataRate:vector:min inf
scalar SensorNetworkShowcaseB.sensor1.wlan[0].queue flowOutgoingDataRate:vector:max -inf
scalar SensorNetworkShowcaseB.sensor1.wlan[0].queue flowOutgoingDataRate:vector:starttime nan
scalar SensorNetworkShowcaseB.sensor1.wlan[0].queue flowOutgoingDataRate:vector:endtime nan
scalar SensorNetworkShowcaseB.sensor1.wlan[0].radio.energyConsumer powerConsumption:vector:count 0
scalar SensorNetworkShowcaseB.sensor1.wlan[0].radio.energyConsumer powerConsumption:vector:sum 0
scalar SensorNetworkShowcaseB.sensor1.wlan[0].radio.energyConsumer powerConsumption:vector:sumweights 0
scalar SensorNetworkShowcaseB.sensor1.wlan[0].radio.energyConsumer powerConsumption:vector:mean -nan
scalar SensorNetworkShowcaseB.sensor1.wlan[0].radio.energyConsumer powerConsumption:vector:stddev nan
scalar SensorNetworkShowcaseB.sensor1.wlan[0].radio.energyConsumer powerConsumption:vector:min inf
scalar SensorNetworkShowcaseB.sensor1.wlan[0].radio.energyConsumer powerConsumption:vector:max -inf
scalar SensorNetworkShowcaseB.sensor1.wlan[0].radio.energyConsumer powerConsumption:vector:starttime nan
scalar SensorNetworkShowcaseB.sensor1.wlan[0].radio.energyConsumer powerConsumption:vector:endtime nan
scalar SensorNetworkShowcaseB.sensor1.wlan[0].radio radioMode:vector:count 0
scalar SensorNetworkShowcaseB.sensor1.wlan[0].radio radioMode:vector:sum 0
scalar SensorNetworkShowcaseB.sensor1.wlan[0].radio radioMode:vector:sumweights 0
scalar SensorNetworkShowcaseB.sensor1.wlan[0].radio radioMode:vector:mean -nan
scalar SensorNetworkShowcaseB.sensor1.wlan[0].radio radioMode:vector:stddev nan
scalar SensorNetworkShowcaseB.sensor1.wlan[0].radio radioMode:vector:min inf
scalar SensorNetworkShowcaseB.sensor1.wlan[0].radio radioMode:vector:max -inf
scalar SensorNetworkShowcaseB.sensor1.wlan[0].radio radioMode:vector:starttime nan
scalar SensorNetworkShowcaseB.sensor1.wlan[0].radio radioMode:vector:endtime nan
scalar SensorNetworkShowcaseB.sensor1.wlan[0].radio receptionState:vector:count 0
scalar SensorNetworkShowcaseB.sensor1.wlan[0].radio receptionState:vector:sum 0
scalar SensorNetworkShowcaseB.sensor1.wlan[0].radio receptionState:vector:sumweights 0
scalar SensorNetworkShowcaseB.sensor1.wlan[0].radio receptionState:vector:mean -nan
scalar SensorNetworkShowcaseB.sensor1.wlan[0].radio receptionState:vector:stddev nan
scalar SensorNetworkShowcaseB.sensor1.wlan[0].radio receptionState:vector:min inf
scalar SensorNetworkShowcaseB.sensor1.wlan[0].radio receptionState:vector:max -inf
scalar SensorNetworkShowcaseB.sensor1.wlan[0].radio receptionState:vector:starttime nan
scalar SensorNetworkShowcaseB.sensor1.wlan[0].radio receptionState:vector:endtime nan
scalar SensorNetworkShowcaseB.sensor1.wlan[0].radio transmissionState:vector:count 0
scalar SensorNetworkShowcaseB.sensor1.wlan[0].radio transmissionState:vector:sum 0
scalar SensorNetworkShowcaseB.sensor1.wlan[0].radio transmissionState:vector:sumweights 0
scalar SensorNetworkShowcaseB.sensor1.wlan[0].radio transmissionState:vector:mean -nan
scalar SensorNetworkShowcaseB.sensor1.wlan[0].radio transmissionState:vector:stddev nan
scalar SensorNetworkShowcaseB.sensor1.wlan[0].radio transmissionState:vector:min inf
scalar SensorNetworkShowcaseB.sensor1.wlan[0].radio transmissionState:vector:max -inf
scalar SensorNetworkShowcaseB.sensor1.wlan[0].radio transmissionState:vector:starttime nan
scalar SensorNetworkShowcaseB.sensor1.wlan[0].radio transmissionState:vector:endtime nan
scalar SensorNetworkShowcaseB.sensor1.wlan[0].radio packetDropped:vector(packetBytes):count 0
scalar SensorNetworkShowcaseB.sensor1.wlan[0].radio packetDropped:vector(packetBytes):sum 0
scalar SensorNetworkShowcaseB.sensor1.wlan[0].radio packetDropped:vector(packetBytes):sumweights 0
scalar SensorNetworkShowcaseB.sensor1.wlan[0].radio packetDropped:vector(packetBytes):mean -nan
scalar SensorNetworkShowcaseB.sensor1.wlan[0].radio packetDropped:vector(packetBytes):stddev nan
scalar SensorNetworkShowcaseB.sensor1.wlan[0].radio packetDropped:vector(packetBytes):min inf
scalar SensorNetworkShowcaseB.sensor1.wlan[0].radio packetDropped:vector(packetBytes):max -inf
scalar SensorNetworkShowcaseB.sensor1.wlan[0].radio packetDropped:vector(packetBytes):starttime nan
scalar SensorNetworkShowcaseB.sensor1.wlan[0].radio packetDropped:vector(packetBytes):endtime nan
scalar SensorNetworkShowcaseB.sensor1.wlan[0] packetDropInterfaceDown:vector(packetBytes):count 0
scalar SensorNetworkShowcaseB.sensor1.wlan[0] packetDropInterfaceDown:vector(packetBytes):sum 0
scalar SensorNetworkShowcaseB.sensor1.wlan[0] packetDropInterfaceDown:vector(packetBytes):sumweights 0
scalar SensorNetworkShowcaseB.sensor1.wlan[0] packetDropInterfaceDown:vector(packetBytes):mean -nan
scalar SensorNetworkShowcaseB.sensor1.wlan[0] packetDropInterfaceDown:vector(packetBytes):stddev nan
scalar SensorNetworkShowcaseB.sensor1.wlan[0] packetDropInterfaceDown:vector(packetBytes):min inf
scalar SensorNetworkShowcaseB.sensor1.wlan[0] packetDropInterfaceDown:vector(packetBytes):max -inf
scalar SensorNetworkShowcaseB.sensor1.wlan[0] packetDropInterfaceDown:vector(packetBytes):starttime nan
scalar SensorNetworkShowcaseB.sensor1.wlan[0] packetDropInterfaceDown:vector(packetBytes):endtime nan
scalar SensorNetworkShowcaseB.sensor1.wlan[0] packetDropNoCarrier:vector(packetBytes):count 0
scalar SensorNetworkShowcaseB.sensor1.wlan[0] packetDropNoCarrier:vector(packetBytes):sum 0
scalar SensorNetworkShowcaseB.sensor1.wlan[0] packetDropNoCarrier:vector(packetBytes):sumweights 0
scalar SensorNetworkShowcaseB.sensor1.wlan[0] packetDropNoCarrier:vector(packetBytes):mean -nan
scalar SensorNetworkShowcaseB.sensor1.wlan[0] packetDropNoCarrier:vector(packetBytes):stddev nan
scalar SensorNetworkShowcaseB.sensor1.wlan[0] packetDropNoCarrier:vector(packetBytes):min inf
scalar SensorNetworkShowcaseB.sensor1.wlan[0] packetDropNoCarrier:vector(packetBytes):max -inf
scalar SensorNetworkShowcaseB.sensor1.wlan[0] packetDropNoCarrier:vector(packetBytes):starttime nan
scalar SensorNetworkShowcaseB.sensor1.wlan[0] packetDropNoCarrier:vector(packetBytes):endtime nan
scalar SensorNetworkShowcaseB.sensor1.ipv4.ip packetDropAddressResolutionFailed:vector(packetBytes):count 0
scalar SensorNetworkShowcaseB.sensor1.ipv4.ip packetDropAddressResolutionFailed:vector(packetBytes):sum 0
scalar SensorNetworkShowcaseB.sensor1.ipv4.ip packetDropAddressResolutionFailed:vector(packetBytes):sumweights 0
scalar SensorNetworkShowcaseB.sensor1.ipv4.ip packetDropAddressResolutionFailed:vector(packetBytes):mean -nan
scalar SensorNetworkShowcaseB.sensor1.ipv4.ip packetDropAddressResolutionFailed:vector(packetBytes):stddev nan
scalar SensorNetworkShowcaseB.sensor1.ipv4.ip packetDropAddressResolutionFailed:vector(packetBytes):min inf
scalar SensorNetworkShowcaseB.sensor1.ipv4.ip packetDropAddressResolutionFailed:vector(packetBytes):max -inf
scalar SensorNetworkShowcaseB.sensor1.ipv4.ip packetDropAddressResolutionFailed:vector(packetBytes):starttime nan
scalar SensorNetworkShowcaseB.sensor1.ipv4.ip packetDropAddressResolutionFailed:vector(packetBytes):endtime nan
scalar SensorNetworkShowcaseB.sensor1.ipv4.ip packetDropHopLimitReached:vector(packetBytes):count 0
scalar SensorNetworkShowcaseB.sensor1.ipv4.ip packetDropHopLimitReached:vector(packetBytes):sum 0
scalar SensorNetworkShowcaseB.sensor1.ipv4.ip packetDropHopLimitReached:vector(packetBytes):sumweights 0
scalar SensorNetworkShowcaseB.sensor1.ipv4.ip packetDropHopLimitReached:vector(packetBytes):mean -nan
scalar SensorNetworkShowcaseB.sensor1.ipv4.ip packetDropHopLimitReached:vector(packetBytes):stddev nan
scalar SensorNetworkShowcaseB.sensor1.ipv4.ip packetDropHopLimitReached:vector(packetBytes):min inf
scalar SensorNetworkShowcaseB.sensor1.ipv4.ip packetDropHopLimitReached:vector(packetBytes):max -inf
scalar SensorNetworkShowcaseB.sensor1.ipv4.ip packetDropHopLimitReached:vector(packetBytes):starttime nan
scalar SensorNetworkShowcaseB.sensor1.ipv4.ip packetDropHopLimitReached:vector(packetBytes):endtime nan
scalar SensorNetworkShowcaseB.sensor1.ipv4.ip packetDropForwardingDisabled:vector(packetBytes):count 0
scalar SensorNetworkShowcaseB.sensor1.ipv4.ip packetDropForwardingDisabled:vector(packetBytes):sum 0
scalar SensorNetworkShowcaseB.sensor1.ipv4.ip packetDropForwardingDisabled:vector(packetBytes):sumweights 0
scalar SensorNetworkShowcaseB.sensor1.ipv4.ip packetDropForwardingDisabled:vector(packetBytes):mean -nan
scalar SensorNetworkShowcaseB.sensor1.ipv4.ip packetDropForwardingDisabled:vector(packetBytes):stddev nan
scalar SensorNetworkShowcaseB.sensor1.ipv4.ip packetDropForwardingDisabled:vector(packetBytes):min inf
scalar SensorNetworkShowcaseB.sensor1.ipv4.ip packetDropForwardingDisabled:vector(packetBytes):max -inf
scalar SensorNetworkShowcaseB.sensor1.ipv4.ip packetDropForwardingDisabled:vector(packetBytes):starttime nan
scalar SensorNetworkShowcaseB.sensor1.ipv4.ip packetDropForwardingDisabled:vector(packetBytes):endtime nan
scalar SensorNetworkShowcaseB.sensor1.ipv4.ip packetDropLifetimeExpired:vector(packetBytes):count 0
scalar SensorNetworkShowcaseB.sensor1.ipv4.ip packetDropLifetimeExpired:vector(packetBytes):sum 0
scalar SensorNetworkShowcaseB.sensor1.ipv4.ip packetDropLifetimeExpired:vector(packetBytes):sumweights 0
scalar SensorNetworkShowcaseB.sensor1.ipv4.ip packetDropLifetimeExpired:vector(packetBytes):mean -nan
scalar SensorNetworkShowcaseB.sensor1.ipv4.ip packetDropLifetimeExpired:vector(packetBytes):stddev nan
scalar SensorNetworkShowcaseB.sensor1.ipv4.ip packetDropLifetimeExpired:vector(packetBytes):min inf
scalar SensorNetworkShowcaseB.sensor1.ipv4.ip packetDropLifetimeExpired:vector(packetBytes):max -inf
scalar SensorNetworkShowcaseB.sensor1.ipv4.ip packetDropLifetimeExpired:vector(packetBytes):starttime nan
scalar SensorNetworkShowcaseB.sensor1.ipv4.ip packetDropLifetimeExpired:vector(packetBytes):endtime nan
scalar SensorNetworkShowcaseB.sensor1.ipv4.ip packetDropNoInterfaceFound:vector(packetBytes):count 0
scalar SensorNetworkShowcaseB.sensor1.ipv4.ip packetDropNoInterfaceFound:vector(packetBytes):sum 0
scalar SensorNetworkShowcaseB.sensor1.ipv4.ip packetDropNoInterfaceFound:vector(packetBytes):sumweights 0
scalar SensorNetworkShowcaseB.sensor1.ipv4.ip packetDropNoInterfaceFound:vector(packetBytes):mean -nan
scalar SensorNetworkShowcaseB.sensor1.ipv4.ip packetDropNoInterfaceFound:vector(packetBytes):stddev nan
scalar SensorNetworkShowcaseB.sensor1.ipv4.ip packetDropNoInterfaceFound:vector(packetBytes):min inf
scalar SensorNetworkShowcaseB.sensor1.ipv4.ip packetDropNoInterfaceFound:vector(packetBytes):max -inf
scalar SensorNetworkShowcaseB.sensor1.ipv4.ip packetDropNoInterfaceFound:vector(packetBytes):starttime nan
scalar SensorNetworkShowcaseB.sensor1.ipv4.ip packetDropNoInterfaceFound:vector(packetBytes):endtime nan
scalar SensorNetworkShowcaseB.sensor1.ipv4.ip packetDropNoRouteFound:vector(packetBytes):count 0
scalar SensorNetworkShowcaseB.sensor1.ipv4.ip packetDropNoRouteFound:vector(packetBytes):sum 0
scalar SensorNetworkShowcaseB.sensor1.ipv4.ip packetDropNoRouteFound:vector(packetBytes):sumweights 0
scalar SensorNetworkShowcaseB.sensor1.ipv4.ip packetDropNoRouteFound:vector(packetBytes):mean -nan
scalar SensorNetworkShowcaseB.sensor1.ipv4.ip packetDropNoRouteFound:vector(packetBytes):stddev nan
scalar SensorNetworkShowcaseB.sensor1.ipv4.ip packetDropNoRouteFound:vector(packetBytes):min inf
scalar SensorNetworkShowcaseB.sensor1.ipv4.ip packetDropNoRouteFound:vector(packetBytes):max -inf
scalar SensorNetworkShowcaseB.sensor1.ipv4.ip packetDropNoRouteFound:vector(packetBytes):starttime nan
scalar SensorNetworkShowcaseB.sensor1.ipv4.ip packetDropNoRouteFound:vector(packetBytes):endtime nan
scalar SensorNetworkShowcaseB.sensor1.ipv4.ip packetDropUndefined:vector(packetBytes):count 0
scalar SensorNetworkShowcaseB.sensor1.ipv4.ip packetDropUndefined:vector(packetBytes):sum 0
scalar SensorNetworkShowcaseB.sensor1.ipv4.ip packetDropUndefined:vector(packetBytes):sumweights 0
scalar SensorNetworkShowcaseB.sensor1.ipv4.ip packetDropUndefined:vector(packetBytes):mean -nan
scalar SensorNetworkShowcaseB.sensor1.ipv4.ip packetDropUndefined:vector(packetBytes):stddev nan
scalar SensorNetworkShowcaseB.sensor1.ipv4.ip packetDropUndefined:vector(packetBytes):min inf
scalar SensorNetworkShowcaseB.sensor1.ipv4.ip packetDropUndefined:vector(packetBytes):max -inf
scalar SensorNetworkShowcaseB.sensor1.ipv4.ip packetDropUndefined:vector(packetBytes):starttime nan
scalar SensorNetworkShowcaseB.sensor1.ipv4.ip packetDropUndefined:vector(packetBytes):endtime nan
scalar SensorNetworkShowcaseB.sensor1.udp packetSent:vector(packetBytes):count 0
scalar SensorNetworkShowcaseB.sensor1.udp packetSent:vector(packetBytes):sum 0
scalar SensorNetworkShowcaseB.sensor1.udp packetSent:vector(packetBytes):sumweights 0
scalar SensorNetworkShowcaseB.sensor1.udp packetSent:vector(packetBytes):mean -nan
scalar SensorNetworkShowcaseB.sensor1.udp packetSent:vector(packetBytes):stddev nan
scalar SensorNetworkShowcaseB.sensor1.udp packetSent:vector(packetBytes):min inf
scalar SensorNetworkShowcaseB.sensor1.udp packetSent:vector(packetBytes):max -inf
scalar SensorNetworkShowcaseB.sensor1.udp packetSent:vector(packetBytes):starttime nan
scalar SensorNetworkShowcaseB.sensor1.udp packetSent:vector(packetBytes):endtime nan
scalar SensorNetworkShowcaseB.sensor1.udp packetReceived:vector(packetBytes):count 0
scalar SensorNetworkShowcaseB.sensor1.udp packetReceived:vector(packetBytes):sum 0
scalar SensorNetworkShowcaseB.sensor1.udp packetReceived:vector(packetBytes):sumweights 0
scalar SensorNetworkShowcaseB.sensor1.udp packetReceived:vector(packetBytes):mean -nan
scalar SensorNetworkShowcaseB.sensor1.udp packetReceived:vector(packetBytes):stddev nan
scalar SensorNetworkShowcaseB.sensor1.udp packetReceived:vector(packetBytes):min inf
scalar SensorNetworkShowcaseB.sensor1.udp packetReceived:vector(packetBytes):max -inf
scalar SensorNetworkShowcaseB.sensor1.udp packetReceived:vector(packetBytes):starttime nan
scalar SensorNetworkShowcaseB.sensor1.udp packetReceived:vector(packetBytes):endtime nan
scalar SensorNetworkShowcaseB.sensor1.udp passedUpPk:vector(count):count 0
scalar SensorNetworkShowcaseB.sensor1.udp passedUpPk:vector(count):sum 0
scalar SensorNetworkShowcaseB.sensor1.udp passedUpPk:vector(count):sumweights 0
scalar SensorNetworkShowcaseB.sensor1.udp passedUpPk:vector(count):mean -nan
scalar SensorNetworkShowcaseB.sensor1.udp passedUpPk:vector(count):stddev nan
scalar SensorNetworkShowcaseB.sensor1.udp passedUpPk:vector(count):min inf
scalar SensorNetworkShowcaseB.sensor1.udp passedUpPk:vector(count):max -inf
scalar SensorNetworkShowcaseB.sensor1.udp passedUpPk:vector(count):starttime nan
scalar SensorNetworkShowcaseB.sensor1.udp passedUpPk:vector(count):endtime nan
scalar SensorNetworkShowcaseB.sensor1.udp droppedPkWrongPort:vector(count):count 0
scalar SensorNetworkShowcaseB.sensor1.udp droppedPkWrongPort:vector(count):sum 0
scalar SensorNetworkShowcaseB.sensor1.udp droppedPkWrongPort:vector(count):sumweights 0
scalar SensorNetworkShowcaseB.sensor1.udp droppedPkWrongPort:vector(count):mean -nan
scalar SensorNetworkShowcaseB.sensor1.udp droppedPkWrongPort:vector(count):stddev nan
scalar SensorNetworkShowcaseB.sensor1.udp droppedPkWrongPort:vector(count):min inf
scalar SensorNetworkShowcaseB.sensor1.udp droppedPkWrongPort:vector(count):max -inf
scalar SensorNetworkShowcaseB.sensor1.udp droppedPkWrongPort:vector(count):starttime nan
scalar SensorNetworkShowcaseB.sensor1.udp droppedPkWrongPort:vector(count):endtime nan
scalar SensorNetworkShowcaseB.sensor1.udp droppedPkBadChecksum:vector(count):count 0
scalar SensorNetworkShowcaseB.sensor1.udp droppedPkBadChecksum:vector(count):sum 0
scalar SensorNetworkShowcaseB.sensor1.udp droppedPkBadChecksum:vector(count):sumweights 0
scalar SensorNetworkShowcaseB.sensor1.udp droppedPkBadChecksum:vector(count):mean -nan
scalar SensorNetworkShowcaseB.sensor1.udp droppedPkBadChecksum:vector(count):stddev nan
scalar SensorNetworkShowcaseB.sensor1.udp droppedPkBadChecksum:vector(count):min inf
scalar SensorNetworkShowcaseB.sensor1.udp droppedPkBadChecksum:vector(count):max -inf
scalar SensorNetworkShowcaseB.sensor1.udp droppedPkBadChecksum:vector(count):starttime nan
scalar SensorNetworkShowcaseB.sensor1.udp droppedPkBadChecksum:vector(count):endtime nan
scalar SensorNetworkShowcaseB.sensor1.app[0] packetReceived:vector(packetBytes):count 0
scalar SensorNetworkShowcaseB.sensor1.app[0] packetReceived:vector(packetBytes):sum 0
scalar SensorNetworkShowcaseB.sensor1.app[0] packetReceived:vector(packetBytes):sumweights 0
scalar SensorNetworkShowcaseB.sensor1.app[0] packetReceived:vector(packetBytes):mean -nan
scalar SensorNetworkShowcaseB.sensor1.app[0] packetReceived:vector(packetBytes):stddev nan
scalar SensorNetworkShowcaseB.sensor1.app[0] packetReceived:vector(packetBytes):min inf
scalar SensorNetworkShowcaseB.sensor1.app[0] packetReceived:vector(packetBytes):max -inf
scalar SensorNetworkShowcaseB.sensor1.app[0] packetReceived:vector(packetBytes):starttime nan
scalar SensorNetworkShowcaseB.sensor1.app[0] packetReceived:vector(packetBytes):endtime nan
scalar SensorNetworkShowcaseB.sensor1.app[0] throughput:vector:count 0
scalar SensorNetworkShowcaseB.sensor1.app[0] throughput:vector:sum 0
scalar SensorNetworkShowcaseB.sensor1.app[0] throughput:vector:sumweights 0
scalar SensorNetworkShowcaseB.sensor1.app[0] throughput:vector:mean -nan
scalar SensorNetworkShowcaseB.sensor1.app[0] throughput:vector:stddev nan
scalar SensorNetworkShowcaseB.sensor1.app[0] throughput:vector:min inf
scalar SensorNetworkShowcaseB.sensor1.app[0] throughput:vector:max -inf
scalar SensorNetworkShowcaseB.sensor1.app[0] throughput:vector:starttime nan
scalar SensorNetworkShowcaseB.sensor1.app[0] throughput:vector:endtime nan
scalar SensorNetworkShowcaseB.sensor1.app[0] packetSent:vector(packetBytes):count 0
scalar SensorNetworkShowcaseB.sensor1.app[0] packetSent:vector(packetBytes):sum 0
scalar SensorNetworkShowcaseB.sensor1.app[0] packetSent:vector(packetBytes):sumweights 0
scalar SensorNetworkShowcaseB.sensor1.app[0] packetSent:vector(packetBytes):mean -nan
scalar SensorNetworkShowcaseB.sensor1.app[0] packetSent:vector(packetBytes):stddev nan
scalar SensorNetworkShowcaseB.sensor1.app[0] packetSent:vector(packetBytes):min inf
scalar SensorNetworkShowcaseB.sensor1.app[0] packetSent:vector(packetBytes):max -inf
scalar SensorNetworkShowcaseB.sensor1.app[0] packetSent:vector(packetBytes):starttime nan
scalar SensorNetworkShowcaseB.sensor1.app[0] packetSent:vector(packetBytes):endtime nan
scalar SensorNetworkShowcaseB.sensor1.app[0] rcvdPkLifetime:vector:count 0
scalar SensorNetworkShowcaseB.sensor1.app[0] rcvdPkLifetime:vector:sum 0
scalar SensorNetworkShowcaseB.sensor1.app[0] rcvdPkLifetime:vector:sumweights 0
scalar SensorNetworkShowcaseB.sensor1.app[0] rcvdPkLifetime:vector:mean -nan
scalar SensorNetworkShowcaseB.sensor1.app[0] rcvdPkLifetime:vector:stddev nan
scalar SensorNetworkShowcaseB.sensor1.app[0] rcvdPkLifetime:vector:min inf
scalar SensorNetworkShowcaseB.sensor1.app[0] rcvdPkLifetime:vector:max -inf
scalar SensorNetworkShowcaseB.sensor1.app[0] rcvdPkLifetime:vector:starttime nan
scalar SensorNetworkShowcaseB.sensor1.app[0] rcvdPkLifetime:vector:endtime nan
scalar SensorNetworkShowcaseB.sensor1.app[0] rcvdPkSeqNo:vector:count 0
scalar SensorNetworkShowcaseB.sensor1.app[0] rcvdPkSeqNo:vector:sum 0
scalar SensorNetworkShowcaseB.sensor1.app[0] rcvdPkSeqNo:vector:sumweights 0
scalar SensorNetworkShowcaseB.sensor1.app[0] rcvdPkSeqNo:vector:mean -nan
scalar SensorNetworkShowcaseB.sensor1.app[0] rcvdPkSeqNo:vector:stddev nan
scalar SensorNetworkShowcaseB.sensor1.app[0] rcvdPkSeqNo:vector:min inf
scalar SensorNetworkShowcaseB.sensor1.app[0] rcvdPkSeqNo:vector:max -inf
scalar SensorNetworkShowcaseB.sensor1.app[0] rcvdPkSeqNo:vector:starttime nan
scalar SensorNetworkShowcaseB.sensor1.app[0] rcvdPkSeqNo:vector:endtime nan
scalar SensorNetworkShowcaseB.sensor2.energyStorage powerConsumption:vector:count 0
scalar SensorNetworkShowcaseB.sensor2.energyStorage powerConsumption:vector:sum 0
scalar SensorNetworkShowcaseB.sensor2.energyStorage powerConsumption:vector:sumweights 0
scalar SensorNetworkShowcaseB.sensor2.energyStorage powerConsumption:vector:mean -nan
scalar SensorNetworkShowcaseB.sensor2.energyStorage powerConsumption:vector:stddev nan
scalar SensorNetworkShowcaseB.sensor2.energyStorage powerConsumption:vector:min inf
scalar SensorNetworkShowcaseB.sensor2.energyStorage powerConsumption:vector:max -inf
scalar SensorNetworkShowcaseB.sensor2.energyStorage powerConsumption:vector:starttime nan
scalar SensorNetworkShowcaseB.sensor2.energyStorage powerConsumption:vector:endtime nan
scalar SensorNetworkShowcaseB.sensor2.energyStorage powerGeneration:vector:count 0
scalar SensorNetworkShowcaseB.sensor2.energyStorage powerGeneration:vector:sum 0
scalar SensorNetworkShowcaseB.sensor2.energyStorage powerGeneration:vector:sumweights 0
scalar SensorNetworkShowcaseB.sensor2.energyStorage powerGeneration:vector:mean -nan
scalar SensorNetworkShowcaseB.sensor2.energyStorage powerGeneration:vector:stddev nan
scalar SensorNetworkShowcaseB.sensor2.energyStorage powerGeneration:vector:min inf
scalar SensorNetworkShowcaseB.sensor2.energyStorage powerGeneration:vector:max -inf
scalar SensorNetworkShowcaseB.sensor2.energyStorage powerGeneration:vector:starttime nan
scalar SensorNetworkShowcaseB.sensor2.energyStorage powerGeneration:vector:endtime nan
scalar SensorNetworkShowcaseB.sensor2.energyStorage residualEnergyCapacity:vector:count 0
scalar SensorNetworkShowcaseB.sensor2.energyStorage residualEnergyCapacity:vector:sum 0
scalar SensorNetworkShowcaseB.sensor2.energyStorage residualEnergyCapacity:vector:sumweights 0
scalar SensorNetworkShowcaseB.sensor2.energyStorage residualEnergyCapacity:vector:mean -nan
scalar SensorNetworkShowcaseB.sensor2.energyStorage residualEnergyCapacity:vector:stddev nan
scalar SensorNetworkShowcaseB.sensor2.energyStorage residualEnergyCapacity:vector:min inf
scalar SensorNetworkShowcaseB.sensor2.energyStorage residualEnergyCapacity:vector:max -inf
scalar SensorNetworkShowcaseB.sensor2.energyStorage residualEnergyCapacity:vector:starttime nan
scalar SensorNetworkShowcaseB.sensor2.energyStorage residualEnergyCapacity:vector:endtime nan
scalar SensorNetworkShowcaseB.sensor2.lo[0].lo rcvdPkFromHl:vector(packetBytes):count 0
scalar SensorNetworkShowcaseB.sensor2.lo[0].lo rcvdPkFromHl:vector(packetBytes):sum 0
scalar SensorNetworkShowcaseB.sensor2.lo[0].lo rcvdPkFromHl:vector(packetBytes):sumweights 0
scalar SensorNetworkShowcaseB.sensor2.lo[0].lo rcvdPkFromHl:vector(packetBytes):mean -nan
scalar SensorNetworkShowcaseB.sensor2.lo[0].lo rcvdPkFromHl:vector(packetBytes):stddev nan
scalar SensorNetworkShowcaseB.sensor2.lo[0].lo rcvdPkFromHl:vector(packetBytes):min inf
scalar SensorNetworkShowcaseB.sensor2.lo[0].lo rcvdPkFromHl:vector(packetBytes):max -inf
scalar SensorNetworkShowcaseB.sensor2.lo[0].lo rcvdPkFromHl:vector(packetBytes):starttime nan
scalar SensorNetworkShowcaseB.sensor2.lo[0].lo rcvdPkFromHl:vector(packetBytes):endtime nan
scalar SensorNetworkShowcaseB.sensor2.lo[0].lo passedUpPk:vector(packetBytes):count 0
scalar SensorNetworkShowcaseB.sensor2.lo[0].lo passedUpPk:vector(packetBytes):sum 0
scalar SensorNetworkShowcaseB.sensor2.lo[0].lo passedUpPk:vector(packetBytes):sumweights 0
scalar SensorNetworkShowcaseB.sensor2.lo[0].lo passedUpPk:vector(packetBytes):mean -nan
scalar SensorNetworkShowcaseB.sensor2.lo[0].lo passedUpPk:vector(packetBytes):stddev nan
scalar SensorNetworkShowcaseB.sensor2.lo[0].lo passedUpPk:vector(packetBytes):min inf
scalar SensorNetworkShowcaseB.sensor2.lo[0].lo passedUpPk:vector(packetBytes):max -inf
scalar SensorNetworkShowcaseB.sensor2.lo[0].lo passedUpPk:vector(packetBytes):starttime nan
scalar SensorNetworkShowcaseB.sensor2.lo[0].lo passedUpPk:vector(packetBytes):endtime nan
scalar SensorNetworkShowcaseB.sensor2.lo[0] packetDropInterfaceDown:vector(packetBytes):count 0
scalar SensorNetworkShowcaseB.sensor2.lo[0] packetDropInterfaceDown:vector(packetBytes):sum 0
scalar SensorNetworkShowcaseB.sensor2.lo[0] packetDropInterfaceDown:vector(packetBytes):sumweights 0
scalar SensorNetworkShowcaseB.sensor2.lo[0] packetDropInterfaceDown:vector(packetBytes):mean -nan
scalar SensorNetworkShowcaseB.sensor2.lo[0] packetDropInterfaceDown:vector(packetBytes):stddev nan
scalar SensorNetworkShowcaseB.sensor2.lo[0] packetDropInterfaceDown:vector(packetBytes):min inf
scalar SensorNetworkShowcaseB.sensor2.lo[0] packetDropInterfaceDown:vector(packetBytes):max -inf
scalar SensorNetworkShowcaseB.sensor2.lo[0] packetDropInterfaceDown:vector(packetBytes):starttime nan
scalar SensorNetworkShowcaseB.sensor2.lo[0] packetDropInterfaceDown:vector(packetBytes):endtime nan
scalar SensorNetworkShowcaseB.sensor2.lo[0] packetDropNoCarrier:vector(packetBytes):count 0
scalar SensorNetworkShowcaseB.sensor2.lo[0] packetDropNoCarrier:vector(packetBytes):sum 0
scalar SensorNetworkShowcaseB.sensor2.lo[0] packetDropNoCarrier:vector(packetBytes):sumweights 0
scalar SensorNetworkShowcaseB.sensor2.lo[0] packetDropNoCarrier:vector(packetBytes):mean -nan
scalar SensorNetworkShowcaseB.sensor2.lo[0] packetDropNoCarrier:vector(packetBytes):stddev nan
scalar SensorNetworkShowcaseB.sensor2.lo[0] packetDropNoCarrier:vector(packetBytes):min inf
scalar SensorNetworkShowcaseB.sensor2.lo[0] packetDropNoCarrier:vector(packetBytes):max -inf
scalar SensorNetworkShowcaseB.sensor2.lo[0] packetDropNoCarrier:vector(packetBytes):starttime nan
scalar SensorNetworkShowcaseB.sensor2.lo[0] packetDropNoCarrier:vector(packetBytes):endtime nan
scalar SensorNetworkShowcaseB.sensor2.wlan[0].queue queueLength:vector:count 0
scalar SensorNetworkShowcaseB.sensor2.wlan[0].queue queueLength:vector:sum 0
scalar SensorNetworkShowcaseB.sensor2.wlan[0].queue queueLength:vector:sumweights 0
scalar SensorNetworkShowcaseB.sensor2.wlan[0].queue queueLength:vector:mean -nan
scalar SensorNetworkShowcaseB.sensor2.wlan[0].queue queueLength:vector:stddev nan
scalar SensorNetworkShowcaseB.sensor2.wlan[0].queue queueLength:vector:min inf
scalar SensorNetworkShowcaseB.sensor2.wlan[0].queue queueLength:vector:max -inf
scalar SensorNetworkShowcaseB.sensor2.wlan[0].queue queueLength:vector:starttime nan
scalar SensorNetworkShowcaseB.sensor2.wlan[0].queue queueLength:vector:endtime nan
scalar SensorNetworkShowcaseB.sensor2.wlan[0].queue queueBitLength:vector:count 0
scalar SensorNetworkShowcaseB.sensor2.wlan[0].queue queueBitLength:vector:sum 0
scalar SensorNetworkShowcaseB.sensor2.wlan[0].queue queueBitLength:vector:sumweights 0
scalar SensorNetworkShowcaseB.sensor2.wlan[0].queue queueBitLength:vector:mean -nan
scalar SensorNetworkShowcaseB.sensor2.wlan[0].queue queueBitLength:vector:stddev nan
scalar SensorNetworkShowcaseB.sensor2.wlan[0].queue queueBitLength:vector:min inf
scalar SensorNetworkShowcaseB.sensor2.wlan[0].queue queueBitLength:vector:max -inf
scalar SensorNetworkShowcaseB.sensor2.wlan[0].queue queueBitLength:vector:starttime nan
scalar SensorNetworkShowcaseB.sensor2.wlan[0].queue queueBitLength:vector:endtime nan
[...]
scalar SensorNetworkShowcaseB.server.eth[0].mac passedUpPk:vector(packetBytes):endtime nan
scalar SensorNetworkShowcaseB.server.eth[0].mac txPausePkUnits:vector:count 0
scalar SensorNetworkShowcaseB.server.eth[0].mac txPausePkUnits:vector:sum 0
scalar SensorNetworkShowcaseB.server.eth[0].mac txPausePkUnits:vector:sumweights 0
scalar SensorNetworkShowcaseB.server.eth[0].mac txPausePkUnits:vector:mean -nan
scalar SensorNetworkShowcaseB.server.eth[0].mac txPausePkUnits:vector:stddev nan
scalar SensorNetworkShowcaseB.server.eth[0].mac txPausePkUnits:vector:min inf
scalar SensorNetworkShowcaseB.server.eth[0].mac txPausePkUnits:vector:max -inf
scalar SensorNetworkShowcaseB.server.eth[0].mac txPausePkUnits:vector:starttime nan
scalar SensorNetworkShowcaseB.server.eth[0].mac txPausePkUnits:vector:endtime nan
scalar SensorNetworkShowcaseB.server.eth[0].mac rxPausePkUnits:vector:count 0
scalar SensorNetworkShowcaseB.server.eth[0].mac rxPausePkUnits:vector:sum 0
scalar SensorNetworkShowcaseB.server.eth[0].mac rxPausePkUnits:vector:sumweights 0
scalar SensorNetworkShowcaseB.server.eth[0].mac rxPausePkUnits:vector:mean -nan
scalar SensorNetworkShowcaseB.server.eth[0].mac rxPausePkUnits:vector:stddev nan
scalar SensorNetworkShowcaseB.server.eth[0].mac rxPausePkUnits:vector:min inf
scalar SensorNetworkShowcaseB.server.eth[0].mac rxPausePkUnits:vector:max -inf
scalar SensorNetworkShowcaseB.server.eth[0].mac rxPausePkUnits:vector:starttime nan
scalar SensorNetworkShowcaseB.server.eth[0].mac rxPausePkUnits:vector:endtime nan
scalar SensorNetworkShowcaseB.server.eth[0].mac packetReceivedFromUpper:vector(packetBytes):count 0
scalar SensorNetworkShowcaseB.server.eth[0].mac packetReceivedFromUpper:vector(packetBytes):sum 0
scalar SensorNetworkShowcaseB.server.eth[0].mac packetReceivedFromUpper:vector(packetBytes):sumweights 0
scalar SensorNetworkShowcaseB.server.eth[0].mac packetReceivedFromUpper:vector(packetBytes):mean -nan
scalar SensorNetworkShowcaseB.server.eth[0].mac packetReceivedFromUpper:vector(packetBytes):stddev nan
scalar SensorNetworkShowcaseB.server.eth[0].mac packetReceivedFromUpper:vector(packetBytes):min inf
scalar SensorNetworkShowcaseB.server.eth[0].mac packetReceivedFromUpper:vector(packetBytes):max -inf
scalar SensorNetworkShowcaseB.server.eth[0].mac packetReceivedFromUpper:vector(packetBytes):starttime nan
scalar SensorNetworkShowcaseB.server.eth[0].mac packetReceivedFromUpper:vector(packetBytes):endtime nan
scalar SensorNetworkShowcaseB.server.eth[0].mac packetDropIncorrectlyReceived:vector(packetBytes):count 0
scalar SensorNetworkShowcaseB.server.eth[0].mac packetDropIncorrectlyReceived:vector(packetBytes):sum 0
scalar SensorNetworkShowcaseB.server.eth[0].mac packetDropIncorrectlyReceived:vector(packetBytes):sumweights 0
scalar SensorNetworkShowcaseB.server.eth[0].mac packetDropIncorrectlyReceived:vector(packetBytes):mean -nan
scalar SensorNetworkShowcaseB.server.eth[0].mac packetDropIncorrectlyReceived:vector(packetBytes):stddev nan
scalar SensorNetworkShowcaseB.server.eth[0].mac packetDropIncorrectlyReceived:vector(packetBytes):min inf
scalar SensorNetworkShowcaseB.server.eth[0].mac packetDropIncorrectlyReceived:vector(packetBytes):max -inf
scalar SensorNetworkShowcaseB.server.eth[0].mac packetDropIncorrectlyReceived:vector(packetBytes):starttime nan
scalar SensorNetworkShowcaseB.server.eth[0].mac packetDropIncorrectlyReceived:vector(packetBytes):endtime nan
scalar SensorNetworkShowcaseB.server.eth[0].mac packetDropInterfaceDown:vector(packetBytes):count 0
scalar SensorNetworkShowcaseB.server.eth[0].mac packetDropInterfaceDown:vector(packetBytes):sum 0
scalar SensorNetworkShowcaseB.server.eth[0].mac packetDropInterfaceDown:vector(packetBytes):sumweights 0
scalar SensorNetworkShowcaseB.server.eth[0].mac packetDropInterfaceDown:vector(packetBytes):mean -nan
scalar SensorNetworkShowcaseB.server.eth[0].mac packetDropInterfaceDown:vector(packetBytes):stddev nan
scalar SensorNetworkShowcaseB.server.eth[0].mac packetDropInterfaceDown:vector(packetBytes):min inf
scalar SensorNetworkShowcaseB.server.eth[0].mac packetDropInterfaceDown:vector(packetBytes):max -inf
scalar SensorNetworkShowcaseB.server.eth[0].mac packetDropInterfaceDown:vector(packetBytes):starttime nan
scalar SensorNetworkShowcaseB.server.eth[0].mac packetDropInterfaceDown:vector(packetBytes):endtime nan
scalar SensorNetworkShowcaseB.server.eth[0].mac packetDropNotAddressedToUs:vector(packetBytes):count 0
scalar SensorNetworkShowcaseB.server.eth[0].mac packetDropNotAddressedToUs:vector(packetBytes):sum 0
scalar SensorNetworkShowcaseB.server.eth[0].mac packetDropNotAddressedToUs:vector(packetBytes):sumweights 0
scalar SensorNetworkShowcaseB.server.eth[0].mac packetDropNotAddressedToUs:vector(packetBytes):mean -nan
scalar SensorNetworkShowcaseB.server.eth[0].mac packetDropNotAddressedToUs:vector(packetBytes):stddev nan
scalar SensorNetworkShowcaseB.server.eth[0].mac packetDropNotAddressedToUs:vector(packetBytes):min inf
scalar SensorNetworkShowcaseB.server.eth[0].mac packetDropNotAddressedToUs:vector(packetBytes):max -inf
scalar SensorNetworkShowcaseB.server.eth[0].mac packetDropNotAddressedToUs:vector(packetBytes):starttime nan
scalar SensorNetworkShowcaseB.server.eth[0].mac packetDropNotAddressedToUs:vector(packetBytes):endtime nan
scalar SensorNetworkShowcaseB.server.eth[0] packetDropInterfaceDown:vector(packetBytes):count 0
scalar SensorNetworkShowcaseB.server.eth[0] packetDropInterfaceDown:vector(packetBytes):sum 0
scalar SensorNetworkShowcaseB.server.eth[0] packetDropInterfaceDown:vector(packetBytes):sumweights 0
scalar SensorNetworkShowcaseB.server.eth[0] packetDropInterfaceDown:vector(packetBytes):mean -nan
scalar SensorNetworkShowcaseB.server.eth[0] packetDropInterfaceDown:vector(packetBytes):stddev nan
scalar SensorNetworkShowcaseB.server.eth[0] packetDropInterfaceDown:vector(packetBytes):min inf
scalar SensorNetworkShowcaseB.server.eth[0] packetDropInterfaceDown:vector(packetBytes):max -inf
scalar SensorNetworkShowcaseB.server.eth[0] packetDropInterfaceDown:vector(packetBytes):starttime nan
scalar SensorNetworkShowcaseB.server.eth[0] packetDropInterfaceDown:vector(packetBytes):endtime nan
scalar SensorNetworkShowcaseB.server.eth[0] packetDropNoCarrier:vector(packetBytes):count 0
scalar SensorNetworkShowcaseB.server.eth[0] packetDropNoCarrier:vector(packetBytes):sum 0
scalar SensorNetworkShowcaseB.server.eth[0] packetDropNoCarrier:vector(packetBytes):sumweights 0
scalar SensorNetworkShowcaseB.server.eth[0] packetDropNoCarrier:vector(packetBytes):mean -nan
scalar SensorNetworkShowcaseB.server.eth[0] packetDropNoCarrier:vector(packetBytes):stddev nan
scalar SensorNetworkShowcaseB.server.eth[0] packetDropNoCarrier:vector(packetBytes):min inf
scalar SensorNetworkShowcaseB.server.eth[0] packetDropNoCarrier:vector(packetBytes):max -inf
scalar SensorNetworkShowcaseB.server.eth[0] packetDropNoCarrier:vector(packetBytes):starttime nan
scalar SensorNetworkShowcaseB.server.eth[0] packetDropNoCarrier:vector(packetBytes):endtime nan
scalar SensorNetworkShowcaseB.server.ipv4.ip packetDropAddressResolutionFailed:vector(packetBytes):count 0
scalar SensorNetworkShowcaseB.server.ipv4.ip packetDropAddressResolutionFailed:vector(packetBytes):sum 0
scalar SensorNetworkShowcaseB.server.ipv4.ip packetDropAddressResolutionFailed:vector(packetBytes):sumweights 0
scalar SensorNetworkShowcaseB.server.ipv4.ip packetDropAddressResolutionFailed:vector(packetBytes):mean -nan
scalar SensorNetworkShowcaseB.server.ipv4.ip packetDropAddressResolutionFailed:vector(packetBytes):stddev nan
scalar SensorNetworkShowcaseB.server.ipv4.ip packetDropAddressResolutionFailed:vector(packetBytes):min inf
scalar SensorNetworkShowcaseB.server.ipv4.ip packetDropAddressResolutionFailed:vector(packetBytes):max -inf
scalar SensorNetworkShowcaseB.server.ipv4.ip packetDropAddressResolutionFailed:vector(packetBytes):starttime nan
scalar SensorNetworkShowcaseB.server.ipv4.ip packetDropAddressResolutionFailed:vector(packetBytes):endtime nan
scalar SensorNetworkShowcaseB.server.ipv4.ip packetDropHopLimitReached:vector(packetBytes):count 0
scalar SensorNetworkShowcaseB.server.ipv4.ip packetDropHopLimitReached:vector(packetBytes):sum 0
scalar SensorNetworkShowcaseB.server.ipv4.ip packetDropHopLimitReached:vector(packetBytes):sumweights 0
scalar SensorNetworkShowcaseB.server.ipv4.ip packetDropHopLimitReached:vector(packetBytes):mean -nan
scalar SensorNetworkShowcaseB.server.ipv4.ip packetDropHopLimitReached:vector(packetBytes):stddev nan
scalar SensorNetworkShowcaseB.server.ipv4.ip packetDropHopLimitReached:vector(packetBytes):min inf
scalar SensorNetworkShowcaseB.server.ipv4.ip packetDropHopLimitReached:vector(packetBytes):max -inf
scalar SensorNetworkShowcaseB.server.ipv4.ip packetDropHopLimitReached:vector(packetBytes):starttime nan
scalar SensorNetworkShowcaseB.server.ipv4.ip packetDropHopLimitReached:vector(packetBytes):endtime nan
scalar SensorNetworkShowcaseB.server.ipv4.ip packetDropForwardingDisabled:vector(packetBytes):count 0
scalar SensorNetworkShowcaseB.server.ipv4.ip packetDropForwardingDisabled:vector(packetBytes):sum 0
scalar SensorNetworkShowcaseB.server.ipv4.ip packetDropForwardingDisabled:vector(packetBytes):sumweights 0
scalar SensorNetworkShowcaseB.server.ipv4.ip packetDropForwardingDisabled:vector(packetBytes):mean -nan
scalar SensorNetworkShowcaseB.server.ipv4.ip packetDropForwardingDisabled:vector(packetBytes):stddev nan
scalar SensorNetworkShowcaseB.server.ipv4.ip packetDropForwardingDisabled:vector(packetBytes):min inf
scalar SensorNetworkShowcaseB.server.ipv4.ip packetDropForwardingDisabled:vector(packetBytes):max -inf
scalar SensorNetworkShowcaseB.server.ipv4.ip packetDropForwardingDisabled:vector(packetBytes):starttime nan
scalar SensorNetworkShowcaseB.server.ipv4.ip packetDropForwardingDisabled:vector(packetBytes):endtime nan
scalar SensorNetworkShowcaseB.server.ipv4.ip packetDropLifetimeExpired:vector(packetBytes):count 0
scalar SensorNetworkShowcaseB.server.ipv4.ip packetDropLifetimeExpired:vector(packetBytes):sum 0
scalar SensorNetworkShowcaseB.server.ipv4.ip packetDropLifetimeExpired:vector(packetBytes):sumweights 0
scalar SensorNetworkShowcaseB.server.ipv4.ip packetDropLifetimeExpired:vector(packetBytes):mean -nan
scalar SensorNetworkShowcaseB.server.ipv4.ip packetDropLifetimeExpired:vector(packetBytes):stddev nan
scalar SensorNetworkShowcaseB.server.ipv4.ip packetDropLifetimeExpired:vector(packetBytes):min inf
scalar SensorNetworkShowcaseB.server.ipv4.ip packetDropLifetimeExpired:vector(packetBytes):max -inf
scalar SensorNetworkShowcaseB.server.ipv4.ip packetDropLifetimeExpired:vector(packetBytes):starttime nan
scalar SensorNetworkShowcaseB.server.ipv4.ip packetDropLifetimeExpired:vector(packetBytes):endtime nan
scalar SensorNetworkShowcaseB.server.ipv4.ip packetDropNoInterfaceFound:vector(packetBytes):count 0
scalar SensorNetworkShowcaseB.server.ipv4.ip packetDropNoInterfaceFound:vector(packetBytes):sum 0
scalar SensorNetworkShowcaseB.server.ipv4.ip packetDropNoInterfaceFound:vector(packetBytes):sumweights 0
scalar SensorNetworkShowcaseB.server.ipv4.ip packetDropNoInterfaceFound:vector(packetBytes):mean -nan
scalar SensorNetworkShowcaseB.server.ipv4.ip packetDropNoInterfaceFound:vector(packetBytes):stddev nan
scalar SensorNetworkShowcaseB.server.ipv4.ip packetDropNoInterfaceFound:vector(packetBytes):min inf
scalar SensorNetworkShowcaseB.server.ipv4.ip packetDropNoInterfaceFound:vector(packetBytes):max -inf
scalar SensorNetworkShowcaseB.server.ipv4.ip packetDropNoInterfaceFound:vector(packetBytes):starttime nan
scalar SensorNetworkShowcaseB.server.ipv4.ip packetDropNoInterfaceFound:vector(packetBytes):endtime nan
scalar SensorNetworkShowcaseB.server.ipv4.ip packetDropNoRouteFound:vector(packetBytes):count 0
scalar SensorNetworkShowcaseB.server.ipv4.ip packetDropNoRouteFound:vector(packetBytes):sum 0
scalar SensorNetworkShowcaseB.server.ipv4.ip packetDropNoRouteFound:vector(packetBytes):sumweights 0
scalar SensorNetworkShowcaseB.server.ipv4.ip packetDropNoRouteFound:vector(packetBytes):mean -nan
scalar SensorNetworkShowcaseB.server.ipv4.ip packetDropNoRouteFound:vector(packetBytes):stddev nan
scalar SensorNetworkShowcaseB.server.ipv4.ip packetDropNoRouteFound:vector(packetBytes):min inf
scalar SensorNetworkShowcaseB.server.ipv4.ip packetDropNoRouteFound:vector(packetBytes):max -inf
scalar SensorNetworkShowcaseB.server.ipv4.ip packetDropNoRouteFound:vector(packetBytes):starttime nan
scalar SensorNetworkShowcaseB.server.ipv4.ip packetDropNoRouteFound:vector(packetBytes):endtime nan
scalar SensorNetworkShowcaseB.server.ipv4.ip packetDropUndefined:vector(packetBytes):count 0
scalar SensorNetworkShowcaseB.server.ipv4.ip packetDropUndefined:vector(packetBytes):sum 0
scalar SensorNetworkShowcaseB.server.ipv4.ip packetDropUndefined:vector(packetBytes):sumweights 0
scalar SensorNetworkShowcaseB.server.ipv4.ip packetDropUndefined:vector(packetBytes):mean -nan
scalar SensorNetworkShowcaseB.server.ipv4.ip packetDropUndefined:vector(packetBytes):stddev nan
scalar SensorNetworkShowcaseB.server.ipv4.ip packetDropUndefined:vector(packetBytes):min inf
scalar SensorNetworkShowcaseB.server.ipv4.ip packetDropUndefined:vector(packetBytes):max -inf
scalar SensorNetworkShowcaseB.server.ipv4.ip packetDropUndefined:vector(packetBytes):starttime nan
scalar SensorNetworkShowcaseB.server.ipv4.ip packetDropUndefined:vector(packetBytes):endtime nan
scalar SensorNetworkShowcaseB.server.udp packetSent:vector(packetBytes):count 0
scalar SensorNetworkShowcaseB.server.udp packetSent:vector(packetBytes):sum 0
scalar SensorNetworkShowcaseB.server.udp packetSent:vector(packetBytes):sumweights 0
scalar SensorNetworkShowcaseB.server.udp packetSent:vector(packetBytes):mean -nan
scalar SensorNetworkShowcaseB.server.udp packetSent:vector(packetBytes):stddev nan
scalar SensorNetworkShowcaseB.server.udp packetSent:vector(packetBytes):min inf
scalar SensorNetworkShowcaseB.server.udp packetSent:vector(packetBytes):max -inf
scalar SensorNetworkShowcaseB.server.udp packetSent:vector(packetBytes):starttime nan
scalar SensorNetworkShowcaseB.server.udp packetSent:vector(packetBytes):endtime nan
scalar SensorNetworkShowcaseB.server.udp packetReceived:vector(packetBytes):count 0
scalar SensorNetworkShowcaseB.server.udp packetReceived:vector(packetBytes):sum 0
scalar SensorNetworkShowcaseB.server.udp packetReceived:vector(packetBytes):sumweights 0
scalar SensorNetworkShowcaseB.server.udp packetReceived:vector(packetBytes):mean -nan
scalar SensorNetworkShowcaseB.server.udp packetReceived:vector(packetBytes):stddev nan
scalar SensorNetworkShowcaseB.server.udp packetReceived:vector(packetBytes):min inf
scalar SensorNetworkShowcaseB.server.udp packetReceived:vector(packetBytes):max -inf
scalar SensorNetworkShowcaseB.server.udp packetReceived:vector(packetBytes):starttime nan
scalar SensorNetworkShowcaseB.server.udp packetReceived:vector(packetBytes):endtime nan
scalar SensorNetworkShowcaseB.server.udp passedUpPk:vector(count):count 0
scalar SensorNetworkShowcaseB.server.udp passedUpPk:vector(count):sum 0
scalar SensorNetworkShowcaseB.server.udp passedUpPk:vector(count):sumweights 0
scalar SensorNetworkShowcaseB.server.udp passedUpPk:vector(count):mean -nan
scalar SensorNetworkShowcaseB.server.udp passedUpPk:vector(count):stddev nan
scalar SensorNetworkShowcaseB.server.udp passedUpPk:vector(count):min inf
scalar SensorNetworkShowcaseB.server.udp passedUpPk:vector(count):max -inf
scalar SensorNetworkShowcaseB.server.udp passedUpPk:vector(count):starttime nan
scalar SensorNetworkShowcaseB.server.udp passedUpPk:vector(count):endtime nan
scalar SensorNetworkShowcaseB.server.udp droppedPkWrongPort:vector(count):count 0
scalar SensorNetworkShowcaseB.server.udp droppedPkWrongPort:vector(count):sum 0
scalar SensorNetworkShowcaseB.server.udp droppedPkWrongPort:vector(count):sumweights 0
scalar SensorNetworkShowcaseB.server.udp droppedPkWrongPort:vector(count):mean -nan
scalar SensorNetworkShowcaseB.server.udp droppedPkWrongPort:vector(count):stddev nan
scalar SensorNetworkShowcaseB.server.udp droppedPkWrongPort:vector(count):min inf
scalar SensorNetworkShowcaseB.server.udp droppedPkWrongPort:vector(count):max -inf
scalar SensorNetworkShowcaseB.server.udp droppedPkWrongPort:vector(count):starttime nan
scalar SensorNetworkShowcaseB.server.udp droppedPkWrongPort:vector(count):endtime nan
scalar SensorNetworkShowcaseB.server.udp droppedPkBadChecksum:vector(count):count 0
scalar SensorNetworkShowcaseB.server.udp droppedPkBadChecksum:vector(count):sum 0
scalar SensorNetworkShowcaseB.server.udp droppedPkBadChecksum:vector(count):sumweights 0
scalar SensorNetworkShowcaseB.server.udp droppedPkBadChecksum:vector(count):mean -nan
scalar SensorNetworkShowcaseB.server.udp droppedPkBadChecksum:vector(count):stddev nan
scalar SensorNetworkShowcaseB.server.udp droppedPkBadChecksum:vector(count):min inf
scalar SensorNetworkShowcaseB.server.udp droppedPkBadChecksum:vector(count):max -inf
scalar SensorNetworkShowcaseB.server.udp droppedPkBadChecksum:vector(count):starttime nan
scalar SensorNetworkShowcaseB.server.udp droppedPkBadChecksum:vector(count):endtime nan
scalar SensorNetworkShowcaseB.server.app[0] packetReceived:vector(packetBytes):count 0
scalar SensorNetworkShowcaseB.server.app[0] packetReceived:vector(packetBytes):sum 0
scalar SensorNetworkShowcaseB.server.app[0] packetReceived:vector(packetBytes):sumweights 0
scalar SensorNetworkShowcaseB.server.app[0] packetReceived:vector(packetBytes):mean -nan
scalar SensorNetworkShowcaseB.server.app[0] packetReceived:vector(packetBytes):stddev nan
scalar SensorNetworkShowcaseB.server.app[0] packetReceived:vector(packetBytes):min inf
scalar SensorNetworkShowcaseB.server.app[0] packetReceived:vector(packetBytes):max -inf
scalar SensorNetworkShowcaseB.server.app[0] packetReceived:vector(packetBytes):starttime nan
scalar SensorNetworkShowcaseB.server.app[0] packetReceived:vector(packetBytes):endtime nan
scalar SensorNetworkShowcaseB.server.app[0] throughput:vector:count 0
scalar SensorNetworkShowcaseB.server.app[0] throughput:vector:sum 0
scalar SensorNetworkShowcaseB.server.app[0] throughput:vector:sumweights 0
scalar SensorNetworkShowcaseB.server.app[0] throughput:vector:mean -nan
scalar SensorNetworkShowcaseB.server.app[0] throughput:vector:stddev nan
scalar SensorNetworkShowcaseB.server.app[0] throughput:vector:min inf
scalar SensorNetworkShowcaseB.server.app[0] throughput:vector:max -inf
scalar SensorNetworkShowcaseB.server.app[0] throughput:vector:starttime nan
scalar SensorNetworkShowcaseB.server.app[0] throughput:vector:endtime nan
scalar SensorNetworkShowcaseB.server.app[0] endToEndDelay:vector:count 0
scalar SensorNetworkShowcaseB.server.app[0] endToEndDelay:vector:sum 0
scalar SensorNetworkShowcaseB.server.app[0] endToEndDelay:vector:sumweights 0
scalar SensorNetworkShowcaseB.server.app[0] endToEndDelay:vector:mean -nan
scalar SensorNetworkShowcaseB.server.app[0] endToEndDelay:vector:stddev nan
scalar SensorNetworkShowcaseB.server.app[0] endToEndDelay:vector:min inf
scalar SensorNetworkShowcaseB.server.app[0] endToEndDelay:vector:max -inf
scalar SensorNetworkShowcaseB.server.app[0] endToEndDelay:vector:starttime nan
scalar SensorNetworkShowcaseB.server.app[0] endToEndDelay:vector:endtime nan
scalar SensorNetworkShowcaseB.server.app[0] rcvdPkSeqNo:vector:count 0
scalar SensorNetworkShowcaseB.server.app[0] rcvdPkSeqNo:vector:sum 0
scalar SensorNetworkShowcaseB.server.app[0] rcvdPkSeqNo:vector:sumweights 0
scalar SensorNetworkShowcaseB.server.app[0] rcvdPkSeqNo:vector:mean -nan
scalar SensorNetworkShowcaseB.server.app[0] rcvdPkSeqNo:vector:stddev nan
scalar SensorNetworkShowcaseB.server.app[0] rcvdPkSeqNo:vector:min inf
scalar SensorNetworkShowcaseB.server.app[0] rcvdPkSeqNo:vector:max -inf
scalar SensorNetworkShowcaseB.server.app[0] rcvdPkSeqNo:vector:starttime nan
scalar SensorNetworkShowcaseB.server.app[0] rcvdPkSeqNo:vector:endtime nan

