version 3
run MacNonQos-0-20251118-11:40:22-109277
attr configname MacNonQos
attr datetime 20251118-11:40:22
attr datetimef 20251118-114022
attr experiment MacNonQos
attr inifile omnetpp.ini
attr iterationvars ""
attr iterationvarsd ""
attr iterationvarsf ""
attr measurement ""
attr network QosThroughput
attr processid 109277
attr repetition 0
attr replication #0
attr resultdir results
attr runnumber 0
attr seedset 0
config **.param-recording false
config image-path /home/zoli/Projects/OMNET/inet/images
config output-scalar-file results/omnetpp.ini-MacNonQos-#0.sca
config output-scalar-precision 17
config output-vector-file results/omnetpp.ini-MacNonQos-#0.vec
config output-vector-precision 17
config record-eventlog false
config sim-time-limit 5s
config **.cliHost.numApps 5
config **.cliHost.app[*].messageLength 1000B
config **.cliHost.app[*].sendInterval 0.0001s
config **.cliHost.app[0].destPort 21
config **.cliHost.app[1].destPort 80
config **.cliHost.app[2].destPort 4000
config **.cliHost.app[3].destPort 5000
config **.cliHost.app[4].destPort 99
config **.cliHost.app[0].packetName "\"FTP\""
config **.cliHost.app[1].packetName "\"WWW\""
config **.cliHost.app[2].packetName "\"Video\""
config **.cliHost.app[3].packetName "\"Voice\""
config **.cliHost.app[4].packetName "\"nonQos\""
config **.wlan[*].mac.typename Ieee80211Mac
config **.mac.dcf.channelAccess.pendingQueue.packetCapacity -1
config network QosThroughput
config sim-time-limit 5s
config **.arp.typename GlobalArp
config **.constraintAreaMinX 0m
config **.constraintAreaMinY 0m
config **.constraintAreaMinZ 0m
config **.constraintAreaMaxX 400m
config **.constraintAreaMaxY 400m
config **.constraintAreaMaxZ 0m
config **.mobility.initFromDisplayString false
config **.cliHost.mobility.initialX 100m
config **.cliHost.mobility.initialY 100m
config **.srvHost.mobility.initialX 300m
config **.srvHost.mobility.initialY 100m
config **.mobility.initialZ 0m
config **.radio.transmitter.power 1000mW
config **.cliHost.app[*].typename UdpBasicApp
config **.cliHost.app[*].destAddresses "\"srvHost\""
config **.cliHost.app[*].startTime 0.5s
config **.cliHost.app[*].stopTime 5.0s
config **.srvHost.numApps 5
config **.srvHost.app[*].typename UdpSink
config **.srvHost.app[0].localPort 21
config **.srvHost.app[1].localPort 80
config **.srvHost.app[2].localPort 4000
config **.srvHost.app[3].localPort 5000
config **.srvHost.app[4].localPort 99

scalar QosThroughput.srvHost.lo[0].lo rcvdPkFromHl:count 0
scalar QosThroughput.srvHost.lo[0].lo rcvdPkFromHl:sum(packetBytes) 0
scalar QosThroughput.srvHost.lo[0].lo passedUpPk:count 0
scalar QosThroughput.srvHost.lo[0].lo passedUpPk:sum(packetBytes) 0
scalar QosThroughput.srvHost.lo[0] packetDropInterfaceDown:count 0
scalar QosThroughput.srvHost.lo[0] packetDropInterfaceDown:sum(packetBytes) 0
scalar QosThroughput.srvHost.lo[0] packetDropNoCarrier:count 0
scalar QosThroughput.srvHost.lo[0] packetDropNoCarrier:sum(packetBytes) 0
scalar QosThroughput.srvHost.wlan[0].mac.dcf.channelAccess.pendingQueue queueLength:last 0
scalar QosThroughput.srvHost.wlan[0].mac.dcf.channelAccess.pendingQueue queueLength:max 0
scalar QosThroughput.srvHost.wlan[0].mac.dcf.channelAccess.pendingQueue queueLength:timeavg 0
scalar QosThroughput.srvHost.wlan[0].mac.dcf.channelAccess.pendingQueue queueBitLength:last 0
scalar QosThroughput.srvHost.wlan[0].mac.dcf.channelAccess.pendingQueue queueBitLength:max 0
scalar QosThroughput.srvHost.wlan[0].mac.dcf.channelAccess.pendingQueue queueBitLength:timeavg 0
scalar QosThroughput.srvHost.wlan[0].mac.dcf.channelAccess.pendingQueue outgoingPackets:count 0
scalar QosThroughput.srvHost.wlan[0].mac.dcf.channelAccess.pendingQueue outgoingPacketLengths:sum 0
scalar QosThroughput.srvHost.wlan[0].mac.dcf.channelAccess.pendingQueue incomingPackets:count 0
scalar QosThroughput.srvHost.wlan[0].mac.dcf.channelAccess.pendingQueue incomingPacketLengths:sum 0
scalar QosThroughput.srvHost.wlan[0].mac.dcf.channelAccess.pendingQueue droppedPacketsQueueOverflow:count 0
scalar QosThroughput.srvHost.wlan[0].mac.dcf.channelAccess.pendingQueue droppedPacketLengthsQueueOverflow:sum 0
scalar QosThroughput.srvHost.wlan[0].mac.dcf.channelAccess.inProgressFrames queueLength:max 0
scalar QosThroughput.srvHost.wlan[0].mac.dcf.channelAccess.inProgressFrames queueLength:timeavg 0
scalar QosThroughput.srvHost.wlan[0].mac.dcf.channelAccess.contention channelAccessGranted:count 0
scalar QosThroughput.srvHost.wlan[0].mac.dcf.channelAccess.contention stateChanged:count 45836
scalar QosThroughput.srvHost.wlan[0].mac.dcf.channelAccess channelOwnershipChanged:count 0
scalar QosThroughput.srvHost.wlan[0].mac.dcf.originatorMacDataService packetAggregated:count 0
scalar QosThroughput.srvHost.wlan[0].mac.dcf.originatorMacDataService packetFragmented:count 0
scalar QosThroughput.srvHost.wlan[0].mac.dcf.recipientMacDataService packetDeaggregated:count 0
scalar QosThroughput.srvHost.wlan[0].mac.dcf.recipientMacDataService packetDefragmented:count 5729
scalar QosThroughput.srvHost.wlan[0].mac.dcf.recipientMacDataService packetDropDuplicateDetected:count 0
scalar QosThroughput.srvHost.wlan[0].mac.dcf.recipientMacDataService packetDropDuplicateDetected:sum(packetBytes) 0
scalar QosThroughput.srvHost.wlan[0].mac.dcf.recoveryProcedure retryLimitReached:count 0
scalar QosThroughput.srvHost.wlan[0].mac.dcf frameSequenceFinished:count 0
scalar QosThroughput.srvHost.wlan[0].mac.dcf packetReceivedFromPeer:count 5729
scalar QosThroughput.srvHost.wlan[0].mac.dcf packetReceivedFromPeer:sum(packetBytes) 6095656
scalar QosThroughput.srvHost.wlan[0].mac.dcf packetReceivedFromPeerUnicast:count 5729
scalar QosThroughput.srvHost.wlan[0].mac.dcf packetReceivedFromPeerUnicast:sum(packetBytes) 6095656
scalar QosThroughput.srvHost.wlan[0].mac.dcf packetReceivedFromPeerMulticast:count 0
scalar QosThroughput.srvHost.wlan[0].mac.dcf packetReceivedFromPeerMulticast:sum(packetBytes) 0
scalar QosThroughput.srvHost.wlan[0].mac.dcf packetReceivedFromPeerBroadcast:count 0
scalar QosThroughput.srvHost.wlan[0].mac.dcf packetReceivedFromPeerBroadcast:sum(packetBytes) 0
scalar QosThroughput.srvHost.wlan[0].mac.dcf packetReceivedFromPeerWithRetry:count 0
scalar QosThroughput.srvHost.wlan[0].mac.dcf packetReceivedFromPeerWithRetry:sum(packetBytes) 0
scalar QosThroughput.srvHost.wlan[0].mac.dcf packetReceivedFromPeerWithoutRetry:count 5729
scalar QosThroughput.srvHost.wlan[0].mac.dcf packetReceivedFromPeerWithoutRetry:sum(packetBytes) 6095656
scalar QosThroughput.srvHost.wlan[0].mac.dcf packetSentToPeer:count 5729
scalar QosThroughput.srvHost.wlan[0].mac.dcf packetSentToPeer:sum(packetBytes) 80206
scalar QosThroughput.srvHost.wlan[0].mac.dcf packetSentToPeerUnicast:count 5729
scalar QosThroughput.srvHost.wlan[0].mac.dcf packetSentToPeerUnicast:sum(packetBytes) 80206
scalar QosThroughput.srvHost.wlan[0].mac.dcf packetSentToPeerMulticast:count 0
scalar QosThroughput.srvHost.wlan[0].mac.dcf packetSentToPeerMulticast:sum(packetBytes) 0
scalar QosThroughput.srvHost.wlan[0].mac.dcf packetSentToPeerBroadcast:count 0
scalar QosThroughput.srvHost.wlan[0].mac.dcf packetSentToPeerBroadcast:sum(packetBytes) 0
scalar QosThroughput.srvHost.wlan[0].mac.dcf packetSentToPeerWithRetry:count 0
scalar QosThroughput.srvHost.wlan[0].mac.dcf packetSentToPeerWithRetry:sum(packetBytes) 0
scalar QosThroughput.srvHost.wlan[0].mac.dcf packetSentToPeerWithoutRetry:count 5729
scalar QosThroughput.srvHost.wlan[0].mac.dcf packetSentToPeerWithoutRetry:sum(packetBytes) 80206
scalar QosThroughput.srvHost.wlan[0].mac.dcf packetDrop:count 0
scalar QosThroughput.srvHost.wlan[0].mac.dcf packetDrop:sum(packetBytes) 0
scalar QosThroughput.srvHost.wlan[0].mac.dcf packetDropNotAddressedToUs:count 0
scalar QosThroughput.srvHost.wlan[0].mac.dcf packetDropNotAddressedToUs:sum(packetBytes) 0
scalar QosThroughput.srvHost.wlan[0].mac.dcf packetDropQueueOverflow:count 0
scalar QosThroughput.srvHost.wlan[0].mac.dcf packetDropQueueOverflow:sum(packetBytes) 0
scalar QosThroughput.srvHost.wlan[0].mac.dcf packetDropRetryLimitReached:count 0
scalar QosThroughput.srvHost.wlan[0].mac.dcf packetDropRetryLimitReached:sum(packetBytes) 0
scalar QosThroughput.srvHost.wlan[0].mac.dcf linkBroken:count 0
scalar QosThroughput.srvHost.wlan[0].mac packetReceivedFromLower:count 5729
scalar QosThroughput.srvHost.wlan[0].mac packetReceivedFromLower:sum(packetBytes) 6095656
scalar QosThroughput.srvHost.wlan[0].mac packetSentToLower:count 5729
scalar QosThroughput.srvHost.wlan[0].mac packetSentToLower:sum(packetBytes) 80206
scalar QosThroughput.srvHost.wlan[0].mac packetReceivedFromUpper:count 0
scalar QosThroughput.srvHost.wlan[0].mac packetReceivedFromUpper:sum(packetBytes) 0
scalar QosThroughput.srvHost.wlan[0].mac packetSentToUpper:count 5729
scalar QosThroughput.srvHost.wlan[0].mac packetSentToUpper:sum(packetBytes) 5935244
scalar QosThroughput.srvHost.wlan[0].mac packetDrop:count 0
scalar QosThroughput.srvHost.wlan[0].mac packetDrop:sum(packetBytes) 0
scalar QosThroughput.srvHost.wlan[0].mac packetDropIncorrectlyReceived:count 0
scalar QosThroughput.srvHost.wlan[0].mac packetDropIncorrectlyReceived:sum(packetBytes) 0
scalar QosThroughput.srvHost.wlan[0].mac packetDropNotAddressedToUs:count 0
scalar QosThroughput.srvHost.wlan[0].mac packetDropNotAddressedToUs:sum(packetBytes) 0
scalar QosThroughput.srvHost.wlan[0].mac packetDropQueueOverflow:count 0
scalar QosThroughput.srvHost.wlan[0].mac packetDropQueueOverflow:sum(packetBytes) 0
scalar QosThroughput.srvHost.wlan[0].mac packetDropRetryLimitReached:count 0
scalar QosThroughput.srvHost.wlan[0].mac packetDropRetryLimitReached:sum(packetBytes) 0
scalar QosThroughput.srvHost.wlan[0].mac packetDropDuplicateDetected:count 0
scalar QosThroughput.srvHost.wlan[0].mac packetDropDuplicateDetected:sum(packetBytes) 0
scalar QosThroughput.srvHost.wlan[0].mac packetDropOther:count 0
scalar QosThroughput.srvHost.wlan[0].mac packetDropOther:sum(packetBytes) 0
scalar QosThroughput.srvHost.wlan[0].mac linkBroken:count 0
scalar QosThroughput.srvHost.wlan[0].radio radioMode:count 11461
scalar QosThroughput.srvHost.wlan[0].radio receptionState:count 22918
scalar QosThroughput.srvHost.wlan[0].radio transmissionState:count 22916
scalar QosThroughput.srvHost.wlan[0] packetDropInterfaceDown:count 0
scalar QosThroughput.srvHost.wlan[0] packetDropInterfaceDown:sum(packetBytes) 0
scalar QosThroughput.srvHost.wlan[0] packetDropNoCarrier:count 0
scalar QosThroughput.srvHost.wlan[0] packetDropNoCarrier:sum(packetBytes) 0
scalar QosThroughput.srvHost.ipv4.ip packetDropAddressResolutionFailed:count 0
scalar QosThroughput.srvHost.ipv4.ip packetDropAddressResolutionFailed:sum(packetBytes) 0
scalar QosThroughput.srvHost.ipv4.ip packetDropHopLimitReached:count 0
scalar QosThroughput.srvHost.ipv4.ip packetDropHopLimitReached:sum(packetBytes) 0
scalar QosThroughput.srvHost.ipv4.ip packetDropForwardingDisabled:count 0
scalar QosThroughput.srvHost.ipv4.ip packetDropForwardingDisabled:sum(packetBytes) 0
scalar QosThroughput.srvHost.ipv4.ip packetDropLifetimeExpired:count 0
scalar QosThroughput.srvHost.ipv4.ip packetDropLifetimeExpired:sum(packetBytes) 0
scalar QosThroughput.srvHost.ipv4.ip packetDropNoInterfaceFound:count 0
scalar QosThroughput.srvHost.ipv4.ip packetDropNoInterfaceFound:sum(packetBytes) 0
scalar QosThroughput.srvHost.ipv4.ip packetDropNoRouteFound:count 0
scalar QosThroughput.srvHost.ipv4.ip packetDropNoRouteFound:sum(packetBytes) 0
scalar QosThroughput.srvHost.ipv4.ip packetDropUndefined:count 0
scalar QosThroughput.srvHost.ipv4.ip packetDropUndefined:sum(packetBytes) 0
scalar QosThroughput.srvHost.udp packetReceived:count 5729
scalar QosThroughput.srvHost.udp packetReceived:sum(packetBytes) 5774832
scalar QosThroughput.srvHost.udp packetSent:count 0
scalar QosThroughput.srvHost.udp packetSent:sum(packetBytes) 0
scalar QosThroughput.srvHost.udp passedUpPk:count 5729
scalar QosThroughput.srvHost.udp droppedPkWrongPort:count 0
scalar QosThroughput.srvHost.udp droppedPkBadChecksum:count 0
scalar QosThroughput.srvHost.app[0] packetReceived:count 1146
scalar QosThroughput.srvHost.app[0] packetReceived:sum(packetBytes) 1146000
scalar QosThroughput.srvHost.app[1] packetReceived:count 1146
scalar QosThroughput.srvHost.app[1] packetReceived:sum(packetBytes) 1146000
scalar QosThroughput.srvHost.app[2] packetReceived:count 1146
scalar QosThroughput.srvHost.app[2] packetReceived:sum(packetBytes) 1146000
scalar QosThroughput.srvHost.app[3] packetReceived:count 1146
scalar QosThroughput.srvHost.app[3] packetReceived:sum(packetBytes) 1146000
scalar QosThroughput.srvHost.app[4] packetReceived:count 1145
scalar QosThroughput.srvHost.app[4] packetReceived:sum(packetBytes) 1145000
scalar QosThroughput.cliHost.lo[0].lo rcvdPkFromHl:count 0
scalar QosThroughput.cliHost.lo[0].lo rcvdPkFromHl:sum(packetBytes) 0
scalar QosThroughput.cliHost.lo[0].lo passedUpPk:count 0
scalar QosThroughput.cliHost.lo[0].lo passedUpPk:sum(packetBytes) 0
scalar QosThroughput.cliHost.lo[0] packetDropInterfaceDown:count 0
scalar QosThroughput.cliHost.lo[0] packetDropInterfaceDown:sum(packetBytes) 0
scalar QosThroughput.cliHost.lo[0] packetDropNoCarrier:count 0
scalar QosThroughput.cliHost.lo[0] packetDropNoCarrier:sum(packetBytes) 0
scalar QosThroughput.cliHost.wlan[0].mac.dcf.channelAccess.pendingQueue queueLength:last 219269
scalar QosThroughput.cliHost.wlan[0].mac.dcf.channelAccess.pendingQueue queueLength:max 219269
scalar QosThroughput.cliHost.wlan[0].mac.dcf.channelAccess.pendingQueue queueLength:timeavg 98675.416428853365
scalar QosThroughput.cliHost.wlan[0].mac.dcf.channelAccess.pendingQueue queueBitLength:last 1866417728
scalar QosThroughput.cliHost.wlan[0].mac.dcf.channelAccess.pendingQueue queueBitLength:max 1866417728
scalar QosThroughput.cliHost.wlan[0].mac.dcf.channelAccess.pendingQueue queueBitLength:timeavg 839925144.64240134
scalar QosThroughput.cliHost.wlan[0].mac.dcf.channelAccess.pendingQueue outgoingPackets:count 5731
scalar QosThroughput.cliHost.wlan[0].mac.dcf.channelAccess.pendingQueue outgoingPacketLengths:sum 48782272
scalar QosThroughput.cliHost.wlan[0].mac.dcf.channelAccess.pendingQueue incomingPackets:count 225000
scalar QosThroughput.cliHost.wlan[0].mac.dcf.channelAccess.pendingQueue incomingPacketLengths:sum 1915200000
scalar QosThroughput.cliHost.wlan[0].mac.dcf.channelAccess.pendingQueue droppedPacketsQueueOverflow:count 0
scalar QosThroughput.cliHost.wlan[0].mac.dcf.channelAccess.pendingQueue droppedPacketLengthsQueueOverflow:sum 0
scalar QosThroughput.cliHost.wlan[0].mac.dcf.channelAccess.inProgressFrames queueLength:max 2
scalar QosThroughput.cliHost.wlan[0].mac.dcf.channelAccess.inProgressFrames queueLength:timeavg 1.3896659999999001
scalar QosThroughput.cliHost.wlan[0].mac.dcf.channelAccess.contention channelAccessGranted:count 5730
scalar QosThroughput.cliHost.wlan[0].mac.dcf.channelAccess.contention stateChanged:count 45840
scalar QosThroughput.cliHost.wlan[0].mac.dcf.channelAccess channelOwnershipChanged:count 11459
scalar QosThroughput.cliHost.wlan[0].mac.dcf.originatorMacDataService packetAggregated:count 0
scalar QosThroughput.cliHost.wlan[0].mac.dcf.originatorMacDataService packetFragmented:count 0
scalar QosThroughput.cliHost.wlan[0].mac.dcf.recipientMacDataService packetDeaggregated:count 0
scalar QosThroughput.cliHost.wlan[0].mac.dcf.recipientMacDataService packetDefragmented:count 0
scalar QosThroughput.cliHost.wlan[0].mac.dcf.recipientMacDataService packetDropDuplicateDetected:count 0
scalar QosThroughput.cliHost.wlan[0].mac.dcf.recipientMacDataService packetDropDuplicateDetected:sum(packetBytes) 0
scalar QosThroughput.cliHost.wlan[0].mac.dcf.recoveryProcedure retryLimitReached:count 0
scalar QosThroughput.cliHost.wlan[0].mac.dcf frameSequenceFinished:count 5729
scalar QosThroughput.cliHost.wlan[0].mac.dcf packetReceivedFromPeer:count 5729
scalar QosThroughput.cliHost.wlan[0].mac.dcf packetReceivedFromPeer:sum(packetBytes) 80206
scalar QosThroughput.cliHost.wlan[0].mac.dcf packetReceivedFromPeerUnicast:count 5729
scalar QosThroughput.cliHost.wlan[0].mac.dcf packetReceivedFromPeerUnicast:sum(packetBytes) 80206
scalar QosThroughput.cliHost.wlan[0].mac.dcf packetReceivedFromPeerMulticast:count 0
scalar QosThroughput.cliHost.wlan[0].mac.dcf packetReceivedFromPeerMulticast:sum(packetBytes) 0
scalar QosThroughput.cliHost.wlan[0].mac.dcf packetReceivedFromPeerBroadcast:count 0
scalar QosThroughput.cliHost.wlan[0].mac.dcf packetReceivedFromPeerBroadcast:sum(packetBytes) 0
scalar QosThroughput.cliHost.wlan[0].mac.dcf packetReceivedFromPeerWithRetry:count 0
scalar QosThroughput.cliHost.wlan[0].mac.dcf packetReceivedFromPeerWithRetry:sum(packetBytes) 0
scalar QosThroughput.cliHost.wlan[0].mac.dcf packetReceivedFromPeerWithoutRetry:count 5729
scalar QosThroughput.cliHost.wlan[0].mac.dcf packetReceivedFromPeerWithoutRetry:sum(packetBytes) 80206
scalar QosThroughput.cliHost.wlan[0].mac.dcf packetSentToPeer:count 5729
scalar QosThroughput.cliHost.wlan[0].mac.dcf packetSentToPeer:sum(packetBytes) 6095656
scalar QosThroughput.cliHost.wlan[0].mac.dcf packetSentToPeerUnicast:count 5729
scalar QosThroughput.cliHost.wlan[0].mac.dcf packetSentToPeerUnicast:sum(packetBytes) 6095656
scalar QosThroughput.cliHost.wlan[0].mac.dcf packetSentToPeerMulticast:count 0
scalar QosThroughput.cliHost.wlan[0].mac.dcf packetSentToPeerMulticast:sum(packetBytes) 0
scalar QosThroughput.cliHost.wlan[0].mac.dcf packetSentToPeerBroadcast:count 0
scalar QosThroughput.cliHost.wlan[0].mac.dcf packetSentToPeerBroadcast:sum(packetBytes) 0
scalar QosThroughput.cliHost.wlan[0].mac.dcf packetSentToPeerWithRetry:count 0
scalar QosThroughput.cliHost.wlan[0].mac.dcf packetSentToPeerWithRetry:sum(packetBytes) 0
scalar QosThroughput.cliHost.wlan[0].mac.dcf packetSentToPeerWithoutRetry:count 5729
scalar QosThroughput.cliHost.wlan[0].mac.dcf packetSentToPeerWithoutRetry:sum(packetBytes) 6095656
scalar QosThroughput.cliHost.wlan[0].mac.dcf packetDrop:count 0
scalar QosThroughput.cliHost.wlan[0].mac.dcf packetDrop:sum(packetBytes) 0
scalar QosThroughput.cliHost.wlan[0].mac.dcf packetDropNotAddressedToUs:count 0
scalar QosThroughput.cliHost.wlan[0].mac.dcf packetDropNotAddressedToUs:sum(packetBytes) 0
scalar QosThroughput.cliHost.wlan[0].mac.dcf packetDropQueueOverflow:count 0
scalar QosThroughput.cliHost.wlan[0].mac.dcf packetDropQueueOverflow:sum(packetBytes) 0
scalar QosThroughput.cliHost.wlan[0].mac.dcf packetDropRetryLimitReached:count 0
scalar QosThroughput.cliHost.wlan[0].mac.dcf packetDropRetryLimitReached:sum(packetBytes) 0
scalar QosThroughput.cliHost.wlan[0].mac.dcf linkBroken:count 0
scalar QosThroughput.cliHost.wlan[0].mac packetReceivedFromLower:count 5729
scalar QosThroughput.cliHost.wlan[0].mac packetReceivedFromLower:sum(packetBytes) 80206
scalar QosThroughput.cliHost.wlan[0].mac packetSentToLower:count 5730
scalar QosThroughput.cliHost.wlan[0].mac packetSentToLower:sum(packetBytes) 6096720
scalar QosThroughput.cliHost.wlan[0].mac packetReceivedFromUpper:count 225000
scalar QosThroughput.cliHost.wlan[0].mac packetReceivedFromUpper:sum(packetBytes) 233100000
scalar QosThroughput.cliHost.wlan[0].mac packetSentToUpper:count 0
scalar QosThroughput.cliHost.wlan[0].mac packetSentToUpper:sum(packetBytes) 0
scalar QosThroughput.cliHost.wlan[0].mac packetDrop:count 0
scalar QosThroughput.cliHost.wlan[0].mac packetDrop:sum(packetBytes) 0
scalar QosThroughput.cliHost.wlan[0].mac packetDropIncorrectlyReceived:count 0
scalar QosThroughput.cliHost.wlan[0].mac packetDropIncorrectlyReceived:sum(packetBytes) 0
scalar QosThroughput.cliHost.wlan[0].mac packetDropNotAddressedToUs:count 0
scalar QosThroughput.cliHost.wlan[0].mac packetDropNotAddressedToUs:sum(packetBytes) 0
scalar QosThroughput.cliHost.wlan[0].mac packetDropQueueOverflow:count 0
scalar QosThroughput.cliHost.wlan[0].mac packetDropQueueOverflow:sum(packetBytes) 0
scalar QosThroughput.cliHost.wlan[0].mac packetDropRetryLimitReached:count 0
scalar QosThroughput.cliHost.wlan[0].mac packetDropRetryLimitReached:sum(packetBytes) 0
scalar QosThroughput.cliHost.wlan[0].mac packetDropDuplicateDetected:count 0
scalar QosThroughput.cliHost.wlan[0].mac packetDropDuplicateDetected:sum(packetBytes) 0
scalar QosThroughput.cliHost.wlan[0].mac packetDropOther:count 0
scalar QosThroughput.cliHost.wlan[0].mac packetDropOther:sum(packetBytes) 0
scalar QosThroughput.cliHost.wlan[0].mac linkBroken:count 0
scalar QosThroughput.cliHost.wlan[0].radio radioMode:count 11462
scalar QosThroughput.cliHost.wlan[0].radio receptionState:count 22918
scalar QosThroughput.cliHost.wlan[0].radio transmissionState:count 22918
scalar QosThroughput.cliHost.wlan[0] packetDropInterfaceDown:count 0
scalar QosThroughput.cliHost.wlan[0] packetDropInterfaceDown:sum(packetBytes) 0
scalar QosThroughput.cliHost.wlan[0] packetDropNoCarrier:count 0
scalar QosThroughput.cliHost.wlan[0] packetDropNoCarrier:sum(packetBytes) 0
scalar QosThroughput.cliHost.ipv4.ip packetDropAddressResolutionFailed:count 0
scalar QosThroughput.cliHost.ipv4.ip packetDropAddressResolutionFailed:sum(packetBytes) 0
scalar QosThroughput.cliHost.ipv4.ip packetDropHopLimitReached:count 0
scalar QosThroughput.cliHost.ipv4.ip packetDropHopLimitReached:sum(packetBytes) 0
scalar QosThroughput.cliHost.ipv4.ip packetDropForwardingDisabled:count 0
scalar QosThroughput.cliHost.ipv4.ip packetDropForwardingDisabled:sum(packetBytes) 0
scalar QosThroughput.cliHost.ipv4.ip packetDropLifetimeExpired:count 0
scalar QosThroughput.cliHost.ipv4.ip packetDropLifetimeExpired:sum(packetBytes) 0
scalar QosThroughput.cliHost.ipv4.ip packetDropNoInterfaceFound:count 0
scalar QosThroughput.cliHost.ipv4.ip packetDropNoInterfaceFound:sum(packetBytes) 0
scalar QosThroughput.cliHost.ipv4.ip packetDropNoRouteFound:count 0
scalar QosThroughput.cliHost.ipv4.ip packetDropNoRouteFound:sum(packetBytes) 0
scalar QosThroughput.cliHost.ipv4.ip packetDropUndefined:count 0
scalar QosThroughput.cliHost.ipv4.ip packetDropUndefined:sum(packetBytes) 0
scalar QosThroughput.cliHost.udp packetReceived:count 0
scalar QosThroughput.cliHost.udp packetReceived:sum(packetBytes) 0
scalar QosThroughput.cliHost.udp packetSent:count 225000
scalar QosThroughput.cliHost.udp packetSent:sum(packetBytes) 226800000
scalar QosThroughput.cliHost.udp passedUpPk:count 0
scalar QosThroughput.cliHost.udp droppedPkWrongPort:count 0
scalar QosThroughput.cliHost.udp droppedPkBadChecksum:count 0
scalar QosThroughput.cliHost.app[0] "packets sent" 45000
scalar QosThroughput.cliHost.app[0] "packets received" 0
scalar QosThroughput.cliHost.app[0] packetReceived:count 0
scalar QosThroughput.cliHost.app[0] packetReceived:sum(packetBytes) 0
scalar QosThroughput.cliHost.app[0] packetSent:count 45000
scalar QosThroughput.cliHost.app[0] packetSent:sum(packetBytes) 45000000
scalar QosThroughput.cliHost.app[1] "packets sent" 45000
scalar QosThroughput.cliHost.app[1] "packets received" 0
scalar QosThroughput.cliHost.app[1] packetReceived:count 0
scalar QosThroughput.cliHost.app[1] packetReceived:sum(packetBytes) 0
scalar QosThroughput.cliHost.app[1] packetSent:count 45000
scalar QosThroughput.cliHost.app[1] packetSent:sum(packetBytes) 45000000
scalar QosThroughput.cliHost.app[2] "packets sent" 45000
scalar QosThroughput.cliHost.app[2] "packets received" 0
scalar QosThroughput.cliHost.app[2] packetReceived:count 0
scalar QosThroughput.cliHost.app[2] packetReceived:sum(packetBytes) 0
scalar QosThroughput.cliHost.app[2] packetSent:count 45000
scalar QosThroughput.cliHost.app[2] packetSent:sum(packetBytes) 45000000
scalar QosThroughput.cliHost.app[3] "packets sent" 45000
scalar QosThroughput.cliHost.app[3] "packets received" 0
scalar QosThroughput.cliHost.app[3] packetReceived:count 0
scalar QosThroughput.cliHost.app[3] packetReceived:sum(packetBytes) 0
scalar QosThroughput.cliHost.app[3] packetSent:count 45000
scalar QosThroughput.cliHost.app[3] packetSent:sum(packetBytes) 45000000
scalar QosThroughput.cliHost.app[4] "packets sent" 45000
scalar QosThroughput.cliHost.app[4] "packets received" 0
scalar QosThroughput.cliHost.app[4] packetReceived:count 0
scalar QosThroughput.cliHost.app[4] packetReceived:sum(packetBytes) 0
scalar QosThroughput.cliHost.app[4] packetSent:count 45000
scalar QosThroughput.cliHost.app[4] packetSent:sum(packetBytes) 45000000
scalar QosThroughput.radioMedium.propagation "Arrival computation count" 11459
scalar QosThroughput.radioMedium "transmission count" 11459
scalar QosThroughput.radioMedium "signal send count" 11459
scalar QosThroughput.radioMedium "reception computation count" 11459
scalar QosThroughput.radioMedium "interference computation count" 45837
scalar QosThroughput.radioMedium "reception decision computation count" 11458
scalar QosThroughput.radioMedium "listening decision computation count" 22920
scalar QosThroughput.radioMedium "reception cache hit" 85.713573289780442
scalar QosThroughput.radioMedium "interference cache hit" 66.666666666666671
scalar QosThroughput.radioMedium "noise cache hit" 0
scalar QosThroughput.radioMedium "snir cache hit" 50
scalar QosThroughput.radioMedium "reception decision cache hit" 50
scalar QosThroughput.radioMedium "reception result cache hit" 0
scalar QosThroughput.cliHost.app[0] rcvdPkLifetime:stats:count 0
scalar QosThroughput.cliHost.app[0] rcvdPkLifetime:stats:sumweights 0
scalar QosThroughput.cliHost.app[0] rcvdPkLifetime:stats:mean -nan
scalar QosThroughput.cliHost.app[0] rcvdPkLifetime:stats:stddev nan
scalar QosThroughput.cliHost.app[0] rcvdPkLifetime:stats:min nan
scalar QosThroughput.cliHost.app[0] rcvdPkLifetime:stats:max nan
scalar QosThroughput.cliHost.app[0] rcvdPkLifetime:stats:numbins 0
scalar QosThroughput.cliHost.app[1] rcvdPkLifetime:stats:count 0
scalar QosThroughput.cliHost.app[1] rcvdPkLifetime:stats:sumweights 0
scalar QosThroughput.cliHost.app[1] rcvdPkLifetime:stats:mean -nan
scalar QosThroughput.cliHost.app[1] rcvdPkLifetime:stats:stddev nan
scalar QosThroughput.cliHost.app[1] rcvdPkLifetime:stats:min nan
scalar QosThroughput.cliHost.app[1] rcvdPkLifetime:stats:max nan
scalar QosThroughput.cliHost.app[1] rcvdPkLifetime:stats:numbins 0
scalar QosThroughput.cliHost.app[2] rcvdPkLifetime:stats:count 0
scalar QosThroughput.cliHost.app[2] rcvdPkLifetime:stats:sumweights 0
scalar QosThroughput.cliHost.app[2] rcvdPkLifetime:stats:mean -nan
scalar QosThroughput.cliHost.app[2] rcvdPkLifetime:stats:stddev nan
scalar QosThroughput.cliHost.app[2] rcvdPkLifetime:stats:min nan
scalar QosThroughput.cliHost.app[2] rcvdPkLifetime:stats:max nan
scalar QosThroughput.cliHost.app[2] rcvdPkLifetime:stats:numbins 0
scalar QosThroughput.cliHost.app[3] rcvdPkLifetime:stats:count 0
scalar QosThroughput.cliHost.app[3] rcvdPkLifetime:stats:sumweights 0
scalar QosThroughput.cliHost.app[3] rcvdPkLifetime:stats:mean -nan
scalar QosThroughput.cliHost.app[3] rcvdPkLifetime:stats:stddev nan
scalar QosThroughput.cliHost.app[3] rcvdPkLifetime:stats:min nan
scalar QosThroughput.cliHost.app[3] rcvdPkLifetime:stats:max nan
scalar QosThroughput.cliHost.app[3] rcvdPkLifetime:stats:numbins 0
scalar QosThroughput.cliHost.app[4] rcvdPkLifetime:stats:count 0
scalar QosThroughput.cliHost.app[4] rcvdPkLifetime:stats:sumweights 0
scalar QosThroughput.cliHost.app[4] rcvdPkLifetime:stats:mean -nan
scalar QosThroughput.cliHost.app[4] rcvdPkLifetime:stats:stddev nan
scalar QosThroughput.cliHost.app[4] rcvdPkLifetime:stats:min nan
scalar QosThroughput.cliHost.app[4] rcvdPkLifetime:stats:max nan
scalar QosThroughput.cliHost.app[4] rcvdPkLifetime:stats:numbins 0
scalar QosThroughput.srvHost.wlan[0].mac.dcf.channelAccess.pendingQueue queueingTime:histogram:count 0
scalar QosThroughput.srvHost.wlan[0].mac.dcf.channelAccess.pendingQueue queueingTime:histogram:sumweights 0
scalar QosThroughput.srvHost.wlan[0].mac.dcf.channelAccess.pendingQueue queueingTime:histogram:mean -nan
scalar QosThroughput.srvHost.wlan[0].mac.dcf.channelAccess.pendingQueue queueingTime:histogram:stddev nan
scalar QosThroughput.srvHost.wlan[0].mac.dcf.channelAccess.pendingQueue queueingTime:histogram:min nan
scalar QosThroughput.srvHost.wlan[0].mac.dcf.channelAccess.pendingQueue queueingTime:histogram:max nan
scalar QosThroughput.srvHost.wlan[0].mac.dcf.channelAccess.pendingQueue queueingTime:histogram:numbins 1
scalar QosThroughput.srvHost.wlan[0].mac.dcf.channelAccess.pendingQueue queueingTime:histogram:rangemin 0
scalar QosThroughput.srvHost.wlan[0].mac.dcf.channelAccess.pendingQueue queueingTime:histogram:rangemax 1
scalar QosThroughput.srvHost.wlan[0].mac.dcf.channelAccess.pendingQueue queueingTime:histogram:underflows 0
scalar QosThroughput.srvHost.wlan[0].mac.dcf.channelAccess.pendingQueue queueingTime:histogram:overflows 0
scalar QosThroughput.srvHost.wlan[0].mac.dcf.channelAccess.pendingQueue outgoingPacketLengths:histogram:count 0
scalar QosThroughput.srvHost.wlan[0].mac.dcf.channelAccess.pendingQueue outgoingPacketLengths:histogram:sumweights 0
scalar QosThroughput.srvHost.wlan[0].mac.dcf.channelAccess.pendingQueue outgoingPacketLengths:histogram:mean -nan
scalar QosThroughput.srvHost.wlan[0].mac.dcf.channelAccess.pendingQueue outgoingPacketLengths:histogram:stddev nan
scalar QosThroughput.srvHost.wlan[0].mac.dcf.channelAccess.pendingQueue outgoingPacketLengths:histogram:min nan
scalar QosThroughput.srvHost.wlan[0].mac.dcf.channelAccess.pendingQueue outgoingPacketLengths:histogram:max nan
scalar QosThroughput.srvHost.wlan[0].mac.dcf.channelAccess.pendingQueue outgoingPacketLengths:histogram:numbins 1
scalar QosThroughput.srvHost.wlan[0].mac.dcf.channelAccess.pendingQueue outgoingPacketLengths:histogram:rangemin 0
scalar QosThroughput.srvHost.wlan[0].mac.dcf.channelAccess.pendingQueue outgoingPacketLengths:histogram:rangemax 1
scalar QosThroughput.srvHost.wlan[0].mac.dcf.channelAccess.pendingQueue outgoingPacketLengths:histogram:underflows 0
scalar QosThroughput.srvHost.wlan[0].mac.dcf.channelAccess.pendingQueue outgoingPacketLengths:histogram:overflows 0
scalar QosThroughput.srvHost.wlan[0].mac.dcf.channelAccess.pendingQueue flowQueueingTime:histogram:count 0
scalar QosThroughput.srvHost.wlan[0].mac.dcf.channelAccess.pendingQueue flowQueueingTime:histogram:sumweights 0
scalar QosThroughput.srvHost.wlan[0].mac.dcf.channelAccess.pendingQueue flowQueueingTime:histogram:mean -nan
scalar QosThroughput.srvHost.wlan[0].mac.dcf.channelAccess.pendingQueue flowQueueingTime:histogram:stddev nan
scalar QosThroughput.srvHost.wlan[0].mac.dcf.channelAccess.pendingQueue flowQueueingTime:histogram:min nan
scalar QosThroughput.srvHost.wlan[0].mac.dcf.channelAccess.pendingQueue flowQueueingTime:histogram:max nan
scalar QosThroughput.srvHost.wlan[0].mac.dcf.channelAccess.pendingQueue flowQueueingTime:histogram:numbins 1
scalar QosThroughput.srvHost.wlan[0].mac.dcf.channelAccess.pendingQueue flowQueueingTime:histogram:rangemin 0
scalar QosThroughput.srvHost.wlan[0].mac.dcf.channelAccess.pendingQueue flowQueueingTime:histogram:rangemax 1
scalar QosThroughput.srvHost.wlan[0].mac.dcf.channelAccess.pendingQueue flowQueueingTime:histogram:underflows 0
scalar QosThroughput.srvHost.wlan[0].mac.dcf.channelAccess.pendingQueue flowQueueingTime:histogram:overflows 0
scalar QosThroughput.srvHost.wlan[0].mac.dcf.channelAccess.pendingQueue incomingPacketLengths:histogram:count 0
scalar QosThroughput.srvHost.wlan[0].mac.dcf.channelAccess.pendingQueue incomingPacketLengths:histogram:sumweights 0
scalar QosThroughput.srvHost.wlan[0].mac.dcf.channelAccess.pendingQueue incomingPacketLengths:histogram:mean -nan
scalar QosThroughput.srvHost.wlan[0].mac.dcf.channelAccess.pendingQueue incomingPacketLengths:histogram:stddev nan
scalar QosThroughput.srvHost.wlan[0].mac.dcf.channelAccess.pendingQueue incomingPacketLengths:histogram:min nan
scalar QosThroughput.srvHost.wlan[0].mac.dcf.channelAccess.pendingQueue incomingPacketLengths:histogram:max nan
scalar QosThroughput.srvHost.wlan[0].mac.dcf.channelAccess.pendingQueue incomingPacketLengths:histogram:numbins 1
scalar QosThroughput.srvHost.wlan[0].mac.dcf.channelAccess.pendingQueue incomingPacketLengths:histogram:rangemin 0
scalar QosThroughput.srvHost.wlan[0].mac.dcf.channelAccess.pendingQueue incomingPacketLengths:histogram:rangemax 1
scalar QosThroughput.srvHost.wlan[0].mac.dcf.channelAccess.pendingQueue incomingPacketLengths:histogram:underflows 0
scalar QosThroughput.srvHost.wlan[0].mac.dcf.channelAccess.pendingQueue incomingPacketLengths:histogram:overflows 0
scalar QosThroughput.srvHost.wlan[0].mac.dcf.channelAccess.inProgressFrames queueingTime:histogram:count 0
scalar QosThroughput.srvHost.wlan[0].mac.dcf.channelAccess.inProgressFrames queueingTime:histogram:sumweights 0
scalar QosThroughput.srvHost.wlan[0].mac.dcf.channelAccess.inProgressFrames queueingTime:histogram:mean -nan
scalar QosThroughput.srvHost.wlan[0].mac.dcf.channelAccess.inProgressFrames queueingTime:histogram:stddev nan
scalar QosThroughput.srvHost.wlan[0].mac.dcf.channelAccess.inProgressFrames queueingTime:histogram:min nan
scalar QosThroughput.srvHost.wlan[0].mac.dcf.channelAccess.inProgressFrames queueingTime:histogram:max nan
scalar QosThroughput.srvHost.wlan[0].mac.dcf.channelAccess.inProgressFrames queueingTime:histogram:numbins 1
scalar QosThroughput.srvHost.wlan[0].mac.dcf.channelAccess.inProgressFrames queueingTime:histogram:rangemin 0
scalar QosThroughput.srvHost.wlan[0].mac.dcf.channelAccess.inProgressFrames queueingTime:histogram:rangemax 1
scalar QosThroughput.srvHost.wlan[0].mac.dcf.channelAccess.inProgressFrames queueingTime:histogram:underflows 0
scalar QosThroughput.srvHost.wlan[0].mac.dcf.channelAccess.inProgressFrames queueingTime:histogram:overflows 0
scalar QosThroughput.srvHost.wlan[0].mac.dcf frameSequenceDuration:histogram:count 0
scalar QosThroughput.srvHost.wlan[0].mac.dcf frameSequenceDuration:histogram:sumweights 0
scalar QosThroughput.srvHost.wlan[0].mac.dcf frameSequenceDuration:histogram:mean -nan
scalar QosThroughput.srvHost.wlan[0].mac.dcf frameSequenceDuration:histogram:stddev nan
scalar QosThroughput.srvHost.wlan[0].mac.dcf frameSequenceDuration:histogram:min nan
scalar QosThroughput.srvHost.wlan[0].mac.dcf frameSequenceDuration:histogram:max nan
scalar QosThroughput.srvHost.wlan[0].mac.dcf frameSequenceDuration:histogram:numbins 1
scalar QosThroughput.srvHost.wlan[0].mac.dcf frameSequenceDuration:histogram:rangemin 0
scalar QosThroughput.srvHost.wlan[0].mac.dcf frameSequenceDuration:histogram:rangemax 1
scalar QosThroughput.srvHost.wlan[0].mac.dcf frameSequenceDuration:histogram:underflows 0
scalar QosThroughput.srvHost.wlan[0].mac.dcf frameSequenceDuration:histogram:overflows 0
scalar QosThroughput.srvHost.wlan[0].mac.dcf frameSequenceNumPackets:histogram:count 0
scalar QosThroughput.srvHost.wlan[0].mac.dcf frameSequenceNumPackets:histogram:sumweights 0
scalar QosThroughput.srvHost.wlan[0].mac.dcf frameSequenceNumPackets:histogram:mean -nan
scalar QosThroughput.srvHost.wlan[0].mac.dcf frameSequenceNumPackets:histogram:stddev nan
scalar QosThroughput.srvHost.wlan[0].mac.dcf frameSequenceNumPackets:histogram:min nan
scalar QosThroughput.srvHost.wlan[0].mac.dcf frameSequenceNumPackets:histogram:max nan
scalar QosThroughput.srvHost.wlan[0].mac.dcf frameSequenceNumPackets:histogram:numbins 1
scalar QosThroughput.srvHost.wlan[0].mac.dcf frameSequenceNumPackets:histogram:rangemin 0
scalar QosThroughput.srvHost.wlan[0].mac.dcf frameSequenceNumPackets:histogram:rangemax 1
scalar QosThroughput.srvHost.wlan[0].mac.dcf frameSequenceNumPackets:histogram:underflows 0
scalar QosThroughput.srvHost.wlan[0].mac.dcf frameSequenceNumPackets:histogram:overflows 0
scalar QosThroughput.srvHost.wlan[0].radio radioChannel:histogram:count 1
scalar QosThroughput.srvHost.wlan[0].radio radioChannel:histogram:sumweights 1
scalar QosThroughput.srvHost.wlan[0].radio radioChannel:histogram:mean 0
scalar QosThroughput.srvHost.wlan[0].radio radioChannel:histogram:stddev nan
scalar QosThroughput.srvHost.wlan[0].radio radioChannel:histogram:min 0
scalar QosThroughput.srvHost.wlan[0].radio radioChannel:histogram:max 0
scalar QosThroughput.srvHost.wlan[0].radio radioChannel:histogram:numbins 50
scalar QosThroughput.srvHost.wlan[0].radio radioChannel:histogram:rangemin -0.5
scalar QosThroughput.srvHost.wlan[0].radio radioChannel:histogram:rangemax 0.5
scalar QosThroughput.srvHost.wlan[0].radio radioChannel:histogram:underflows 0
scalar QosThroughput.srvHost.wlan[0].radio radioChannel:histogram:overflows 0
scalar QosThroughput.srvHost.wlan[0].radio minSnir:histogram:count 5729
scalar QosThroughput.srvHost.wlan[0].radio minSnir:histogram:sumweights 5729
scalar QosThroughput.srvHost.wlan[0].radio minSnir:histogram:mean 244572.19401296732
scalar QosThroughput.srvHost.wlan[0].radio minSnir:histogram:stddev 0
scalar QosThroughput.srvHost.wlan[0].radio minSnir:histogram:min 244572.19401298216
scalar QosThroughput.srvHost.wlan[0].radio minSnir:histogram:max 244572.19401298216
scalar QosThroughput.srvHost.wlan[0].radio minSnir:histogram:numbins 51
scalar QosThroughput.srvHost.wlan[0].radio minSnir:histogram:rangemin 244571.67999999999
scalar QosThroughput.srvHost.wlan[0].radio minSnir:histogram:rangemax 244572.69999999998
scalar QosThroughput.srvHost.wlan[0].radio minSnir:histogram:underflows 0
scalar QosThroughput.srvHost.wlan[0].radio minSnir:histogram:overflows 0
scalar QosThroughput.srvHost.wlan[0].radio packetErrorRate:histogram:count 5729
scalar QosThroughput.srvHost.wlan[0].radio packetErrorRate:histogram:sumweights 5729
scalar QosThroughput.srvHost.wlan[0].radio packetErrorRate:histogram:mean 0
scalar QosThroughput.srvHost.wlan[0].radio packetErrorRate:histogram:stddev 0
scalar QosThroughput.srvHost.wlan[0].radio packetErrorRate:histogram:min 0
scalar QosThroughput.srvHost.wlan[0].radio packetErrorRate:histogram:max 0
scalar QosThroughput.srvHost.wlan[0].radio packetErrorRate:histogram:numbins 50
scalar QosThroughput.srvHost.wlan[0].radio packetErrorRate:histogram:rangemin -0.5
scalar QosThroughput.srvHost.wlan[0].radio packetErrorRate:histogram:rangemax 0.5
scalar QosThroughput.srvHost.wlan[0].radio packetErrorRate:histogram:underflows 0
scalar QosThroughput.srvHost.wlan[0].radio packetErrorRate:histogram:overflows 0
scalar QosThroughput.srvHost.wlan[0].radio bitErrorRate:histogram:count 0
scalar QosThroughput.srvHost.wlan[0].radio bitErrorRate:histogram:sumweights 0
scalar QosThroughput.srvHost.wlan[0].radio bitErrorRate:histogram:mean -nan
scalar QosThroughput.srvHost.wlan[0].radio bitErrorRate:histogram:stddev nan
scalar QosThroughput.srvHost.wlan[0].radio bitErrorRate:histogram:min nan
scalar QosThroughput.srvHost.wlan[0].radio bitErrorRate:histogram:max nan
scalar QosThroughput.srvHost.wlan[0].radio bitErrorRate:histogram:numbins 1
scalar QosThroughput.srvHost.wlan[0].radio bitErrorRate:histogram:rangemin 0
scalar QosThroughput.srvHost.wlan[0].radio bitErrorRate:histogram:rangemax 1
scalar QosThroughput.srvHost.wlan[0].radio bitErrorRate:histogram:underflows 0
scalar QosThroughput.srvHost.wlan[0].radio bitErrorRate:histogram:overflows 0
scalar QosThroughput.srvHost.wlan[0].radio symbolErrorRate:histogram:count 0
scalar QosThroughput.srvHost.wlan[0].radio symbolErrorRate:histogram:sumweights 0
scalar QosThroughput.srvHost.wlan[0].radio symbolErrorRate:histogram:mean -nan
scalar QosThroughput.srvHost.wlan[0].radio symbolErrorRate:histogram:stddev nan
scalar QosThroughput.srvHost.wlan[0].radio symbolErrorRate:histogram:min nan
scalar QosThroughput.srvHost.wlan[0].radio symbolErrorRate:histogram:max nan
scalar QosThroughput.srvHost.wlan[0].radio symbolErrorRate:histogram:numbins 1
scalar QosThroughput.srvHost.wlan[0].radio symbolErrorRate:histogram:rangemin 0
scalar QosThroughput.srvHost.wlan[0].radio symbolErrorRate:histogram:rangemax 1
scalar QosThroughput.srvHost.wlan[0].radio symbolErrorRate:histogram:underflows 0
scalar QosThroughput.srvHost.wlan[0].radio symbolErrorRate:histogram:overflows 0
scalar QosThroughput.srvHost.app[0] endToEndDelay:histogram:count 1146
scalar QosThroughput.srvHost.app[0] endToEndDelay:histogram:sumweights 1146
scalar QosThroughput.srvHost.app[0] endToEndDelay:histogram:mean 2.1938049417691885
scalar QosThroughput.srvHost.app[0] endToEndDelay:histogram:stddev 1.264847939929463
scalar QosThroughput.srvHost.app[0] endToEndDelay:histogram:min 0.00038266712799999998
scalar QosThroughput.srvHost.app[0] endToEndDelay:histogram:max 4.3828612827280002
scalar QosThroughput.srvHost.app[0] endToEndDelay:histogram:numbins 48
scalar QosThroughput.srvHost.app[0] endToEndDelay:histogram:rangemin 0
scalar QosThroughput.srvHost.app[0] endToEndDelay:histogram:rangemax 4.8000000000000007
scalar QosThroughput.srvHost.app[0] endToEndDelay:histogram:underflows 0
scalar QosThroughput.srvHost.app[0] endToEndDelay:histogram:overflows 0
scalar QosThroughput.srvHost.app[1] endToEndDelay:histogram:count 1146
scalar QosThroughput.srvHost.app[1] endToEndDelay:histogram:sumweights 1146
scalar QosThroughput.srvHost.app[1] endToEndDelay:histogram:mean 2.1945906529885377
scalar QosThroughput.srvHost.app[1] endToEndDelay:histogram:stddev 1.2648419557434418
scalar QosThroughput.srvHost.app[1] endToEndDelay:histogram:min 0.00096000138400000002
scalar QosThroughput.srvHost.app[1] endToEndDelay:histogram:max 4.3835186169839995
scalar QosThroughput.srvHost.app[1] endToEndDelay:histogram:numbins 48
scalar QosThroughput.srvHost.app[1] endToEndDelay:histogram:rangemin 0
scalar QosThroughput.srvHost.app[1] endToEndDelay:histogram:rangemax 4.8000000000000007
scalar QosThroughput.srvHost.app[1] endToEndDelay:histogram:underflows 0
scalar QosThroughput.srvHost.app[1] endToEndDelay:histogram:overflows 0
scalar QosThroughput.srvHost.app[2] endToEndDelay:histogram:count 1146
scalar QosThroughput.srvHost.app[2] endToEndDelay:histogram:sumweights 1146
scalar QosThroughput.srvHost.app[2] endToEndDelay:histogram:mean 2.1953677080124243
scalar QosThroughput.srvHost.app[2] endToEndDelay:histogram:stddev 1.2648513650955941
scalar QosThroughput.srvHost.app[2] endToEndDelay:histogram:min 0.00163733564
scalar QosThroughput.srvHost.app[2] endToEndDelay:histogram:max 4.3841559512400003
scalar QosThroughput.srvHost.app[2] endToEndDelay:histogram:numbins 48
scalar QosThroughput.srvHost.app[2] endToEndDelay:histogram:rangemin 0
scalar QosThroughput.srvHost.app[2] endToEndDelay:histogram:rangemax 4.8000000000000007
scalar QosThroughput.srvHost.app[2] endToEndDelay:histogram:underflows 0
scalar QosThroughput.srvHost.app[2] endToEndDelay:histogram:overflows 0
scalar QosThroughput.srvHost.app[3] endToEndDelay:histogram:count 1146
scalar QosThroughput.srvHost.app[3] endToEndDelay:histogram:sumweights 1146
scalar QosThroughput.srvHost.app[3] endToEndDelay:histogram:mean 2.196153715915897
scalar QosThroughput.srvHost.app[3] endToEndDelay:histogram:stddev 1.2648469117840968
scalar QosThroughput.srvHost.app[3] endToEndDelay:histogram:min 0.0021746698960000001
scalar QosThroughput.srvHost.app[3] endToEndDelay:histogram:max 4.3851332854959999
scalar QosThroughput.srvHost.app[3] endToEndDelay:histogram:numbins 48
scalar QosThroughput.srvHost.app[3] endToEndDelay:histogram:rangemin 0
scalar QosThroughput.srvHost.app[3] endToEndDelay:histogram:rangemax 4.8000000000000007
scalar QosThroughput.srvHost.app[3] endToEndDelay:histogram:underflows 0
scalar QosThroughput.srvHost.app[3] endToEndDelay:histogram:overflows 0
scalar QosThroughput.srvHost.app[4] endToEndDelay:histogram:count 1145
scalar QosThroughput.srvHost.app[4] endToEndDelay:histogram:sumweights 1145
scalar QosThroughput.srvHost.app[4] endToEndDelay:histogram:mean 2.1950320287137468
scalar QosThroughput.srvHost.app[4] endToEndDelay:histogram:stddev 1.2637487683193616
scalar QosThroughput.srvHost.app[4] endToEndDelay:histogram:min 0.0031720041519999998
scalar QosThroughput.srvHost.app[4] endToEndDelay:histogram:max 4.3824039484719997
scalar QosThroughput.srvHost.app[4] endToEndDelay:histogram:numbins 48
scalar QosThroughput.srvHost.app[4] endToEndDelay:histogram:rangemin 0
scalar QosThroughput.srvHost.app[4] endToEndDelay:histogram:rangemax 4.8000000000000007
scalar QosThroughput.srvHost.app[4] endToEndDelay:histogram:underflows 0
scalar QosThroughput.srvHost.app[4] endToEndDelay:histogram:overflows 0
scalar QosThroughput.cliHost.wlan[0].mac.dcf.channelAccess.pendingQueue queueingTime:histogram:count 5731
scalar QosThroughput.cliHost.wlan[0].mac.dcf.channelAccess.pendingQueue queueingTime:histogram:sumweights 5731
scalar QosThroughput.cliHost.wlan[0].mac.dcf.channelAccess.pendingQueue queueingTime:histogram:mean 2.1945864673299194
scalar QosThroughput.cliHost.wlan[0].mac.dcf.channelAccess.pendingQueue queueingTime:histogram:stddev 1.2646292122788858
scalar QosThroughput.cliHost.wlan[0].mac.dcf.channelAccess.pendingQueue queueingTime:histogram:min 0
scalar QosThroughput.cliHost.wlan[0].mac.dcf.channelAccess.pendingQueue queueingTime:histogram:max 4.3852679526239999
scalar QosThroughput.cliHost.wlan[0].mac.dcf.channelAccess.pendingQueue queueingTime:histogram:numbins 55
scalar QosThroughput.cliHost.wlan[0].mac.dcf.channelAccess.pendingQueue queueingTime:histogram:rangemin 0
scalar QosThroughput.cliHost.wlan[0].mac.dcf.channelAccess.pendingQueue queueingTime:histogram:rangemax 4.400000000000003
scalar QosThroughput.cliHost.wlan[0].mac.dcf.channelAccess.pendingQueue queueingTime:histogram:underflows 0
scalar QosThroughput.cliHost.wlan[0].mac.dcf.channelAccess.pendingQueue queueingTime:histogram:overflows 0
scalar QosThroughput.cliHost.wlan[0].mac.dcf.channelAccess.pendingQueue outgoingPacketLengths:histogram:count 5731
scalar QosThroughput.cliHost.wlan[0].mac.dcf.channelAccess.pendingQueue outgoingPacketLengths:histogram:sumweights 5731
scalar QosThroughput.cliHost.wlan[0].mac.dcf.channelAccess.pendingQueue outgoingPacketLengths:histogram:mean 8512
scalar QosThroughput.cliHost.wlan[0].mac.dcf.channelAccess.pendingQueue outgoingPacketLengths:histogram:stddev 0
scalar QosThroughput.cliHost.wlan[0].mac.dcf.channelAccess.pendingQueue outgoingPacketLengths:histogram:min 8512
scalar QosThroughput.cliHost.wlan[0].mac.dcf.channelAccess.pendingQueue outgoingPacketLengths:histogram:max 8512
scalar QosThroughput.cliHost.wlan[0].mac.dcf.channelAccess.pendingQueue outgoingPacketLengths:histogram:numbins 2
scalar QosThroughput.cliHost.wlan[0].mac.dcf.channelAccess.pendingQueue outgoingPacketLengths:histogram:rangemin 8511
scalar QosThroughput.cliHost.wlan[0].mac.dcf.channelAccess.pendingQueue outgoingPacketLengths:histogram:rangemax 8513
scalar QosThroughput.cliHost.wlan[0].mac.dcf.channelAccess.pendingQueue outgoingPacketLengths:histogram:underflows 0
scalar QosThroughput.cliHost.wlan[0].mac.dcf.channelAccess.pendingQueue outgoingPacketLengths:histogram:overflows 0
scalar QosThroughput.cliHost.wlan[0].mac.dcf.channelAccess.pendingQueue flowQueueingTime:histogram:count 0
scalar QosThroughput.cliHost.wlan[0].mac.dcf.channelAccess.pendingQueue flowQueueingTime:histogram:sumweights 0
scalar QosThroughput.cliHost.wlan[0].mac.dcf.channelAccess.pendingQueue flowQueueingTime:histogram:mean -nan
scalar QosThroughput.cliHost.wlan[0].mac.dcf.channelAccess.pendingQueue flowQueueingTime:histogram:stddev nan
scalar QosThroughput.cliHost.wlan[0].mac.dcf.channelAccess.pendingQueue flowQueueingTime:histogram:min nan
scalar QosThroughput.cliHost.wlan[0].mac.dcf.channelAccess.pendingQueue flowQueueingTime:histogram:max nan
scalar QosThroughput.cliHost.wlan[0].mac.dcf.channelAccess.pendingQueue flowQueueingTime:histogram:numbins 1
scalar QosThroughput.cliHost.wlan[0].mac.dcf.channelAccess.pendingQueue flowQueueingTime:histogram:rangemin 0
scalar QosThroughput.cliHost.wlan[0].mac.dcf.channelAccess.pendingQueue flowQueueingTime:histogram:rangemax 1
scalar QosThroughput.cliHost.wlan[0].mac.dcf.channelAccess.pendingQueue flowQueueingTime:histogram:underflows 0
scalar QosThroughput.cliHost.wlan[0].mac.dcf.channelAccess.pendingQueue flowQueueingTime:histogram:overflows 0
scalar QosThroughput.cliHost.wlan[0].mac.dcf.channelAccess.pendingQueue incomingPacketLengths:histogram:count 225000
scalar QosThroughput.cliHost.wlan[0].mac.dcf.channelAccess.pendingQueue incomingPacketLengths:histogram:sumweights 225000
scalar QosThroughput.cliHost.wlan[0].mac.dcf.channelAccess.pendingQueue incomingPacketLengths:histogram:mean 8512
scalar QosThroughput.cliHost.wlan[0].mac.dcf.channelAccess.pendingQueue incomingPacketLengths:histogram:stddev 0
scalar QosThroughput.cliHost.wlan[0].mac.dcf.channelAccess.pendingQueue incomingPacketLengths:histogram:min 8512
scalar QosThroughput.cliHost.wlan[0].mac.dcf.channelAccess.pendingQueue incomingPacketLengths:histogram:max 8512
scalar QosThroughput.cliHost.wlan[0].mac.dcf.channelAccess.pendingQueue incomingPacketLengths:histogram:numbins 2
scalar QosThroughput.cliHost.wlan[0].mac.dcf.channelAccess.pendingQueue incomingPacketLengths:histogram:rangemin 8511
scalar QosThroughput.cliHost.wlan[0].mac.dcf.channelAccess.pendingQueue incomingPacketLengths:histogram:rangemax 8513
scalar QosThroughput.cliHost.wlan[0].mac.dcf.channelAccess.pendingQueue incomingPacketLengths:histogram:underflows 0
scalar QosThroughput.cliHost.wlan[0].mac.dcf.channelAccess.pendingQueue incomingPacketLengths:histogram:overflows 0
scalar QosThroughput.cliHost.wlan[0].mac.dcf.channelAccess.inProgressFrames queueingTime:histogram:count 5729
scalar QosThroughput.cliHost.wlan[0].mac.dcf.channelAccess.inProgressFrames queueingTime:histogram:sumweights 5729
scalar QosThroughput.cliHost.wlan[0].mac.dcf.channelAccess.inProgressFrames queueingTime:histogram:mean 0.0012126808467432385
scalar QosThroughput.cliHost.wlan[0].mac.dcf.channelAccess.inProgressFrames queueingTime:histogram:stddev 0.00018500889918111904
scalar QosThroughput.cliHost.wlan[0].mac.dcf.channelAccess.inProgressFrames queueingTime:histogram:min 0.00042733425599999998
scalar QosThroughput.cliHost.wlan[0].mac.dcf.channelAccess.inProgressFrames queueingTime:histogram:max 0.001524668512
scalar QosThroughput.cliHost.wlan[0].mac.dcf.channelAccess.inProgressFrames queueingTime:histogram:numbins 83
scalar QosThroughput.cliHost.wlan[0].mac.dcf.channelAccess.inProgressFrames queueingTime:histogram:rangemin 0.00014000000000000001
scalar QosThroughput.cliHost.wlan[0].mac.dcf.channelAccess.inProgressFrames queueingTime:histogram:rangemax 0.0018000000000000002
scalar QosThroughput.cliHost.wlan[0].mac.dcf.channelAccess.inProgressFrames queueingTime:histogram:underflows 0
scalar QosThroughput.cliHost.wlan[0].mac.dcf.channelAccess.inProgressFrames queueingTime:histogram:overflows 0
scalar QosThroughput.cliHost.wlan[0].mac.dcf frameSequenceDuration:histogram:count 5729
scalar QosThroughput.cliHost.wlan[0].mac.dcf frameSequenceDuration:histogram:sumweights 5729
scalar QosThroughput.cliHost.wlan[0].mac.dcf frameSequenceDuration:histogram:mean 0.00042733425599995628
scalar QosThroughput.cliHost.wlan[0].mac.dcf frameSequenceDuration:histogram:stddev 0
scalar QosThroughput.cliHost.wlan[0].mac.dcf frameSequenceDuration:histogram:min 0.00042733425599999998
scalar QosThroughput.cliHost.wlan[0].mac.dcf frameSequenceDuration:histogram:max 0.00042733425599999998
scalar QosThroughput.cliHost.wlan[0].mac.dcf frameSequenceDuration:histogram:numbins 51
scalar QosThroughput.cliHost.wlan[0].mac.dcf frameSequenceDuration:histogram:rangemin 0
scalar QosThroughput.cliHost.wlan[0].mac.dcf frameSequenceDuration:histogram:rangemax 0.51000000000000001
scalar QosThroughput.cliHost.wlan[0].mac.dcf frameSequenceDuration:histogram:underflows 0
scalar QosThroughput.cliHost.wlan[0].mac.dcf frameSequenceDuration:histogram:overflows 0
scalar QosThroughput.cliHost.wlan[0].mac.dcf frameSequenceNumPackets:histogram:count 5729
scalar QosThroughput.cliHost.wlan[0].mac.dcf frameSequenceNumPackets:histogram:sumweights 5729
scalar QosThroughput.cliHost.wlan[0].mac.dcf frameSequenceNumPackets:histogram:mean 2
scalar QosThroughput.cliHost.wlan[0].mac.dcf frameSequenceNumPackets:histogram:stddev 0
scalar QosThroughput.cliHost.wlan[0].mac.dcf frameSequenceNumPackets:histogram:min 2
scalar QosThroughput.cliHost.wlan[0].mac.dcf frameSequenceNumPackets:histogram:max 2
scalar QosThroughput.cliHost.wlan[0].mac.dcf frameSequenceNumPackets:histogram:numbins 2
scalar QosThroughput.cliHost.wlan[0].mac.dcf frameSequenceNumPackets:histogram:rangemin 1
scalar QosThroughput.cliHost.wlan[0].mac.dcf frameSequenceNumPackets:histogram:rangemax 3
scalar QosThroughput.cliHost.wlan[0].mac.dcf frameSequenceNumPackets:histogram:underflows 0
scalar QosThroughput.cliHost.wlan[0].mac.dcf frameSequenceNumPackets:histogram:overflows 0
scalar QosThroughput.cliHost.wlan[0].radio radioChannel:histogram:count 1
scalar QosThroughput.cliHost.wlan[0].radio radioChannel:histogram:sumweights 1
scalar QosThroughput.cliHost.wlan[0].radio radioChannel:histogram:mean 0
scalar QosThroughput.cliHost.wlan[0].radio radioChannel:histogram:stddev nan
scalar QosThroughput.cliHost.wlan[0].radio radioChannel:histogram:min 0
scalar QosThroughput.cliHost.wlan[0].radio radioChannel:histogram:max 0
scalar QosThroughput.cliHost.wlan[0].radio radioChannel:histogram:numbins 50
scalar QosThroughput.cliHost.wlan[0].radio radioChannel:histogram:rangemin -0.5
scalar QosThroughput.cliHost.wlan[0].radio radioChannel:histogram:rangemax 0.5
scalar QosThroughput.cliHost.wlan[0].radio radioChannel:histogram:underflows 0
scalar QosThroughput.cliHost.wlan[0].radio radioChannel:histogram:overflows 0
scalar QosThroughput.cliHost.wlan[0].radio minSnir:histogram:count 5729
scalar QosThroughput.cliHost.wlan[0].radio minSnir:histogram:sumweights 5729
scalar QosThroughput.cliHost.wlan[0].radio minSnir:histogram:mean 244572.19401296732
scalar QosThroughput.cliHost.wlan[0].radio minSnir:histogram:stddev 0
scalar QosThroughput.cliHost.wlan[0].radio minSnir:histogram:min 244572.19401298216
scalar QosThroughput.cliHost.wlan[0].radio minSnir:histogram:max 244572.19401298216
scalar QosThroughput.cliHost.wlan[0].radio minSnir:histogram:numbins 51
scalar QosThroughput.cliHost.wlan[0].radio minSnir:histogram:rangemin 244571.67999999999
scalar QosThroughput.cliHost.wlan[0].radio minSnir:histogram:rangemax 244572.69999999998
scalar QosThroughput.cliHost.wlan[0].radio minSnir:histogram:underflows 0
scalar QosThroughput.cliHost.wlan[0].radio minSnir:histogram:overflows 0
scalar QosThroughput.cliHost.wlan[0].radio packetErrorRate:histogram:count 5729
scalar QosThroughput.cliHost.wlan[0].radio packetErrorRate:histogram:sumweights 5729
scalar QosThroughput.cliHost.wlan[0].radio packetErrorRate:histogram:mean 0
scalar QosThroughput.cliHost.wlan[0].radio packetErrorRate:histogram:stddev 0
scalar QosThroughput.cliHost.wlan[0].radio packetErrorRate:histogram:min 0
scalar QosThroughput.cliHost.wlan[0].radio packetErrorRate:histogram:max 0
scalar QosThroughput.cliHost.wlan[0].radio packetErrorRate:histogram:numbins 50
scalar QosThroughput.cliHost.wlan[0].radio packetErrorRate:histogram:rangemin -0.5
scalar QosThroughput.cliHost.wlan[0].radio packetErrorRate:histogram:rangemax 0.5
scalar QosThroughput.cliHost.wlan[0].radio packetErrorRate:histogram:underflows 0
scalar QosThroughput.cliHost.wlan[0].radio packetErrorRate:histogram:overflows 0
scalar QosThroughput.cliHost.wlan[0].radio bitErrorRate:histogram:count 0
scalar QosThroughput.cliHost.wlan[0].radio bitErrorRate:histogram:sumweights 0
scalar QosThroughput.cliHost.wlan[0].radio bitErrorRate:histogram:mean -nan
scalar QosThroughput.cliHost.wlan[0].radio bitErrorRate:histogram:stddev nan
scalar QosThroughput.cliHost.wlan[0].radio bitErrorRate:histogram:min nan
scalar QosThroughput.cliHost.wlan[0].radio bitErrorRate:histogram:max nan
scalar QosThroughput.cliHost.wlan[0].radio bitErrorRate:histogram:numbins 1
scalar QosThroughput.cliHost.wlan[0].radio bitErrorRate:histogram:rangemin 0
scalar QosThroughput.cliHost.wlan[0].radio bitErrorRate:histogram:rangemax 1
scalar QosThroughput.cliHost.wlan[0].radio bitErrorRate:histogram:underflows 0
scalar QosThroughput.cliHost.wlan[0].radio bitErrorRate:histogram:overflows 0
scalar QosThroughput.cliHost.wlan[0].radio symbolErrorRate:histogram:count 0
scalar QosThroughput.cliHost.wlan[0].radio symbolErrorRate:histogram:sumweights 0
scalar QosThroughput.cliHost.wlan[0].radio symbolErrorRate:histogram:mean -nan
scalar QosThroughput.cliHost.wlan[0].radio symbolErrorRate:histogram:stddev nan
scalar QosThroughput.cliHost.wlan[0].radio symbolErrorRate:histogram:min nan
scalar QosThroughput.cliHost.wlan[0].radio symbolErrorRate:histogram:max nan
scalar QosThroughput.cliHost.wlan[0].radio symbolErrorRate:histogram:numbins 1
scalar QosThroughput.cliHost.wlan[0].radio symbolErrorRate:histogram:rangemin 0
scalar QosThroughput.cliHost.wlan[0].radio symbolErrorRate:histogram:rangemax 1
scalar QosThroughput.cliHost.wlan[0].radio symbolErrorRate:histogram:underflows 0
scalar QosThroughput.cliHost.wlan[0].radio symbolErrorRate:histogram:overflows 0
statistic QosThroughput.cliHost.app[0] rcvdPkLifetime:stats
field count 0
field mean -nan
field stddev nan
field min nan
field max nan
field sum 0
field sqrsum 0
statistic QosThroughput.cliHost.app[1] rcvdPkLifetime:stats
field count 0
field mean -nan
field stddev nan
field min nan
field max nan
field sum 0
field sqrsum 0
statistic QosThroughput.cliHost.app[2] rcvdPkLifetime:stats
field count 0
field mean -nan
field stddev nan
field min nan
field max nan
field sum 0
field sqrsum 0
statistic QosThroughput.cliHost.app[3] rcvdPkLifetime:stats
field count 0
field mean -nan
field stddev nan
field min nan
field max nan
field sum 0
field sqrsum 0
statistic QosThroughput.cliHost.app[4] rcvdPkLifetime:stats
field count 0
field mean -nan
field stddev nan
field min nan
field max nan
field sum 0
field sqrsum 0
statistic QosThroughput.srvHost.wlan[0].mac.dcf.channelAccess.pendingQueue queueingTime:histogram
field count 0
field mean -nan
field stddev nan
field min nan
field max nan
field sum 0
field sqrsum 0
bin	-inf	0
bin	0	0
bin	1	0
statistic QosThroughput.srvHost.wlan[0].mac.dcf.channelAccess.pendingQueue outgoingPacketLengths:histogram
field count 0
field mean -nan
field stddev nan
field min nan
field max nan
field sum 0
field sqrsum 0
bin	-inf	0
bin	0	0
bin	1	0
statistic QosThroughput.srvHost.wlan[0].mac.dcf.channelAccess.pendingQueue flowQueueingTime:histogram
field count 0
field mean -nan
field stddev nan
field min nan
field max nan
field sum 0
field sqrsum 0
bin	-inf	0
bin	0	0
bin	1	0
statistic QosThroughput.srvHost.wlan[0].mac.dcf.channelAccess.pendingQueue incomingPacketLengths:histogram
field count 0
field mean -nan
field stddev nan
field min nan
field max nan
field sum 0
field sqrsum 0
bin	-inf	0
bin	0	0
bin	1	0
statistic QosThroughput.srvHost.wlan[0].mac.dcf.channelAccess.inProgressFrames queueingTime:histogram
field count 0
field mean -nan
field stddev nan
field min nan
field max nan
field sum 0
field sqrsum 0
bin	-inf	0
bin	0	0
bin	1	0
statistic QosThroughput.srvHost.wlan[0].mac.dcf frameSequenceDuration:histogram
field count 0
field mean -nan
field stddev nan
field min nan
field max nan
field sum 0
field sqrsum 0
bin	-inf	0
bin	0	0
bin	1	0
statistic QosThroughput.srvHost.wlan[0].mac.dcf frameSequenceNumPackets:histogram
field count 0
field mean -nan
field stddev nan
field min nan
field max nan
field sum 0
field sqrsum 0
bin	-inf	0
bin	0	0
bin	1	0
statistic QosThroughput.srvHost.wlan[0].radio radioChannel:histogram
field count 1
field mean 0
field stddev nan
field min 0
field max 0
field sum 0
field sqrsum 0
bin	-inf	0
bin	-0.5	0
bin	-0.47999999999999998	0
bin	-0.46000000000000002	0
bin	-0.44	0
bin	-0.41999999999999998	0
bin	-0.40000000000000002	0
bin	-0.38	0
bin	-0.35999999999999999	0
bin	-0.33999999999999997	0
bin	-0.32000000000000001	0
bin	-0.29999999999999999	0
bin	-0.28000000000000003	0
bin	-0.26000000000000001	0
bin	-0.23999999999999999	0
bin	-0.21999999999999997	0
bin	-0.20000000000000001	0
bin	-0.17999999999999999	0
bin	-0.15999999999999998	0
bin	-0.14000000000000001	0
bin	-0.12	0
bin	-0.099999999999999978	0
bin	-0.080000000000000016	0
bin	-0.059999999999999998	0
bin	-0.03999999999999998	0
bin	-0.020000000000000018	0
bin	0	1
bin	0.020000000000000018	0
bin	0.040000000000000036	0
bin	0.060000000000000053	0
bin	0.07999999999999996	0
bin	0.099999999999999978	0
bin	0.12	0
bin	0.14000000000000001	0
bin	0.16000000000000003	0
bin	0.18000000000000005	0
bin	0.20000000000000007	0
bin	0.21999999999999997	0
bin	0.23999999999999999	0
bin	0.26000000000000001	0
bin	0.28000000000000003	0
bin	0.30000000000000004	0
bin	0.32000000000000006	0
bin	0.33999999999999997	0
bin	0.35999999999999999	0
bin	0.38	0
bin	0.40000000000000002	0
bin	0.42000000000000004	0
bin	0.44000000000000006	0
bin	0.45999999999999996	0
bin	0.47999999999999998	0
bin	0.5	0
statistic QosThroughput.srvHost.wlan[0].radio minSnir:histogram
field count 5729
field mean 244572.19401296732
field stddev 0
field min 244572.19401298216
field max 244572.19401298216
field sum 1401154099.5002897
field sqrsum 342683332265056.19
bin	-inf	0
bin	244571.67999999999	0
bin	244571.69999999998	0
bin	244571.72	0
bin	244571.73999999999	0
bin	244571.75999999998	0
bin	244571.78	0
bin	244571.79999999999	0
bin	244571.82000000001	0
bin	244571.84	0
bin	244571.85999999999	0
bin	244571.88	0
bin	244571.89999999999	0
bin	244571.91999999998	0
bin	244571.94	0
bin	244571.95999999999	0
bin	244571.97999999998	0
bin	244572	0
bin	244572.01999999999	0
bin	244572.03999999998	0
bin	244572.06	0
bin	244572.07999999999	0
bin	244572.10000000001	0
bin	244572.12	0
bin	244572.13999999998	0
bin	244572.16	0
bin	244572.17999999999	5729
bin	244572.19999999998	0
bin	244572.22	0
bin	244572.23999999999	0
bin	244572.25999999998	0
bin	244572.28	0
bin	244572.29999999999	0
bin	244572.32000000001	0
bin	244572.34	0
bin	244572.35999999999	0
bin	244572.38	0
bin	244572.39999999999	0
bin	244572.41999999998	0
bin	244572.44	0
bin	244572.45999999999	0
bin	244572.47999999998	0
bin	244572.5	0
bin	244572.51999999999	0
bin	244572.53999999998	0
bin	244572.56	0
bin	244572.57999999999	0
bin	244572.60000000001	0
bin	244572.62	0
bin	244572.63999999998	0
bin	244572.66	0
bin	244572.67999999999	0
bin	244572.69999999998	0
statistic QosThroughput.srvHost.wlan[0].radio packetErrorRate:histogram
field count 5729
field mean 0
field stddev 0
field min 0
field max 0
field sum 0
field sqrsum 0
bin	-inf	0
bin	-0.5	0
bin	-0.47999999999999998	0
bin	-0.46000000000000002	0
bin	-0.44	0
bin	-0.41999999999999998	0
bin	-0.40000000000000002	0
bin	-0.38	0
bin	-0.35999999999999999	0
bin	-0.33999999999999997	0
bin	-0.32000000000000001	0
bin	-0.29999999999999999	0
bin	-0.28000000000000003	0
bin	-0.26000000000000001	0
bin	-0.23999999999999999	0
bin	-0.21999999999999997	0
bin	-0.20000000000000001	0
bin	-0.17999999999999999	0
bin	-0.15999999999999998	0
bin	-0.14000000000000001	0
bin	-0.12	0
bin	-0.099999999999999978	0
bin	-0.080000000000000016	0
bin	-0.059999999999999998	0
bin	-0.03999999999999998	0
bin	-0.020000000000000018	0
bin	0	5729
bin	0.020000000000000018	0
bin	0.040000000000000036	0
bin	0.060000000000000053	0
bin	0.07999999999999996	0
bin	0.099999999999999978	0
bin	0.12	0
bin	0.14000000000000001	0
bin	0.16000000000000003	0
bin	0.18000000000000005	0
bin	0.20000000000000007	0
bin	0.21999999999999997	0
bin	0.23999999999999999	0
bin	0.26000000000000001	0
bin	0.28000000000000003	0
bin	0.30000000000000004	0
bin	0.32000000000000006	0
bin	0.33999999999999997	0
bin	0.35999999999999999	0
bin	0.38	0
bin	0.40000000000000002	0
bin	0.42000000000000004	0
bin	0.44000000000000006	0
bin	0.45999999999999996	0
bin	0.47999999999999998	0
bin	0.5	0
statistic QosThroughput.srvHost.wlan[0].radio bitErrorRate:histogram
field count 0
field mean -nan
field stddev nan
field min nan
field max nan
field sum 0
field sqrsum 0
bin	-inf	0
bin	0	0
bin	1	0
statistic QosThroughput.srvHost.wlan[0].radio symbolErrorRate:histogram
field count 0
field mean -nan
field stddev nan
field min nan
field max nan
field sum 0
field sqrsum 0
bin	-inf	0
bin	0	0
bin	1	0
statistic QosThroughput.srvHost.app[0] endToEndDelay:histogram
field count 1146
field mean 2.1938049417691885
field stddev 1.264847939929463
field min 0.00038266712799999998
field max 4.3828612827280002
field sum 2514.1004632674899
field sqrsum 7347.2631766800832
bin	-inf	0
bin	0	27
bin	0.10000000000000001	27
bin	0.20000000000000001	25
bin	0.30000000000000004	25
bin	0.40000000000000002	25
bin	0.5	26
bin	0.60000000000000009	26
bin	0.70000000000000007	27
bin	0.80000000000000004	26
bin	0.90000000000000002	26
bin	1	26
bin	1.1000000000000001	26
bin	1.2000000000000002	26
bin	1.3	25
bin	1.4000000000000001	27
bin	1.5	27
bin	1.6000000000000001	28
bin	1.7000000000000002	26
bin	1.8	25
bin	1.9000000000000001	26
bin	2	26
bin	2.1000000000000001	27
bin	2.2000000000000002	26
bin	2.3000000000000003	26
bin	2.4000000000000004	27
bin	2.5	25
bin	2.6000000000000001	26
bin	2.7000000000000002	25
bin	2.8000000000000003	26
bin	2.9000000000000004	26
bin	3	27
bin	3.1000000000000001	25
bin	3.2000000000000002	28
bin	3.3000000000000003	27
bin	3.4000000000000004	27
bin	3.5	26
bin	3.6000000000000001	27
bin	3.7000000000000002	26
bin	3.8000000000000003	26
bin	3.9000000000000004	26
bin	4	26
bin	4.1000000000000005	25
bin	4.2000000000000002	26
bin	4.2999999999999998	22
bin	4.4000000000000004	0
bin	4.5	0
bin	4.6000000000000005	0
bin	4.7000000000000002	0
bin	4.8000000000000007	0
statistic QosThroughput.srvHost.app[1] endToEndDelay:histogram
field count 1146
field mean 2.1945906529885377
field stddev 1.2648419557434418
field min 0.00096000138400000002
field max 4.3835186169839995
field sum 2515.0008883248643
field sqrsum 7351.1972648708006
bin	-inf	0
bin	0	27
bin	0.10000000000000001	27
bin	0.20000000000000001	25
bin	0.30000000000000004	25
bin	0.40000000000000002	25
bin	0.5	26
bin	0.60000000000000009	26
bin	0.70000000000000007	27
bin	0.80000000000000004	26
bin	0.90000000000000002	26
bin	1	26
bin	1.1000000000000001	26
bin	1.2000000000000002	26
bin	1.3	25
bin	1.4000000000000001	27
bin	1.5	27
bin	1.6000000000000001	28
bin	1.7000000000000002	26
bin	1.8	25
bin	1.9000000000000001	26
bin	2	26
bin	2.1000000000000001	27
bin	2.2000000000000002	26
bin	2.3000000000000003	26
bin	2.4000000000000004	27
bin	2.5	25
bin	2.6000000000000001	26
bin	2.7000000000000002	25
bin	2.8000000000000003	26
bin	2.9000000000000004	26
bin	3	26
bin	3.1000000000000001	26
bin	3.2000000000000002	27
bin	3.3000000000000003	28
bin	3.4000000000000004	26
bin	3.5	26
bin	3.6000000000000001	27
bin	3.7000000000000002	27
bin	3.8000000000000003	26
bin	3.9000000000000004	26
bin	4	26
bin	4.1000000000000005	25
bin	4.2000000000000002	26
bin	4.2999999999999998	22
bin	4.4000000000000004	0
bin	4.5	0
bin	4.6000000000000005	0
bin	4.7000000000000002	0
bin	4.8000000000000007	0
statistic QosThroughput.srvHost.app[2] endToEndDelay:histogram
field count 1146
field mean 2.1953677080124243
field stddev 1.2648513650955941
field min 0.00163733564
field max 4.3841559512400003
field sum 2515.8913933822382
field sqrsum 7355.1337991706441
bin	-inf	0
bin	0	27
bin	0.10000000000000001	26
bin	0.20000000000000001	26
bin	0.30000000000000004	24
bin	0.40000000000000002	26
bin	0.5	26
bin	0.60000000000000009	26
bin	0.70000000000000007	27
bin	0.80000000000000004	26
bin	0.90000000000000002	26
bin	1	26
bin	1.1000000000000001	25
bin	1.2000000000000002	26
bin	1.3	26
bin	1.4000000000000001	27
bin	1.5	27
bin	1.6000000000000001	28
bin	1.7000000000000002	26
bin	1.8	25
bin	1.9000000000000001	26
bin	2	25
bin	2.1000000000000001	27
bin	2.2000000000000002	27
bin	2.3000000000000003	25
bin	2.4000000000000004	27
bin	2.5	26
bin	2.6000000000000001	26
bin	2.7000000000000002	25
bin	2.8000000000000003	26
bin	2.9000000000000004	26
bin	3	26
bin	3.1000000000000001	26
bin	3.2000000000000002	27
bin	3.3000000000000003	28
bin	3.4000000000000004	26
bin	3.5	26
bin	3.6000000000000001	27
bin	3.7000000000000002	27
bin	3.8000000000000003	25
bin	3.9000000000000004	27
bin	4	25
bin	4.1000000000000005	26
bin	4.2000000000000002	25
bin	4.2999999999999998	23
bin	4.4000000000000004	0
bin	4.5	0
bin	4.6000000000000005	0
bin	4.7000000000000002	0
bin	4.8000000000000007	0
statistic QosThroughput.srvHost.app[3] endToEndDelay:histogram
field count 1146
field mean 2.196153715915897
field stddev 1.2648469117840968
field min 0.0021746698960000001
field max 4.3851332854959999
field sum 2516.7921584396181
field sqrsum 7359.0766291811415
bin	-inf	0
bin	0	26
bin	0.10000000000000001	27
bin	0.20000000000000001	25
bin	0.30000000000000004	25
bin	0.40000000000000002	25
bin	0.5	27
bin	0.60000000000000009	26
bin	0.70000000000000007	27
bin	0.80000000000000004	26
bin	0.90000000000000002	26
bin	1	26
bin	1.1000000000000001	25
bin	1.2000000000000002	26
bin	1.3	26
bin	1.4000000000000001	26
bin	1.5	28
bin	1.6000000000000001	28
bin	1.7000000000000002	25
bin	1.8	26
bin	1.9000000000000001	26
bin	2	25
bin	2.1000000000000001	27
bin	2.2000000000000002	26
bin	2.3000000000000003	26
bin	2.4000000000000004	27
bin	2.5	26
bin	2.6000000000000001	26
bin	2.7000000000000002	25
bin	2.8000000000000003	26
bin	2.9000000000000004	26
bin	3	26
bin	3.1000000000000001	25
bin	3.2000000000000002	28
bin	3.3000000000000003	28
bin	3.4000000000000004	26
bin	3.5	26
bin	3.6000000000000001	27
bin	3.7000000000000002	26
bin	3.8000000000000003	26
bin	3.9000000000000004	26
bin	4	26
bin	4.1000000000000005	26
bin	4.2000000000000002	25
bin	4.2999999999999998	23
bin	4.4000000000000004	0
bin	4.5	0
bin	4.6000000000000005	0
bin	4.7000000000000002	0
bin	4.8000000000000007	0
statistic QosThroughput.srvHost.app[4] endToEndDelay:histogram
field count 1145
field mean 2.1950320287137468
field stddev 1.2637487683193616
field min 0.0031720041519999998
field max 4.3824039484719997
field sum 2513.3116728772402
field sqrsum 7343.8373462521058
bin	-inf	0
bin	0	26
bin	0.10000000000000001	27
bin	0.20000000000000001	25
bin	0.30000000000000004	25
bin	0.40000000000000002	25
bin	0.5	27
bin	0.60000000000000009	25
bin	0.70000000000000007	27
bin	0.80000000000000004	27
bin	0.90000000000000002	26
bin	1	26
bin	1.1000000000000001	25
bin	1.2000000000000002	26
bin	1.3	25
bin	1.4000000000000001	27
bin	1.5	27
bin	1.6000000000000001	28
bin	1.7000000000000002	26
bin	1.8	25
bin	1.9000000000000001	26
bin	2	26
bin	2.1000000000000001	27
bin	2.2000000000000002	26
bin	2.3000000000000003	26
bin	2.4000000000000004	27
bin	2.5	25
bin	2.6000000000000001	26
bin	2.7000000000000002	26
bin	2.8000000000000003	25
bin	2.9000000000000004	27
bin	3	26
bin	3.1000000000000001	25
bin	3.2000000000000002	28
bin	3.3000000000000003	27
bin	3.4000000000000004	27
bin	3.5	26
bin	3.6000000000000001	27
bin	3.7000000000000002	26
bin	3.8000000000000003	26
bin	3.9000000000000004	26
bin	4	26
bin	4.1000000000000005	26
bin	4.2000000000000002	25
bin	4.2999999999999998	22
bin	4.4000000000000004	0
bin	4.5	0
bin	4.6000000000000005	0
bin	4.7000000000000002	0
bin	4.8000000000000007	0
statistic QosThroughput.cliHost.wlan[0].mac.dcf.channelAccess.pendingQueue queueingTime:histogram
field count 5731
field mean 2.1945864673299194
field stddev 1.2646292122788858
field min 0
field max 4.3852679526239999
field sum 12577.175044267768
field sqrsum 36765.612914656049
bin	-inf	0
bin	0	110
bin	0.080000000000000002	105
bin	0.16	105
bin	0.23999999999999999	100
bin	0.32000000000000001	98
bin	0.40000000000000002	102
bin	0.47999999999999998	103
bin	0.56000000000000005	105
bin	0.64000000000000001	103
bin	0.71999999999999997	110
bin	0.80000000000000004	102
bin	0.88	106
bin	0.95999999999999996	104
bin	1.04	102
bin	1.1200000000000001	103
bin	1.2000000000000002	104
bin	1.2800000000000002	102
bin	1.3600000000000003	108
bin	1.4400000000000004	106
bin	1.5200000000000005	108
bin	1.6000000000000005	112
bin	1.6800000000000006	106
bin	1.7600000000000007	100
bin	1.8400000000000007	102
bin	1.9200000000000008	104
bin	2.0000000000000009	104
bin	2.080000000000001	108
bin	2.160000000000001	104
bin	2.2400000000000011	106
bin	2.3200000000000012	101
bin	2.4000000000000012	107
bin	2.4800000000000013	104
bin	2.5600000000000014	102
bin	2.6400000000000015	103
bin	2.7200000000000015	102
bin	2.8000000000000016	107
bin	2.8800000000000017	101
bin	2.9600000000000017	105
bin	3.0400000000000018	104
bin	3.1200000000000019	102
bin	3.200000000000002	112
bin	3.280000000000002	108
bin	3.3600000000000021	107
bin	3.4400000000000022	108
bin	3.5200000000000022	102
bin	3.6000000000000023	108
bin	3.6800000000000024	105
bin	3.7600000000000025	106
bin	3.8400000000000025	104
bin	3.9200000000000026	104
bin	4.0000000000000027	103
bin	4.0800000000000027	101
bin	4.1600000000000028	103
bin	4.2400000000000029	105
bin	4.3200000000000029	85
bin	4.400000000000003	0
statistic QosThroughput.cliHost.wlan[0].mac.dcf.channelAccess.pendingQueue outgoingPacketLengths:histogram
field count 5731
field mean 8512
field stddev 0
field min 8512
field max 8512
field sum 48782272
field sqrsum 415234699264
bin	-inf	0
bin	8511	0
bin	8512	5731
bin	8513	0
statistic QosThroughput.cliHost.wlan[0].mac.dcf.channelAccess.pendingQueue flowQueueingTime:histogram
field count 0
field mean -nan
field stddev nan
field min nan
field max nan
field sum 0
field sqrsum 0
bin	-inf	0
bin	0	0
bin	1	0
statistic QosThroughput.cliHost.wlan[0].mac.dcf.channelAccess.pendingQueue incomingPacketLengths:histogram
field count 225000
field mean 8512
field stddev 0
field min 8512
field max 8512
field sum 1915200000
field sqrsum 16302182400000
bin	-inf	0
bin	8511	0
bin	8512	225000
bin	8513	0
statistic QosThroughput.cliHost.wlan[0].mac.dcf.channelAccess.inProgressFrames queueingTime:histogram
field count 5729
field mean 0.0012126808467432385
field stddev 0.00018500889918111904
field min 0.00042733425599999998
field max 0.001524668512
field sum 6.9474485709920133
field sqrsum 0.0086210974767978246
bin	-inf	0
bin	0.00014000000000000001	0
bin	0.00016000000000000001	0
bin	0.00018000000000000001	0
bin	0.00020000000000000004	0
bin	0.00022000000000000003	0
bin	0.00024000000000000003	0
bin	0.00026000000000000003	0
bin	0.00028000000000000003	0
bin	0.00030000000000000003	0
bin	0.00032000000000000003	0
bin	0.00034000000000000002	0
bin	0.00036000000000000002	0
bin	0.00038000000000000002	0
bin	0.00040000000000000007	0
bin	0.00042000000000000002	1
bin	0.00044000000000000007	0
bin	0.00046000000000000001	0
bin	0.00048000000000000007	0
bin	0.00050000000000000001	0
bin	0.00052000000000000006	0
bin	0.00054000000000000001	0
bin	0.00056000000000000006	0
bin	0.00058	0
bin	0.00060000000000000006	0
bin	0.00062000000000000011	0
bin	0.00064000000000000005	0
bin	0.0006600000000000001	0
bin	0.00068000000000000005	0
bin	0.0007000000000000001	0
bin	0.00072000000000000005	0
bin	0.0007400000000000001	0
bin	0.00076000000000000004	0
bin	0.00078000000000000009	0
bin	0.00080000000000000015	0
bin	0.00082000000000000009	0
bin	0.00084000000000000014	0
bin	0.00086000000000000009	0
bin	0.00088000000000000014	0
bin	0.00090000000000000008	174
bin	0.00092000000000000014	195
bin	0.00094000000000000008	174
bin	0.00096000000000000013	174
bin	0.00097999999999999997	186
bin	0.001	192
bin	0.0010200000000000001	170
bin	0.0010400000000000001	195
bin	0.00106	169
bin	0.00108	224
bin	0.0011000000000000001	178
bin	0.0011200000000000001	185
bin	0.00114	156
bin	0.00116	160
bin	0.0011800000000000001	173
bin	0.0012000000000000001	161
bin	0.0012199999999999999	164
bin	0.00124	182
bin	0.0012600000000000001	191
bin	0.0012800000000000001	176
bin	0.0012999999999999999	195
bin	0.00132	160
bin	0.00134	186
bin	0.0013600000000000001	182
bin	0.0013799999999999999	179
bin	0.0014	191
bin	0.00142	180
bin	0.0014400000000000001	181
bin	0.0014600000000000001	190
bin	0.00148	177
bin	0.0015	169
bin	0.0015200000000000001	159
bin	0.0015400000000000001	0
bin	0.00156	0
bin	0.00158	0
bin	0.0016000000000000001	0
bin	0.0016200000000000001	0
bin	0.00164	0
bin	0.00166	0
bin	0.0016800000000000001	0
bin	0.0017000000000000001	0
bin	0.00172	0
bin	0.00174	0
bin	0.0017600000000000001	0
bin	0.0017800000000000001	0
bin	0.0018000000000000002	0
statistic QosThroughput.cliHost.wlan[0].mac.dcf frameSequenceDuration:histogram
field count 5729
field mean 0.00042733425599995628
field stddev 0
field min 0.00042733425599999998
field max 0.00042733425599999998
field sum 2.4481979526237496
field sqrsum 0.0010461988506253227
bin	-inf	0
bin	0	5729
bin	0.01	0
bin	0.02	0
bin	0.029999999999999999	0
bin	0.040000000000000001	0
bin	0.050000000000000003	0
bin	0.059999999999999998	0
bin	0.070000000000000007	0
bin	0.080000000000000002	0
bin	0.089999999999999997	0
bin	0.10000000000000001	0
bin	0.11	0
bin	0.12	0
bin	0.13	0
bin	0.14000000000000001	0
bin	0.14999999999999999	0
bin	0.16	0
bin	0.17000000000000001	0
bin	0.17999999999999999	0
bin	0.19	0
bin	0.20000000000000001	0
bin	0.20999999999999999	0
bin	0.22	0
bin	0.23000000000000001	0
bin	0.23999999999999999	0
bin	0.25	0
bin	0.26000000000000001	0
bin	0.27000000000000002	0
bin	0.28000000000000003	0
bin	0.28999999999999998	0
bin	0.29999999999999999	0
bin	0.31	0
bin	0.32000000000000001	0
bin	0.33000000000000002	0
bin	0.34000000000000002	0
bin	0.35000000000000003	0
bin	0.35999999999999999	0
bin	0.37	0
bin	0.38	0
bin	0.39000000000000001	0
bin	0.40000000000000002	0
bin	0.41000000000000003	0
bin	0.41999999999999998	0
bin	0.42999999999999999	0
bin	0.44	0
bin	0.45000000000000001	0
bin	0.46000000000000002	0
bin	0.47000000000000003	0
bin	0.47999999999999998	0
bin	0.48999999999999999	0
bin	0.5	0
bin	0.51000000000000001	0
statistic QosThroughput.cliHost.wlan[0].mac.dcf frameSequenceNumPackets:histogram
field count 5729
field mean 2
field stddev 0
field min 2
field max 2
field sum 11458
field sqrsum 22916
bin	-inf	0
bin	1	0
bin	2	5729
bin	3	0
statistic QosThroughput.cliHost.wlan[0].radio radioChannel:histogram
field count 1
field mean 0
field stddev nan
field min 0
field max 0
field sum 0
field sqrsum 0
bin	-inf	0
bin	-0.5	0
bin	-0.47999999999999998	0
bin	-0.46000000000000002	0
bin	-0.44	0
bin	-0.41999999999999998	0
bin	-0.40000000000000002	0
bin	-0.38	0
bin	-0.35999999999999999	0
bin	-0.33999999999999997	0
bin	-0.32000000000000001	0
bin	-0.29999999999999999	0
bin	-0.28000000000000003	0
bin	-0.26000000000000001	0
bin	-0.23999999999999999	0
bin	-0.21999999999999997	0
bin	-0.20000000000000001	0
bin	-0.17999999999999999	0
bin	-0.15999999999999998	0
bin	-0.14000000000000001	0
bin	-0.12	0
bin	-0.099999999999999978	0
bin	-0.080000000000000016	0
bin	-0.059999999999999998	0
bin	-0.03999999999999998	0
bin	-0.020000000000000018	0
bin	0	1
bin	0.020000000000000018	0
bin	0.040000000000000036	0
bin	0.060000000000000053	0
bin	0.07999999999999996	0
bin	0.099999999999999978	0
bin	0.12	0
bin	0.14000000000000001	0
bin	0.16000000000000003	0
bin	0.18000000000000005	0
bin	0.20000000000000007	0
bin	0.21999999999999997	0
bin	0.23999999999999999	0
bin	0.26000000000000001	0
bin	0.28000000000000003	0
bin	0.30000000000000004	0
bin	0.32000000000000006	0
bin	0.33999999999999997	0
bin	0.35999999999999999	0
bin	0.38	0
bin	0.40000000000000002	0
bin	0.42000000000000004	0
bin	0.44000000000000006	0
bin	0.45999999999999996	0
bin	0.47999999999999998	0
bin	0.5	0
statistic QosThroughput.cliHost.wlan[0].radio minSnir:histogram
field count 5729
field mean 244572.19401296732
field stddev 0
field min 244572.19401298216
field max 244572.19401298216
field sum 1401154099.5002897
field sqrsum 342683332265056.19
bin	-inf	0
bin	244571.67999999999	0
bin	244571.69999999998	0
bin	244571.72	0
bin	244571.73999999999	0
bin	244571.75999999998	0
bin	244571.78	0
bin	244571.79999999999	0
bin	244571.82000000001	0
bin	244571.84	0
bin	244571.85999999999	0
bin	244571.88	0
bin	244571.89999999999	0
bin	244571.91999999998	0
bin	244571.94	0
bin	244571.95999999999	0
bin	244571.97999999998	0
bin	244572	0
bin	244572.01999999999	0
bin	244572.03999999998	0
bin	244572.06	0
bin	244572.07999999999	0
bin	244572.10000000001	0
bin	244572.12	0
bin	244572.13999999998	0
bin	244572.16	0
bin	244572.17999999999	5729
bin	244572.19999999998	0
bin	244572.22	0
bin	244572.23999999999	0
bin	244572.25999999998	0
bin	244572.28	0
bin	244572.29999999999	0
bin	244572.32000000001	0
bin	244572.34	0
bin	244572.35999999999	0
bin	244572.38	0
bin	244572.39999999999	0
bin	244572.41999999998	0
bin	244572.44	0
bin	244572.45999999999	0
bin	244572.47999999998	0
bin	244572.5	0
bin	244572.51999999999	0
bin	244572.53999999998	0
bin	244572.56	0
bin	244572.57999999999	0
bin	244572.60000000001	0
bin	244572.62	0
bin	244572.63999999998	0
bin	244572.66	0
bin	244572.67999999999	0
bin	244572.69999999998	0
[...]
scalar QosThroughput.cliHost.ipv4.ip packetDropUndefined:vector(packetBytes):stddev nan
scalar QosThroughput.cliHost.ipv4.ip packetDropUndefined:vector(packetBytes):min inf
scalar QosThroughput.cliHost.ipv4.ip packetDropUndefined:vector(packetBytes):max -inf
scalar QosThroughput.cliHost.ipv4.ip packetDropUndefined:vector(packetBytes):starttime nan
scalar QosThroughput.cliHost.ipv4.ip packetDropUndefined:vector(packetBytes):endtime nan
scalar QosThroughput.cliHost.udp packetSent:vector(packetBytes):count 225000
scalar QosThroughput.cliHost.udp packetSent:vector(packetBytes):sum 226800000
scalar QosThroughput.cliHost.udp packetSent:vector(packetBytes):sumweights 225000
scalar QosThroughput.cliHost.udp packetSent:vector(packetBytes):mean 1008
scalar QosThroughput.cliHost.udp packetSent:vector(packetBytes):stddev 0
scalar QosThroughput.cliHost.udp packetSent:vector(packetBytes):min 1008
scalar QosThroughput.cliHost.udp packetSent:vector(packetBytes):max 1008
scalar QosThroughput.cliHost.udp packetSent:vector(packetBytes):starttime 0.5
scalar QosThroughput.cliHost.udp packetSent:vector(packetBytes):endtime 4.9999000000000002
scalar QosThroughput.cliHost.udp packetReceived:vector(packetBytes):count 0
scalar QosThroughput.cliHost.udp packetReceived:vector(packetBytes):sum 0
scalar QosThroughput.cliHost.udp packetReceived:vector(packetBytes):sumweights 0
scalar QosThroughput.cliHost.udp packetReceived:vector(packetBytes):mean -nan
scalar QosThroughput.cliHost.udp packetReceived:vector(packetBytes):stddev nan
scalar QosThroughput.cliHost.udp packetReceived:vector(packetBytes):min inf
scalar QosThroughput.cliHost.udp packetReceived:vector(packetBytes):max -inf
scalar QosThroughput.cliHost.udp packetReceived:vector(packetBytes):starttime nan
scalar QosThroughput.cliHost.udp packetReceived:vector(packetBytes):endtime nan
scalar QosThroughput.cliHost.udp passedUpPk:vector(count):count 1
scalar QosThroughput.cliHost.udp passedUpPk:vector(count):sum 0
scalar QosThroughput.cliHost.udp passedUpPk:vector(count):sumweights 1
scalar QosThroughput.cliHost.udp passedUpPk:vector(count):mean 0
scalar QosThroughput.cliHost.udp passedUpPk:vector(count):stddev nan
scalar QosThroughput.cliHost.udp passedUpPk:vector(count):min 0
scalar QosThroughput.cliHost.udp passedUpPk:vector(count):max 0
scalar QosThroughput.cliHost.udp passedUpPk:vector(count):starttime 0
scalar QosThroughput.cliHost.udp passedUpPk:vector(count):endtime 0
scalar QosThroughput.cliHost.udp droppedPkWrongPort:vector(count):count 1
scalar QosThroughput.cliHost.udp droppedPkWrongPort:vector(count):sum 0
scalar QosThroughput.cliHost.udp droppedPkWrongPort:vector(count):sumweights 1
scalar QosThroughput.cliHost.udp droppedPkWrongPort:vector(count):mean 0
scalar QosThroughput.cliHost.udp droppedPkWrongPort:vector(count):stddev nan
scalar QosThroughput.cliHost.udp droppedPkWrongPort:vector(count):min 0
scalar QosThroughput.cliHost.udp droppedPkWrongPort:vector(count):max 0
scalar QosThroughput.cliHost.udp droppedPkWrongPort:vector(count):starttime 0
scalar QosThroughput.cliHost.udp droppedPkWrongPort:vector(count):endtime 0
scalar QosThroughput.cliHost.udp droppedPkBadChecksum:vector(count):count 1
scalar QosThroughput.cliHost.udp droppedPkBadChecksum:vector(count):sum 0
scalar QosThroughput.cliHost.udp droppedPkBadChecksum:vector(count):sumweights 1
scalar QosThroughput.cliHost.udp droppedPkBadChecksum:vector(count):mean 0
scalar QosThroughput.cliHost.udp droppedPkBadChecksum:vector(count):stddev nan
scalar QosThroughput.cliHost.udp droppedPkBadChecksum:vector(count):min 0
scalar QosThroughput.cliHost.udp droppedPkBadChecksum:vector(count):max 0
scalar QosThroughput.cliHost.udp droppedPkBadChecksum:vector(count):starttime 0
scalar QosThroughput.cliHost.udp droppedPkBadChecksum:vector(count):endtime 0
scalar QosThroughput.cliHost.app[0] packetReceived:vector(packetBytes):count 0
scalar QosThroughput.cliHost.app[0] packetReceived:vector(packetBytes):sum 0
scalar QosThroughput.cliHost.app[0] packetReceived:vector(packetBytes):sumweights 0
scalar QosThroughput.cliHost.app[0] packetReceived:vector(packetBytes):mean -nan
scalar QosThroughput.cliHost.app[0] packetReceived:vector(packetBytes):stddev nan
scalar QosThroughput.cliHost.app[0] packetReceived:vector(packetBytes):min inf
scalar QosThroughput.cliHost.app[0] packetReceived:vector(packetBytes):max -inf
scalar QosThroughput.cliHost.app[0] packetReceived:vector(packetBytes):starttime nan
scalar QosThroughput.cliHost.app[0] packetReceived:vector(packetBytes):endtime nan
scalar QosThroughput.cliHost.app[0] throughput:vector:count 50
scalar QosThroughput.cliHost.app[0] throughput:vector:sum 0
scalar QosThroughput.cliHost.app[0] throughput:vector:sumweights 50
scalar QosThroughput.cliHost.app[0] throughput:vector:mean 0
scalar QosThroughput.cliHost.app[0] throughput:vector:stddev 0
scalar QosThroughput.cliHost.app[0] throughput:vector:min 0
scalar QosThroughput.cliHost.app[0] throughput:vector:max 0
scalar QosThroughput.cliHost.app[0] throughput:vector:starttime 0.10000000000000001
scalar QosThroughput.cliHost.app[0] throughput:vector:endtime 5
scalar QosThroughput.cliHost.app[0] packetSent:vector(packetBytes):count 45000
scalar QosThroughput.cliHost.app[0] packetSent:vector(packetBytes):sum 45000000
scalar QosThroughput.cliHost.app[0] packetSent:vector(packetBytes):sumweights 45000
scalar QosThroughput.cliHost.app[0] packetSent:vector(packetBytes):mean 1000
scalar QosThroughput.cliHost.app[0] packetSent:vector(packetBytes):stddev 0
scalar QosThroughput.cliHost.app[0] packetSent:vector(packetBytes):min 1000
scalar QosThroughput.cliHost.app[0] packetSent:vector(packetBytes):max 1000
scalar QosThroughput.cliHost.app[0] packetSent:vector(packetBytes):starttime 0.5
scalar QosThroughput.cliHost.app[0] packetSent:vector(packetBytes):endtime 4.9999000000000002
scalar QosThroughput.cliHost.app[0] rcvdPkLifetime:vector:count 0
scalar QosThroughput.cliHost.app[0] rcvdPkLifetime:vector:sum 0
scalar QosThroughput.cliHost.app[0] rcvdPkLifetime:vector:sumweights 0
scalar QosThroughput.cliHost.app[0] rcvdPkLifetime:vector:mean -nan
scalar QosThroughput.cliHost.app[0] rcvdPkLifetime:vector:stddev nan
scalar QosThroughput.cliHost.app[0] rcvdPkLifetime:vector:min inf
scalar QosThroughput.cliHost.app[0] rcvdPkLifetime:vector:max -inf
scalar QosThroughput.cliHost.app[0] rcvdPkLifetime:vector:starttime nan
scalar QosThroughput.cliHost.app[0] rcvdPkLifetime:vector:endtime nan
scalar QosThroughput.cliHost.app[0] rcvdPkSeqNo:vector:count 0
scalar QosThroughput.cliHost.app[0] rcvdPkSeqNo:vector:sum 0
scalar QosThroughput.cliHost.app[0] rcvdPkSeqNo:vector:sumweights 0
scalar QosThroughput.cliHost.app[0] rcvdPkSeqNo:vector:mean -nan
scalar QosThroughput.cliHost.app[0] rcvdPkSeqNo:vector:stddev nan
scalar QosThroughput.cliHost.app[0] rcvdPkSeqNo:vector:min inf
scalar QosThroughput.cliHost.app[0] rcvdPkSeqNo:vector:max -inf
scalar QosThroughput.cliHost.app[0] rcvdPkSeqNo:vector:starttime nan
scalar QosThroughput.cliHost.app[0] rcvdPkSeqNo:vector:endtime nan
scalar QosThroughput.cliHost.app[1] packetReceived:vector(packetBytes):count 0
scalar QosThroughput.cliHost.app[1] packetReceived:vector(packetBytes):sum 0
scalar QosThroughput.cliHost.app[1] packetReceived:vector(packetBytes):sumweights 0
scalar QosThroughput.cliHost.app[1] packetReceived:vector(packetBytes):mean -nan
scalar QosThroughput.cliHost.app[1] packetReceived:vector(packetBytes):stddev nan
scalar QosThroughput.cliHost.app[1] packetReceived:vector(packetBytes):min inf
scalar QosThroughput.cliHost.app[1] packetReceived:vector(packetBytes):max -inf
scalar QosThroughput.cliHost.app[1] packetReceived:vector(packetBytes):starttime nan
scalar QosThroughput.cliHost.app[1] packetReceived:vector(packetBytes):endtime nan
scalar QosThroughput.cliHost.app[1] throughput:vector:count 50
scalar QosThroughput.cliHost.app[1] throughput:vector:sum 0
scalar QosThroughput.cliHost.app[1] throughput:vector:sumweights 50
scalar QosThroughput.cliHost.app[1] throughput:vector:mean 0
scalar QosThroughput.cliHost.app[1] throughput:vector:stddev 0
scalar QosThroughput.cliHost.app[1] throughput:vector:min 0
scalar QosThroughput.cliHost.app[1] throughput:vector:max 0
scalar QosThroughput.cliHost.app[1] throughput:vector:starttime 0.10000000000000001
scalar QosThroughput.cliHost.app[1] throughput:vector:endtime 5
scalar QosThroughput.cliHost.app[1] packetSent:vector(packetBytes):count 45000
scalar QosThroughput.cliHost.app[1] packetSent:vector(packetBytes):sum 45000000
scalar QosThroughput.cliHost.app[1] packetSent:vector(packetBytes):sumweights 45000
scalar QosThroughput.cliHost.app[1] packetSent:vector(packetBytes):mean 1000
scalar QosThroughput.cliHost.app[1] packetSent:vector(packetBytes):stddev 0
scalar QosThroughput.cliHost.app[1] packetSent:vector(packetBytes):min 1000
scalar QosThroughput.cliHost.app[1] packetSent:vector(packetBytes):max 1000
scalar QosThroughput.cliHost.app[1] packetSent:vector(packetBytes):starttime 0.5
scalar QosThroughput.cliHost.app[1] packetSent:vector(packetBytes):endtime 4.9999000000000002
scalar QosThroughput.cliHost.app[1] rcvdPkLifetime:vector:count 0
scalar QosThroughput.cliHost.app[1] rcvdPkLifetime:vector:sum 0
scalar QosThroughput.cliHost.app[1] rcvdPkLifetime:vector:sumweights 0
scalar QosThroughput.cliHost.app[1] rcvdPkLifetime:vector:mean -nan
scalar QosThroughput.cliHost.app[1] rcvdPkLifetime:vector:stddev nan
scalar QosThroughput.cliHost.app[1] rcvdPkLifetime:vector:min inf
scalar QosThroughput.cliHost.app[1] rcvdPkLifetime:vector:max -inf
scalar QosThroughput.cliHost.app[1] rcvdPkLifetime:vector:starttime nan
scalar QosThroughput.cliHost.app[1] rcvdPkLifetime:vector:endtime nan
scalar QosThroughput.cliHost.app[1] rcvdPkSeqNo:vector:count 0
scalar QosThroughput.cliHost.app[1] rcvdPkSeqNo:vector:sum 0
scalar QosThroughput.cliHost.app[1] rcvdPkSeqNo:vector:sumweights 0
scalar QosThroughput.cliHost.app[1] rcvdPkSeqNo:vector:mean -nan
scalar QosThroughput.cliHost.app[1] rcvdPkSeqNo:vector:stddev nan
scalar QosThroughput.cliHost.app[1] rcvdPkSeqNo:vector:min inf
scalar QosThroughput.cliHost.app[1] rcvdPkSeqNo:vector:max -inf
scalar QosThroughput.cliHost.app[1] rcvdPkSeqNo:vector:starttime nan
scalar QosThroughput.cliHost.app[1] rcvdPkSeqNo:vector:endtime nan
scalar QosThroughput.cliHost.app[2] packetReceived:vector(packetBytes):count 0
scalar QosThroughput.cliHost.app[2] packetReceived:vector(packetBytes):sum 0
scalar QosThroughput.cliHost.app[2] packetReceived:vector(packetBytes):sumweights 0
scalar QosThroughput.cliHost.app[2] packetReceived:vector(packetBytes):mean -nan
scalar QosThroughput.cliHost.app[2] packetReceived:vector(packetBytes):stddev nan
scalar QosThroughput.cliHost.app[2] packetReceived:vector(packetBytes):min inf
scalar QosThroughput.cliHost.app[2] packetReceived:vector(packetBytes):max -inf
scalar QosThroughput.cliHost.app[2] packetReceived:vector(packetBytes):starttime nan
scalar QosThroughput.cliHost.app[2] packetReceived:vector(packetBytes):endtime nan
scalar QosThroughput.cliHost.app[2] throughput:vector:count 50
scalar QosThroughput.cliHost.app[2] throughput:vector:sum 0
scalar QosThroughput.cliHost.app[2] throughput:vector:sumweights 50
scalar QosThroughput.cliHost.app[2] throughput:vector:mean 0
scalar QosThroughput.cliHost.app[2] throughput:vector:stddev 0
scalar QosThroughput.cliHost.app[2] throughput:vector:min 0
scalar QosThroughput.cliHost.app[2] throughput:vector:max 0
scalar QosThroughput.cliHost.app[2] throughput:vector:starttime 0.10000000000000001
scalar QosThroughput.cliHost.app[2] throughput:vector:endtime 5
scalar QosThroughput.cliHost.app[2] packetSent:vector(packetBytes):count 45000
scalar QosThroughput.cliHost.app[2] packetSent:vector(packetBytes):sum 45000000
scalar QosThroughput.cliHost.app[2] packetSent:vector(packetBytes):sumweights 45000
scalar QosThroughput.cliHost.app[2] packetSent:vector(packetBytes):mean 1000
scalar QosThroughput.cliHost.app[2] packetSent:vector(packetBytes):stddev 0
scalar QosThroughput.cliHost.app[2] packetSent:vector(packetBytes):min 1000
scalar QosThroughput.cliHost.app[2] packetSent:vector(packetBytes):max 1000
scalar QosThroughput.cliHost.app[2] packetSent:vector(packetBytes):starttime 0.5
scalar QosThroughput.cliHost.app[2] packetSent:vector(packetBytes):endtime 4.9999000000000002
scalar QosThroughput.cliHost.app[2] rcvdPkLifetime:vector:count 0
scalar QosThroughput.cliHost.app[2] rcvdPkLifetime:vector:sum 0
scalar QosThroughput.cliHost.app[2] rcvdPkLifetime:vector:sumweights 0
scalar QosThroughput.cliHost.app[2] rcvdPkLifetime:vector:mean -nan
scalar QosThroughput.cliHost.app[2] rcvdPkLifetime:vector:stddev nan
scalar QosThroughput.cliHost.app[2] rcvdPkLifetime:vector:min inf
scalar QosThroughput.cliHost.app[2] rcvdPkLifetime:vector:max -inf
scalar QosThroughput.cliHost.app[2] rcvdPkLifetime:vector:starttime nan
scalar QosThroughput.cliHost.app[2] rcvdPkLifetime:vector:endtime nan
scalar QosThroughput.cliHost.app[2] rcvdPkSeqNo:vector:count 0
scalar QosThroughput.cliHost.app[2] rcvdPkSeqNo:vector:sum 0
scalar QosThroughput.cliHost.app[2] rcvdPkSeqNo:vector:sumweights 0
scalar QosThroughput.cliHost.app[2] rcvdPkSeqNo:vector:mean -nan
scalar QosThroughput.cliHost.app[2] rcvdPkSeqNo:vector:stddev nan
scalar QosThroughput.cliHost.app[2] rcvdPkSeqNo:vector:min inf
scalar QosThroughput.cliHost.app[2] rcvdPkSeqNo:vector:max -inf
scalar QosThroughput.cliHost.app[2] rcvdPkSeqNo:vector:starttime nan
scalar QosThroughput.cliHost.app[2] rcvdPkSeqNo:vector:endtime nan
scalar QosThroughput.cliHost.app[3] packetReceived:vector(packetBytes):count 0
scalar QosThroughput.cliHost.app[3] packetReceived:vector(packetBytes):sum 0
scalar QosThroughput.cliHost.app[3] packetReceived:vector(packetBytes):sumweights 0
scalar QosThroughput.cliHost.app[3] packetReceived:vector(packetBytes):mean -nan
scalar QosThroughput.cliHost.app[3] packetReceived:vector(packetBytes):stddev nan
scalar QosThroughput.cliHost.app[3] packetReceived:vector(packetBytes):min inf
scalar QosThroughput.cliHost.app[3] packetReceived:vector(packetBytes):max -inf
scalar QosThroughput.cliHost.app[3] packetReceived:vector(packetBytes):starttime nan
scalar QosThroughput.cliHost.app[3] packetReceived:vector(packetBytes):endtime nan
scalar QosThroughput.cliHost.app[3] throughput:vector:count 50
scalar QosThroughput.cliHost.app[3] throughput:vector:sum 0
scalar QosThroughput.cliHost.app[3] throughput:vector:sumweights 50
scalar QosThroughput.cliHost.app[3] throughput:vector:mean 0
scalar QosThroughput.cliHost.app[3] throughput:vector:stddev 0
scalar QosThroughput.cliHost.app[3] throughput:vector:min 0
scalar QosThroughput.cliHost.app[3] throughput:vector:max 0
scalar QosThroughput.cliHost.app[3] throughput:vector:starttime 0.10000000000000001
scalar QosThroughput.cliHost.app[3] throughput:vector:endtime 5
scalar QosThroughput.cliHost.app[3] packetSent:vector(packetBytes):count 45000
scalar QosThroughput.cliHost.app[3] packetSent:vector(packetBytes):sum 45000000
scalar QosThroughput.cliHost.app[3] packetSent:vector(packetBytes):sumweights 45000
scalar QosThroughput.cliHost.app[3] packetSent:vector(packetBytes):mean 1000
scalar QosThroughput.cliHost.app[3] packetSent:vector(packetBytes):stddev 0
scalar QosThroughput.cliHost.app[3] packetSent:vector(packetBytes):min 1000
scalar QosThroughput.cliHost.app[3] packetSent:vector(packetBytes):max 1000
scalar QosThroughput.cliHost.app[3] packetSent:vector(packetBytes):starttime 0.5
scalar QosThroughput.cliHost.app[3] packetSent:vector(packetBytes):endtime 4.9999000000000002
scalar QosThroughput.cliHost.app[3] rcvdPkLifetime:vector:count 0
scalar QosThroughput.cliHost.app[3] rcvdPkLifetime:vector:sum 0
scalar QosThroughput.cliHost.app[3] rcvdPkLifetime:vector:sumweights 0
scalar QosThroughput.cliHost.app[3] rcvdPkLifetime:vector:mean -nan
scalar QosThroughput.cliHost.app[3] rcvdPkLifetime:vector:stddev nan
scalar QosThroughput.cliHost.app[3] rcvdPkLifetime:vector:min inf
scalar QosThroughput.cliHost.app[3] rcvdPkLifetime:vector:max -inf
scalar QosThroughput.cliHost.app[3] rcvdPkLifetime:vector:starttime nan
scalar QosThroughput.cliHost.app[3] rcvdPkLifetime:vector:endtime nan
scalar QosThroughput.cliHost.app[3] rcvdPkSeqNo:vector:count 0
scalar QosThroughput.cliHost.app[3] rcvdPkSeqNo:vector:sum 0
scalar QosThroughput.cliHost.app[3] rcvdPkSeqNo:vector:sumweights 0
scalar QosThroughput.cliHost.app[3] rcvdPkSeqNo:vector:mean -nan
scalar QosThroughput.cliHost.app[3] rcvdPkSeqNo:vector:stddev nan
scalar QosThroughput.cliHost.app[3] rcvdPkSeqNo:vector:min inf
scalar QosThroughput.cliHost.app[3] rcvdPkSeqNo:vector:max -inf
scalar QosThroughput.cliHost.app[3] rcvdPkSeqNo:vector:starttime nan
scalar QosThroughput.cliHost.app[3] rcvdPkSeqNo:vector:endtime nan
scalar QosThroughput.cliHost.app[4] packetReceived:vector(packetBytes):count 0
scalar QosThroughput.cliHost.app[4] packetReceived:vector(packetBytes):sum 0
scalar QosThroughput.cliHost.app[4] packetReceived:vector(packetBytes):sumweights 0
scalar QosThroughput.cliHost.app[4] packetReceived:vector(packetBytes):mean -nan
scalar QosThroughput.cliHost.app[4] packetReceived:vector(packetBytes):stddev nan
scalar QosThroughput.cliHost.app[4] packetReceived:vector(packetBytes):min inf
scalar QosThroughput.cliHost.app[4] packetReceived:vector(packetBytes):max -inf
scalar QosThroughput.cliHost.app[4] packetReceived:vector(packetBytes):starttime nan
scalar QosThroughput.cliHost.app[4] packetReceived:vector(packetBytes):endtime nan
scalar QosThroughput.cliHost.app[4] throughput:vector:count 50
scalar QosThroughput.cliHost.app[4] throughput:vector:sum 0
scalar QosThroughput.cliHost.app[4] throughput:vector:sumweights 50
scalar QosThroughput.cliHost.app[4] throughput:vector:mean 0
scalar QosThroughput.cliHost.app[4] throughput:vector:stddev 0
scalar QosThroughput.cliHost.app[4] throughput:vector:min 0
scalar QosThroughput.cliHost.app[4] throughput:vector:max 0
scalar QosThroughput.cliHost.app[4] throughput:vector:starttime 0.10000000000000001
scalar QosThroughput.cliHost.app[4] throughput:vector:endtime 5
scalar QosThroughput.cliHost.app[4] packetSent:vector(packetBytes):count 45000
scalar QosThroughput.cliHost.app[4] packetSent:vector(packetBytes):sum 45000000
scalar QosThroughput.cliHost.app[4] packetSent:vector(packetBytes):sumweights 45000
scalar QosThroughput.cliHost.app[4] packetSent:vector(packetBytes):mean 1000
scalar QosThroughput.cliHost.app[4] packetSent:vector(packetBytes):stddev 0
scalar QosThroughput.cliHost.app[4] packetSent:vector(packetBytes):min 1000
scalar QosThroughput.cliHost.app[4] packetSent:vector(packetBytes):max 1000
scalar QosThroughput.cliHost.app[4] packetSent:vector(packetBytes):starttime 0.5
scalar QosThroughput.cliHost.app[4] packetSent:vector(packetBytes):endtime 4.9999000000000002
scalar QosThroughput.cliHost.app[4] rcvdPkLifetime:vector:count 0
scalar QosThroughput.cliHost.app[4] rcvdPkLifetime:vector:sum 0
scalar QosThroughput.cliHost.app[4] rcvdPkLifetime:vector:sumweights 0
scalar QosThroughput.cliHost.app[4] rcvdPkLifetime:vector:mean -nan
scalar QosThroughput.cliHost.app[4] rcvdPkLifetime:vector:stddev nan
scalar QosThroughput.cliHost.app[4] rcvdPkLifetime:vector:min inf
scalar QosThroughput.cliHost.app[4] rcvdPkLifetime:vector:max -inf
scalar QosThroughput.cliHost.app[4] rcvdPkLifetime:vector:starttime nan
scalar QosThroughput.cliHost.app[4] rcvdPkLifetime:vector:endtime nan
scalar QosThroughput.cliHost.app[4] rcvdPkSeqNo:vector:count 0
scalar QosThroughput.cliHost.app[4] rcvdPkSeqNo:vector:sum 0
scalar QosThroughput.cliHost.app[4] rcvdPkSeqNo:vector:sumweights 0
scalar QosThroughput.cliHost.app[4] rcvdPkSeqNo:vector:mean -nan
scalar QosThroughput.cliHost.app[4] rcvdPkSeqNo:vector:stddev nan
scalar QosThroughput.cliHost.app[4] rcvdPkSeqNo:vector:min inf
scalar QosThroughput.cliHost.app[4] rcvdPkSeqNo:vector:max -inf
scalar QosThroughput.cliHost.app[4] rcvdPkSeqNo:vector:starttime nan
scalar QosThroughput.cliHost.app[4] rcvdPkSeqNo:vector:endtime nan

