version 3
run MultipleNodes-0-20240417-12:12:36-14210
attr configname MultipleNodes
attr datetime 20240417-12:12:36
attr datetimef 20240417-121236
attr experiment MultipleNodes
attr inifile omnetpp.ini
attr iterationvars ""
attr iterationvarsd ""
attr iterationvarsf ""
attr measurement ""
attr network MediumActivityMultipleNodesShowcase
attr processid 14210
attr repetition 0
attr replication #0
attr resultdir results
attr runnumber 0
attr seedset 0
config **.param-recording false
config **.vector-recording false
config image-path /home/user/inet/images
config output-scalar-file results/omnetpp.ini-MultipleNodes-#0.sca
config sim-time-limit 1000s
config sim-time-limit 1000s
config network MediumActivityMultipleNodesShowcase
config description "Multiple nodes"
config *.source.numApps 1
config *.source.app[0].typename UdpBasicApp
config *.source.app[*].destAddresses "\"destination\""
config *.source.app[*].destPort 1000
config *.source.app[*].messageLength 1000byte
config *.source.app[*].sendInterval 10s
config *.destination.numApps 1
config *.destination.app[0].typename UdpSink
config *.destination.app[*].localPort 1000
config *.visualizer.mediumVisualizer.signalPropagationAnimationSpeed 500/3e8
config *.visualizer.mediumVisualizer.signalTransmissionAnimationSpeed 50000/3e8
config *.visualizer.mediumVisualizer.displaySignals true
config *.visualizer.mediumVisualizer.displaySignalDepartures true
config *.visualizer.mediumVisualizer.displaySignalArrivals true
config *.*.wlan[*].radio.transmitter.power 5mW
config **.configurator.config "xmldoc(\"configurator.xml\")"
config *.source.wlan[*].**.dataFrameBitrate 54Mbps
config *.destination.wlan[*].**.dataFrameBitrate 54Mbps
config *.relay.wlan[*].**.dataFrameBitrate 24Mbps
config **.arp.typename GlobalArp

scalar MediumActivityMultipleNodesShowcase.radioMedium.propagation "Arrival computation count" 800
scalar MediumActivityMultipleNodesShowcase.radioMedium "transmission count" 397
scalar MediumActivityMultipleNodesShowcase.radioMedium "signal send count" 794
scalar MediumActivityMultipleNodesShowcase.radioMedium "reception computation count" 792
scalar MediumActivityMultipleNodesShowcase.radioMedium "interference computation count" 2778
scalar MediumActivityMultipleNodesShowcase.radioMedium "reception decision computation count" 594
scalar MediumActivityMultipleNodesShowcase.radioMedium "listening decision computation count" 1392
scalar MediumActivityMultipleNodesShowcase.radioMedium "reception cache hit" 84
attr unit %
scalar MediumActivityMultipleNodesShowcase.radioMedium "interference cache hit" 66.666666666667
attr unit %
scalar MediumActivityMultipleNodesShowcase.radioMedium "noise cache hit" 0
attr unit %
scalar MediumActivityMultipleNodesShowcase.radioMedium "snir cache hit" 50
attr unit %
scalar MediumActivityMultipleNodesShowcase.radioMedium "reception decision cache hit" 50
attr unit %
scalar MediumActivityMultipleNodesShowcase.radioMedium "reception result cache hit" 0
attr unit %
scalar MediumActivityMultipleNodesShowcase.source.lo[0].lo rcvdPkFromHl:count 0
attr interpolationmode none
attr recordingmode count
attr source packetReceivedFromUpper
attr title "packets received from higher layer, count"
scalar MediumActivityMultipleNodesShowcase.source.lo[0].lo rcvdPkFromHl:sum(packetBytes) 0
attr interpolationmode none
attr recordingmode sum(packetBytes)
attr source packetReceivedFromUpper
attr title "packets received from higher layer, sum(packetBytes)"
scalar MediumActivityMultipleNodesShowcase.source.lo[0].lo passedUpPk:count 0
attr interpolationmode none
attr recordingmode count
attr source packetSentToUpper
attr title "packets passed to higher layer, count"
scalar MediumActivityMultipleNodesShowcase.source.lo[0].lo passedUpPk:sum(packetBytes) 0
attr interpolationmode none
attr recordingmode sum(packetBytes)
attr source packetSentToUpper
attr title "packets passed to higher layer, sum(packetBytes)"
scalar MediumActivityMultipleNodesShowcase.source.lo[0] packetDropInterfaceDown:count 0
attr interpolationmode none
attr recordingmode count
attr source packetDropReasonIsInterfaceDown(packetDropped)
attr title "packet drops: interface down, count"
scalar MediumActivityMultipleNodesShowcase.source.lo[0] packetDropInterfaceDown:sum(packetBytes) 0
attr interpolationmode none
attr recordingmode sum(packetBytes)
attr source packetDropReasonIsInterfaceDown(packetDropped)
attr title "packet drops: interface down, sum(packetBytes)"
scalar MediumActivityMultipleNodesShowcase.source.lo[0] packetDropNoCarrier:count 0
attr interpolationmode none
attr recordingmode count
attr source packetDropReasonIsNoCarrier(packetDropped)
attr title "packet drops: no carrier, count"
scalar MediumActivityMultipleNodesShowcase.source.lo[0] packetDropNoCarrier:sum(packetBytes) 0
attr interpolationmode none
attr recordingmode sum(packetBytes)
attr source packetDropReasonIsNoCarrier(packetDropped)
attr title "packet drops: no carrier, sum(packetBytes)"
scalar MediumActivityMultipleNodesShowcase.source.wlan[0].mac.dcf.channelAccess.pendingQueue queueLength:last 0
attr autoWarmupFilter false
attr interpolationmode sample-hold
attr recordingmode last
attr source "warmup(atomic(constant0(packetPushEnded) + count(packetPushStarted) - count(packetPulled) - count(packetRemoved) - count(packetDropped)))"
attr title "queue length, last"
attr unit pk
scalar MediumActivityMultipleNodesShowcase.source.wlan[0].mac.dcf.channelAccess.pendingQueue queueLength:max 1
attr autoWarmupFilter false
attr interpolationmode sample-hold
attr recordingmode max
attr source "warmup(atomic(constant0(packetPushEnded) + count(packetPushStarted) - count(packetPulled) - count(packetRemoved) - count(packetDropped)))"
attr title "queue length, max"
attr unit pk
scalar MediumActivityMultipleNodesShowcase.source.wlan[0].mac.dcf.channelAccess.pendingQueue queueLength:timeavg 0
attr autoWarmupFilter false
attr interpolationmode sample-hold
attr recordingmode timeavg
attr source "warmup(atomic(constant0(packetPushEnded) + count(packetPushStarted) - count(packetPulled) - count(packetRemoved) - count(packetDropped)))"
attr title "queue length, timeavg"
attr unit pk
scalar MediumActivityMultipleNodesShowcase.source.wlan[0].mac.dcf.channelAccess.pendingQueue queueBitLength:last 0
attr autoWarmupFilter false
attr interpolationmode sample-hold
attr recordingmode last
attr source "warmup(atomic(constant0(packetPushEnded) + sum(packetLength(packetPushStarted)) - sum(packetLength(packetPulled)) - sum(packetLength(packetRemoved)) - sum(packetLength(packetDropped))))"
attr title "queue bit length, last"
attr unit b
scalar MediumActivityMultipleNodesShowcase.source.wlan[0].mac.dcf.channelAccess.pendingQueue queueBitLength:max 8512
attr autoWarmupFilter false
attr interpolationmode sample-hold
attr recordingmode max
attr source "warmup(atomic(constant0(packetPushEnded) + sum(packetLength(packetPushStarted)) - sum(packetLength(packetPulled)) - sum(packetLength(packetRemoved)) - sum(packetLength(packetDropped))))"
attr title "queue bit length, max"
attr unit b
scalar MediumActivityMultipleNodesShowcase.source.wlan[0].mac.dcf.channelAccess.pendingQueue queueBitLength:timeavg 0
attr autoWarmupFilter false
attr interpolationmode sample-hold
attr recordingmode timeavg
attr source "warmup(atomic(constant0(packetPushEnded) + sum(packetLength(packetPushStarted)) - sum(packetLength(packetPulled)) - sum(packetLength(packetRemoved)) - sum(packetLength(packetDropped))))"
attr title "queue bit length, timeavg"
attr unit b
statistic MediumActivityMultipleNodesShowcase.source.wlan[0].mac.dcf.channelAccess.pendingQueue queueingTime:histogram
field count 100
field mean 0
field stddev 0
field min 0
field max 0
field sum 0
field sqrsum 0
attr interpolationmode none
attr recordingmode histogram
attr source queueingTime(packetPulled)
attr title "queueing times"
attr unit s
bin	-inf	0
bin	-0.5	0
bin	-0.48	0
bin	-0.46	0
bin	-0.44	0
bin	-0.42	0
bin	-0.4	0
bin	-0.38	0
bin	-0.36	0
bin	-0.34	0
bin	-0.32	0
bin	-0.3	0
bin	-0.28	0
bin	-0.26	0
bin	-0.24	0
bin	-0.22	0
bin	-0.2	0
bin	-0.18	0
bin	-0.16	0
bin	-0.14	0
bin	-0.12	0
bin	-0.1	0
bin	-0.08	0
bin	-0.06	0
bin	-0.04	0
bin	-0.02	0
bin	0	100
bin	0.02	0
bin	0.04	0
bin	0.06	0
bin	0.08	0
bin	0.1	0
bin	0.12	0
bin	0.14	0
bin	0.16	0
bin	0.18	0
bin	0.2	0
bin	0.22	0
bin	0.24	0
bin	0.26	0
bin	0.28	0
bin	0.3	0
bin	0.32	0
bin	0.34	0
bin	0.36	0
bin	0.38	0
bin	0.4	0
bin	0.42	0
bin	0.44	0
bin	0.46	0
bin	0.48	0
bin	0.5	0
scalar MediumActivityMultipleNodesShowcase.source.wlan[0].mac.dcf.channelAccess.pendingQueue outgoingPackets:count 100
attr recordingmode count
attr source packetPulled
attr title "outgoing packets, count"
attr unit pk
scalar MediumActivityMultipleNodesShowcase.source.wlan[0].mac.dcf.channelAccess.pendingQueue outgoingPacketLengths:sum 851200
attr interpolationmode none
attr recordingmode sum
attr source packetLength(packetPulled)
attr title "outgoing packet lengths, sum"
attr unit b
statistic MediumActivityMultipleNodesShowcase.source.wlan[0].mac.dcf.channelAccess.pendingQueue outgoingPacketLengths:histogram
field count 100
field mean 8512
field stddev 0
field min 8512
field max 8512
field sum 851200
field sqrsum 7245414400
attr interpolationmode none
attr recordingmode histogram
attr source packetLength(packetPulled)
attr title "outgoing packet lengths"
attr unit b
bin	-inf	0
bin	8511	0
bin	8512	100
bin	8513	0
statistic MediumActivityMultipleNodesShowcase.source.wlan[0].mac.dcf.channelAccess.pendingQueue flowQueueingTime:histogram
field count 0
field mean -nan
field stddev nan
field min nan
field max nan
field sum 0
field sqrsum 0
attr interpolationmode none
attr recordingmode histogram
attr source queueingTime(demuxFlow(packetPulled))
attr title "flow queueing times"
attr unit s
bin	-inf	0
bin	0	0
bin	1	0
scalar MediumActivityMultipleNodesShowcase.source.wlan[0].mac.dcf.channelAccess.pendingQueue incomingPackets:count 100
attr recordingmode count
attr source packetPushStarted
attr title "incoming packets, count"
attr unit pk
scalar MediumActivityMultipleNodesShowcase.source.wlan[0].mac.dcf.channelAccess.pendingQueue incomingPacketLengths:sum 851200
attr interpolationmode none
attr recordingmode sum
attr source packetLength(packetPushStarted)
attr title "incoming packet lengths, sum"
attr unit b
statistic MediumActivityMultipleNodesShowcase.source.wlan[0].mac.dcf.channelAccess.pendingQueue incomingPacketLengths:histogram
field count 100
field mean 8512
field stddev 0
field min 8512
field max 8512
field sum 851200
field sqrsum 7245414400
attr interpolationmode none
attr recordingmode histogram
attr source packetLength(packetPushStarted)
attr title "incoming packet lengths"
attr unit b
bin	-inf	0
bin	8511	0
bin	8512	100
bin	8513	0
scalar MediumActivityMultipleNodesShowcase.source.wlan[0].mac.dcf.channelAccess.pendingQueue droppedPacketsQueueOverflow:count 0
attr interpolationmode none
attr recordingmode count
attr source packetDropReasonIsQueueOverflow(packetDropped)
attr title "dropped packets: queue overflow, count"
attr unit pk
scalar MediumActivityMultipleNodesShowcase.source.wlan[0].mac.dcf.channelAccess.pendingQueue droppedPacketLengthsQueueOverflow:sum 0
attr interpolationmode none
attr recordingmode sum
attr source packetLength(packetDropReasonIsQueueOverflow(packetDropped))
attr title "dropped packet lengths: queue overflow, sum"
attr unit b
statistic MediumActivityMultipleNodesShowcase.source.wlan[0].mac.dcf.channelAccess.inProgressFrames queueingTime:histogram
field count 99
field mean 0.000232109644
field stddev 0
field min 0.000232109644
field max 0.000232109644
field sum 0.022978854756
field sqrsum 5.3336137969429e-06
attr interpolationmode none
attr recordingmode histogram
attr source queueingTime(packetDequeued)
attr title "queueing times"
bin	-inf	0
bin	0	99
bin	0.01	0
bin	0.02	0
bin	0.03	0
bin	0.04	0
bin	0.05	0
bin	0.06	0
bin	0.07	0
bin	0.08	0
bin	0.09	0
bin	0.1	0
bin	0.11	0
bin	0.12	0
bin	0.13	0
bin	0.14	0
bin	0.15	0
bin	0.16	0
bin	0.17	0
bin	0.18	0
bin	0.19	0
bin	0.2	0
bin	0.21	0
bin	0.22	0
bin	0.23	0
bin	0.24	0
bin	0.25	0
bin	0.26	0
bin	0.27	0
bin	0.28	0
bin	0.29	0
bin	0.3	0
bin	0.31	0
bin	0.32	0
bin	0.33	0
bin	0.34	0
bin	0.35	0
bin	0.36	0
bin	0.37	0
bin	0.38	0
bin	0.39	0
bin	0.4	0
bin	0.41	0
bin	0.42	0
bin	0.43	0
bin	0.44	0
bin	0.45	0
bin	0.46	0
bin	0.47	0
bin	0.48	0
bin	0.49	0
bin	0.5	0
bin	0.51	0
scalar MediumActivityMultipleNodesShowcase.source.wlan[0].mac.dcf.channelAccess.inProgressFrames queueLength:max 1
attr autoWarmupFilter false
attr interpolationmode sample-hold
attr recordingmode max
attr source "warmup(count(packetEnqueued) - count(packetDequeued))"
attr title "queue length, max"
scalar MediumActivityMultipleNodesShowcase.source.wlan[0].mac.dcf.channelAccess.inProgressFrames queueLength:timeavg 2.2978854756e-05
attr autoWarmupFilter false
attr interpolationmode sample-hold
attr recordingmode timeavg
attr source "warmup(count(packetEnqueued) - count(packetDequeued))"
attr title "queue length, timeavg"
scalar MediumActivityMultipleNodesShowcase.source.wlan[0].mac.dcf.channelAccess.contention channelAccessGranted:count 100
attr recordingmode count
attr title "channel access granted, count"
scalar MediumActivityMultipleNodesShowcase.source.wlan[0].mac.dcf.channelAccess.contention stateChanged:count 1592
attr enum IDLE,DEFER,IFS_AND_BACKOFF
attr interpolationmode none
attr recordingmode count
attr title "contention state changed, count"
attr type enum
scalar MediumActivityMultipleNodesShowcase.source.wlan[0].mac.dcf.channelAccess channelOwnershipChanged:count 199
attr interpolationmode sample-hold
attr recordingmode count
attr title "channel ownership, count"
scalar MediumActivityMultipleNodesShowcase.source.wlan[0].mac.dcf.originatorMacDataService packetAggregated:count 0
attr recordingmode count
attr title "packets aggregated, count"
scalar MediumActivityMultipleNodesShowcase.source.wlan[0].mac.dcf.originatorMacDataService packetFragmented:count 0
attr recordingmode count
attr title "packets fragmented, count"
scalar MediumActivityMultipleNodesShowcase.source.wlan[0].mac.dcf.recipientMacDataService packetDeaggregated:count 0
attr recordingmode count
attr title "packets deaggregated, count"
scalar MediumActivityMultipleNodesShowcase.source.wlan[0].mac.dcf.recipientMacDataService packetDefragmented:count 0
attr recordingmode count
attr title "packets defragmented, count"
scalar MediumActivityMultipleNodesShowcase.source.wlan[0].mac.dcf.recipientMacDataService packetDropDuplicateDetected:count 0
attr interpolationmode none
attr recordingmode count
attr source packetDropReasonIsDuplicateDetected(packetDropped)
attr title "packet drops: duplicate detected, count"
scalar MediumActivityMultipleNodesShowcase.source.wlan[0].mac.dcf.recipientMacDataService packetDropDuplicateDetected:sum(packetBytes) 0
attr interpolationmode none
attr recordingmode sum(packetBytes)
attr source packetDropReasonIsDuplicateDetected(packetDropped)
attr title "packet drops: duplicate detected, sum(packetBytes)"
scalar MediumActivityMultipleNodesShowcase.source.wlan[0].mac.dcf.recoveryProcedure retryLimitReached:count 0
attr recordingmode count
attr title "retry limit reached, count"
scalar MediumActivityMultipleNodesShowcase.source.wlan[0].mac.dcf frameSequenceFinished:count 99
attr recordingmode count
attr title "finished frame sequences, count"
statistic MediumActivityMultipleNodesShowcase.source.wlan[0].mac.dcf frameSequenceDuration:histogram
field count 99
field mean 0.000232109644
field stddev 0
field min 0.000232109644
field max 0.000232109644
field sum 0.022978854756
field sqrsum 5.3336137969429e-06
attr recordingmode histogram
attr source frameSequenceDuration(frameSequenceFinished)
attr title "frame sequence durations"
bin	-inf	0
bin	0	99
bin	0.01	0
bin	0.02	0
bin	0.03	0
bin	0.04	0
bin	0.05	0
bin	0.06	0
bin	0.07	0
bin	0.08	0
bin	0.09	0
bin	0.1	0
bin	0.11	0
bin	0.12	0
bin	0.13	0
bin	0.14	0
bin	0.15	0
bin	0.16	0
bin	0.17	0
bin	0.18	0
bin	0.19	0
bin	0.2	0
bin	0.21	0
bin	0.22	0
bin	0.23	0
bin	0.24	0
bin	0.25	0
bin	0.26	0
bin	0.27	0
bin	0.28	0
bin	0.29	0
bin	0.3	0
bin	0.31	0
bin	0.32	0
bin	0.33	0
bin	0.34	0
bin	0.35	0
bin	0.36	0
bin	0.37	0
bin	0.38	0
bin	0.39	0
bin	0.4	0
bin	0.41	0
bin	0.42	0
bin	0.43	0
bin	0.44	0
bin	0.45	0
bin	0.46	0
bin	0.47	0
bin	0.48	0
bin	0.49	0
bin	0.5	0
bin	0.51	0
statistic MediumActivityMultipleNodesShowcase.source.wlan[0].mac.dcf frameSequenceNumPackets:histogram
field count 99
field mean 2
field stddev 0
field min 2
field max 2
field sum 198
field sqrsum 396
attr recordingmode histogram
attr source frameSequenceNumPackets(frameSequenceFinished)
attr title "frame sequences: number of packets"
bin	-inf	0
bin	1	0
bin	2	99
bin	3	0
scalar MediumActivityMultipleNodesShowcase.source.wlan[0].mac.dcf packetReceivedFromPeer:count 99
attr interpolationmode none
attr recordingmode count
attr title "packets received, count"
scalar MediumActivityMultipleNodesShowcase.source.wlan[0].mac.dcf packetReceivedFromPeer:sum(packetBytes) 1386
attr interpolationmode none
attr recordingmode sum(packetBytes)
attr title "packets received, sum(packetBytes)"
scalar MediumActivityMultipleNodesShowcase.source.wlan[0].mac.dcf packetReceivedFromPeerUnicast:count 99
attr interpolationmode none
attr recordingmode count
attr source ieee80211Unicast(packetReceivedFromPeer)
attr title "packets received: unicast, count"
scalar MediumActivityMultipleNodesShowcase.source.wlan[0].mac.dcf packetReceivedFromPeerUnicast:sum(packetBytes) 1386
attr interpolationmode none
attr recordingmode sum(packetBytes)
attr source ieee80211Unicast(packetReceivedFromPeer)
attr title "packets received: unicast, sum(packetBytes)"
scalar MediumActivityMultipleNodesShowcase.source.wlan[0].mac.dcf packetReceivedFromPeerMulticast:count 0
attr interpolationmode none
attr recordingmode count
attr source ieee80211Multicast(packetReceivedFromPeer)
attr title "packets received: multicast, count"
scalar MediumActivityMultipleNodesShowcase.source.wlan[0].mac.dcf packetReceivedFromPeerMulticast:sum(packetBytes) 0
attr interpolationmode none
attr recordingmode sum(packetBytes)
attr source ieee80211Multicast(packetReceivedFromPeer)
attr title "packets received: multicast, sum(packetBytes)"
scalar MediumActivityMultipleNodesShowcase.source.wlan[0].mac.dcf packetReceivedFromPeerBroadcast:count 0
attr interpolationmode none
attr recordingmode count
attr source ieee80211Broadcast(packetReceivedFromPeer)
attr title "packets received: broadcast, count"
scalar MediumActivityMultipleNodesShowcase.source.wlan[0].mac.dcf packetReceivedFromPeerBroadcast:sum(packetBytes) 0
attr interpolationmode none
attr recordingmode sum(packetBytes)
attr source ieee80211Broadcast(packetReceivedFromPeer)
attr title "packets received: broadcast, sum(packetBytes)"
scalar MediumActivityMultipleNodesShowcase.source.wlan[0].mac.dcf packetReceivedFromPeerWithRetry:count 0
attr interpolationmode none
attr recordingmode count
attr source ieee80211Retry(packetReceivedFromPeer)
attr title "packets received: with retry, count"
scalar MediumActivityMultipleNodesShowcase.source.wlan[0].mac.dcf packetReceivedFromPeerWithRetry:sum(packetBytes) 0
attr interpolationmode none
attr recordingmode sum(packetBytes)
attr source ieee80211Retry(packetReceivedFromPeer)
attr title "packets received: with retry, sum(packetBytes)"
scalar MediumActivityMultipleNodesShowcase.source.wlan[0].mac.dcf packetReceivedFromPeerWithoutRetry:count 99
attr interpolationmode none
attr recordingmode count
attr source ieee80211NotRetry(packetReceivedFromPeer)
attr title "packets received: without retry, count"
scalar MediumActivityMultipleNodesShowcase.source.wlan[0].mac.dcf packetReceivedFromPeerWithoutRetry:sum(packetBytes) 1386
attr interpolationmode none
attr recordingmode sum(packetBytes)
attr source ieee80211NotRetry(packetReceivedFromPeer)
attr title "packets received: without retry, sum(packetBytes)"
scalar MediumActivityMultipleNodesShowcase.source.wlan[0].mac.dcf packetSentToPeer:count 99
attr interpolationmode none
attr recordingmode count
attr title "packets sent, count"
scalar MediumActivityMultipleNodesShowcase.source.wlan[0].mac.dcf packetSentToPeer:sum(packetBytes) 105336
attr interpolationmode none
attr recordingmode sum(packetBytes)
attr title "packets sent, sum(packetBytes)"
scalar MediumActivityMultipleNodesShowcase.source.wlan[0].mac.dcf packetSentToPeerUnicast:count 99
attr interpolationmode none
attr recordingmode count
attr source ieee80211Unicast(packetSentToPeer)
attr title "packets sent: unicast, count"
scalar MediumActivityMultipleNodesShowcase.source.wlan[0].mac.dcf packetSentToPeerUnicast:sum(packetBytes) 105336
attr interpolationmode none
attr recordingmode sum(packetBytes)
attr source ieee80211Unicast(packetSentToPeer)
attr title "packets sent: unicast, sum(packetBytes)"
scalar MediumActivityMultipleNodesShowcase.source.wlan[0].mac.dcf packetSentToPeerMulticast:count 0
attr interpolationmode none
attr recordingmode count
attr source ieee80211Multicast(packetSentToPeer)
attr title "packets sent: multicast, count"
scalar MediumActivityMultipleNodesShowcase.source.wlan[0].mac.dcf packetSentToPeerMulticast:sum(packetBytes) 0
attr interpolationmode none
attr recordingmode sum(packetBytes)
attr source ieee80211Multicast(packetSentToPeer)
attr title "packets sent: multicast, sum(packetBytes)"
scalar MediumActivityMultipleNodesShowcase.source.wlan[0].mac.dcf packetSentToPeerBroadcast:count 0
attr interpolationmode none
attr recordingmode count
attr source ieee80211Broadcast(packetSentToPeer)
attr title "packets sent: broadcast , count"
scalar MediumActivityMultipleNodesShowcase.source.wlan[0].mac.dcf packetSentToPeerBroadcast:sum(packetBytes) 0
attr interpolationmode none
attr recordingmode sum(packetBytes)
attr source ieee80211Broadcast(packetSentToPeer)
attr title "packets sent: broadcast , sum(packetBytes)"
scalar MediumActivityMultipleNodesShowcase.source.wlan[0].mac.dcf packetSentToPeerWithRetry:count 0
attr interpolationmode none
attr recordingmode count
attr source ieee80211Retry(packetSentToPeer)
attr title "packets sent: with retry, count"
scalar MediumActivityMultipleNodesShowcase.source.wlan[0].mac.dcf packetSentToPeerWithRetry:sum(packetBytes) 0
attr interpolationmode none
attr recordingmode sum(packetBytes)
attr source ieee80211Retry(packetSentToPeer)
attr title "packets sent: with retry, sum(packetBytes)"
scalar MediumActivityMultipleNodesShowcase.source.wlan[0].mac.dcf packetSentToPeerWithoutRetry:count 99
attr interpolationmode none
attr recordingmode count
attr source ieee80211NotRetry(packetSentToPeer)
attr title "packets sent: without retry, count"
scalar MediumActivityMultipleNodesShowcase.source.wlan[0].mac.dcf packetSentToPeerWithoutRetry:sum(packetBytes) 105336
attr interpolationmode none
attr recordingmode sum(packetBytes)
attr source ieee80211NotRetry(packetSentToPeer)
attr title "packets sent: without retry, sum(packetBytes)"
scalar MediumActivityMultipleNodesShowcase.source.wlan[0].mac.dcf packetDrop:count 99
attr interpolationmode none
attr recordingmode count
attr source packetDropped
attr title "packet drops, count"
scalar MediumActivityMultipleNodesShowcase.source.wlan[0].mac.dcf packetDrop:sum(packetBytes) 105336
attr interpolationmode none
attr recordingmode sum(packetBytes)
attr source packetDropped
attr title "packet drops, sum(packetBytes)"
scalar MediumActivityMultipleNodesShowcase.source.wlan[0].mac.dcf packetDropNotAddressedToUs:count 99
attr interpolationmode none
attr recordingmode count
attr source packetDropReasonIsNotAddressedToUs(packetDropped)
attr title "packet drops: not addressed to us, count"
scalar MediumActivityMultipleNodesShowcase.source.wlan[0].mac.dcf packetDropNotAddressedToUs:sum(packetBytes) 105336
attr interpolationmode none
attr recordingmode sum(packetBytes)
attr source packetDropReasonIsNotAddressedToUs(packetDropped)
attr title "packet drops: not addressed to us, sum(packetBytes)"
scalar MediumActivityMultipleNodesShowcase.source.wlan[0].mac.dcf packetDropQueueOverflow:count 0
attr interpolationmode none
attr recordingmode count
attr source packetDropReasonIsQueueOverflow(packetDropped)
attr title "packet drops: queue overflow, count"
scalar MediumActivityMultipleNodesShowcase.source.wlan[0].mac.dcf packetDropQueueOverflow:sum(packetBytes) 0
attr interpolationmode none
attr recordingmode sum(packetBytes)
attr source packetDropReasonIsQueueOverflow(packetDropped)
attr title "packet drops: queue overflow, sum(packetBytes)"
scalar MediumActivityMultipleNodesShowcase.source.wlan[0].mac.dcf packetDropRetryLimitReached:count 0
attr interpolationmode none
attr recordingmode count
attr source packetDropReasonIsRetryLimitReached(packetDropped)
attr title "packet drops: retry limit reached, count"
scalar MediumActivityMultipleNodesShowcase.source.wlan[0].mac.dcf packetDropRetryLimitReached:sum(packetBytes) 0
attr interpolationmode none
attr recordingmode sum(packetBytes)
attr source packetDropReasonIsRetryLimitReached(packetDropped)
attr title "packet drops: retry limit reached, sum(packetBytes)"
scalar MediumActivityMultipleNodesShowcase.source.wlan[0].mac.dcf linkBroken:count 0
attr interpolationmode none
attr recordingmode count
attr title "link breaks, count"
scalar MediumActivityMultipleNodesShowcase.source.wlan[0].mac packetReceivedFromLower:count 198
attr interpolationmode none
attr recordingmode count
attr title "packets received from lower layer, count"
scalar MediumActivityMultipleNodesShowcase.source.wlan[0].mac packetReceivedFromLower:sum(packetBytes) 106722
attr interpolationmode none
attr recordingmode sum(packetBytes)
attr title "packets received from lower layer, sum(packetBytes)"
scalar MediumActivityMultipleNodesShowcase.source.wlan[0].mac packetSentToLower:count 100
attr interpolationmode none
attr recordingmode count
attr title "packets sent to lower layer, count"
scalar MediumActivityMultipleNodesShowcase.source.wlan[0].mac packetSentToLower:sum(packetBytes) 106400
attr interpolationmode none
attr recordingmode sum(packetBytes)
attr title "packets sent to lower layer, sum(packetBytes)"
scalar MediumActivityMultipleNodesShowcase.source.wlan[0].mac packetReceivedFromUpper:count 100
attr interpolationmode none
attr recordingmode count
attr title "packets received from upper layer, count"
scalar MediumActivityMultipleNodesShowcase.source.wlan[0].mac packetReceivedFromUpper:sum(packetBytes) 103600
attr interpolationmode none
attr recordingmode sum(packetBytes)
attr title "packets received from upper layer, sum(packetBytes)"
scalar MediumActivityMultipleNodesShowcase.source.wlan[0].mac packetSentToUpper:count 0
attr interpolationmode none
attr recordingmode count
attr title "packets sent to upper layer, count"
scalar MediumActivityMultipleNodesShowcase.source.wlan[0].mac packetSentToUpper:sum(packetBytes) 0
attr interpolationmode none
attr recordingmode sum(packetBytes)
attr title "packets sent to upper layer, sum(packetBytes)"
scalar MediumActivityMultipleNodesShowcase.source.wlan[0].mac packetDrop:count 99
attr interpolationmode none
attr recordingmode count
attr source packetDropped
attr title "packet drops, count"
scalar MediumActivityMultipleNodesShowcase.source.wlan[0].mac packetDrop:sum(packetBytes) 105336
attr interpolationmode none
attr recordingmode sum(packetBytes)
attr source packetDropped
attr title "packet drops, sum(packetBytes)"
scalar MediumActivityMultipleNodesShowcase.source.wlan[0].mac packetDropIncorrectlyReceived:count 0
attr interpolationmode none
attr recordingmode count
attr source packetDropReasonIsIncorrectlyReceived(packetDropped)
attr title "packet drops: incorrectly received, count"
scalar MediumActivityMultipleNodesShowcase.source.wlan[0].mac packetDropIncorrectlyReceived:sum(packetBytes) 0
attr interpolationmode none
attr recordingmode sum(packetBytes)
attr source packetDropReasonIsIncorrectlyReceived(packetDropped)
attr title "packet drops: incorrectly received, sum(packetBytes)"
scalar MediumActivityMultipleNodesShowcase.source.wlan[0].mac packetDropNotAddressedToUs:count 99
attr interpolationmode none
attr recordingmode count
attr source packetDropReasonIsNotAddressedToUs(packetDropped)
attr title "packet drops: not addressed to us, count"
scalar MediumActivityMultipleNodesShowcase.source.wlan[0].mac packetDropNotAddressedToUs:sum(packetBytes) 105336
attr interpolationmode none
attr recordingmode sum(packetBytes)
attr source packetDropReasonIsNotAddressedToUs(packetDropped)
attr title "packet drops: not addressed to us, sum(packetBytes)"
scalar MediumActivityMultipleNodesShowcase.source.wlan[0].mac packetDropQueueOverflow:count 0
attr interpolationmode none
attr recordingmode count
attr source packetDropReasonIsQueueOverflow(packetDropped)
attr title "packet drops: queue overflow, count"
scalar MediumActivityMultipleNodesShowcase.source.wlan[0].mac packetDropQueueOverflow:sum(packetBytes) 0
attr interpolationmode none
attr recordingmode sum(packetBytes)
attr source packetDropReasonIsQueueOverflow(packetDropped)
attr title "packet drops: queue overflow, sum(packetBytes)"
scalar MediumActivityMultipleNodesShowcase.source.wlan[0].mac packetDropRetryLimitReached:count 0
attr interpolationmode none
attr recordingmode count
attr source packetDropReasonIsRetryLimitReached(packetDropped)
attr title "packet drops: retry limit reached, count"
scalar MediumActivityMultipleNodesShowcase.source.wlan[0].mac packetDropRetryLimitReached:sum(packetBytes) 0
attr interpolationmode none
attr recordingmode sum(packetBytes)
attr source packetDropReasonIsRetryLimitReached(packetDropped)
attr title "packet drops: retry limit reached, sum(packetBytes)"
scalar MediumActivityMultipleNodesShowcase.source.wlan[0].mac packetDropDuplicateDetected:count 0
attr interpolationmode none
attr recordingmode count
attr source packetDropReasonIsDuplicateDetected(packetDropped)
attr title "packet drops: duplicate detected, count"
scalar MediumActivityMultipleNodesShowcase.source.wlan[0].mac packetDropDuplicateDetected:sum(packetBytes) 0
attr interpolationmode none
attr recordingmode sum(packetBytes)
attr source packetDropReasonIsDuplicateDetected(packetDropped)
attr title "packet drops: duplicate detected, sum(packetBytes)"
scalar MediumActivityMultipleNodesShowcase.source.wlan[0].mac packetDropOther:count 0
attr interpolationmode none
attr recordingmode count
attr source packetDropReasonIsOther(packetDropped)
attr title "packet drops: other, count"
scalar MediumActivityMultipleNodesShowcase.source.wlan[0].mac packetDropOther:sum(packetBytes) 0
attr interpolationmode none
attr recordingmode sum(packetBytes)
attr source packetDropReasonIsOther(packetDropped)
attr title "packet drops: other, sum(packetBytes)"
scalar MediumActivityMultipleNodesShowcase.source.wlan[0].mac linkBroken:count 0
attr interpolationmode none
attr recordingmode count
attr title "link breaks, count"
statistic MediumActivityMultipleNodesShowcase.source.wlan[0].radio radioChannel:histogram
field count 1
field mean 0
field stddev nan
field min 0
field max 0
field sum 0
field sqrsum 0
attr interpolationmode sample-hold
attr recordingmode histogram
attr source radioChannelChanged
attr title "Radio channel"
bin	-inf	0
bin	-0.5	0
bin	-0.48	0
bin	-0.46	0
bin	-0.44	0
bin	-0.42	0
bin	-0.4	0
bin	-0.38	0
bin	-0.36	0
bin	-0.34	0
bin	-0.32	0
bin	-0.3	0
bin	-0.28	0
bin	-0.26	0
bin	-0.24	0
bin	-0.22	0
bin	-0.2	0
bin	-0.18	0
bin	-0.16	0
bin	-0.14	0
bin	-0.12	0
bin	-0.1	0
bin	-0.08	0
bin	-0.06	0
bin	-0.04	0
bin	-0.02	0
bin	0	1
bin	0.02	0
bin	0.04	0
bin	0.06	0
bin	0.08	0
bin	0.1	0
bin	0.12	0
bin	0.14	0
bin	0.16	0
bin	0.18	0
bin	0.2	0
bin	0.22	0
bin	0.24	0
bin	0.26	0
bin	0.28	0
bin	0.3	0
bin	0.32	0
bin	0.34	0
bin	0.36	0
bin	0.38	0
bin	0.4	0
bin	0.42	0
bin	0.44	0
bin	0.46	0
bin	0.48	0
bin	0.5	0
scalar MediumActivityMultipleNodesShowcase.source.wlan[0].radio radioMode:count 202
attr interpolationmode sample-hold
attr recordingmode count
attr source radioModeChanged
attr title "Radio mode, count"
scalar MediumActivityMultipleNodesShowcase.source.wlan[0].radio receptionState:count 596
attr interpolationmode sample-hold
attr recordingmode count
attr source receptionStateChanged
attr title "Radio reception state, count"
scalar MediumActivityMultipleNodesShowcase.source.wlan[0].radio transmissionState:count 398
attr interpolationmode sample-hold
attr recordingmode count
attr source transmissionStateChanged
attr title "Radio transmission state, count"
statistic MediumActivityMultipleNodesShowcase.source.wlan[0].radio minSnir:histogram
field count 198
field mean 489.14438802596
field stddev 0
field min 489.14438802596
field max 489.14438802596
field sum 96850.588829141
field sqrsum 47373922.002785
attr recordingmode histogram
attr source minimumSnir(packetSentToUpper)
attr title "Min SNIR"
bin	-inf	0
bin	488.64	0
bin	488.66	0
bin	488.68	0
bin	488.7	0
bin	488.72	0
bin	488.74	0
bin	488.76	0
bin	488.78	0
bin	488.8	0
bin	488.82	0
bin	488.84	0
bin	488.86	0
bin	488.88	0
bin	488.9	0
bin	488.92	0
bin	488.94	0
bin	488.96	0
bin	488.98	0
bin	489	0
bin	489.02	0
bin	489.04	0
bin	489.06	0
bin	489.08	0
bin	489.1	0
bin	489.12	0
bin	489.14	198
bin	489.16	0
bin	489.18	0
bin	489.2	0
bin	489.22	0
bin	489.24	0
bin	489.26	0
bin	489.28	0
bin	489.3	0
bin	489.32	0
bin	489.34	0
bin	489.36	0
bin	489.38	0
bin	489.4	0
bin	489.42	0
bin	489.44	0
bin	489.46	0
bin	489.48	0
bin	489.5	0
bin	489.52	0
bin	489.54	0
bin	489.56	0
bin	489.58	0
bin	489.6	0
bin	489.62	0
bin	489.64	0
bin	489.66	0
statistic MediumActivityMultipleNodesShowcase.source.wlan[0].radio packetErrorRate:histogram
field count 198
field mean 0
field stddev 0
field min 0
field max 0
field sum 0
field sqrsum 0
attr recordingmode histogram
attr source packetErrorRate(packetSentToUpper)
attr title "Packet error rate"
bin	-inf	0
bin	-0.5	0
bin	-0.48	0
bin	-0.46	0
bin	-0.44	0
bin	-0.42	0
bin	-0.4	0
bin	-0.38	0
bin	-0.36	0
bin	-0.34	0
bin	-0.32	0
bin	-0.3	0
bin	-0.28	0
bin	-0.26	0
bin	-0.24	0
bin	-0.22	0
bin	-0.2	0
bin	-0.18	0
bin	-0.16	0
bin	-0.14	0
bin	-0.12	0
bin	-0.1	0
bin	-0.08	0
bin	-0.06	0
bin	-0.04	0
bin	-0.02	0
bin	0	198
bin	0.02	0
bin	0.04	0
bin	0.06	0
bin	0.08	0
bin	0.1	0
bin	0.12	0
bin	0.14	0
bin	0.16	0
bin	0.18	0
bin	0.2	0
bin	0.22	0
bin	0.24	0
bin	0.26	0
bin	0.28	0
bin	0.3	0
bin	0.32	0
bin	0.34	0
bin	0.36	0
bin	0.38	0
bin	0.4	0
bin	0.42	0
bin	0.44	0
bin	0.46	0
bin	0.48	0
bin	0.5	0
statistic MediumActivityMultipleNodesShowcase.source.wlan[0].radio bitErrorRate:histogram
field count 0
field mean -nan
field stddev nan
field min nan
field max nan
field sum 0
field sqrsum 0
attr recordingmode histogram
attr source bitErrorRate(packetSentToUpper)
attr title "Bit error rate"
bin	-inf	0
bin	0	0
bin	1	0
statistic MediumActivityMultipleNodesShowcase.source.wlan[0].radio symbolErrorRate:histogram
field count 0
field mean -nan
field stddev nan
field min nan
field max nan
field sum 0
field sqrsum 0
attr recordingmode histogram
attr source symbolErrorRate(packetSentToUpper)
attr title "Symbol error rate"
bin	-inf	0
bin	0	0
bin	1	0
scalar MediumActivityMultipleNodesShowcase.source.wlan[0] packetDropInterfaceDown:count 0
attr interpolationmode none
attr recordingmode count
attr source packetDropReasonIsInterfaceDown(packetDropped)
attr title "packet drops: interface down, count"
scalar MediumActivityMultipleNodesShowcase.source.wlan[0] packetDropInterfaceDown:sum(packetBytes) 0
attr interpolationmode none
attr recordingmode sum(packetBytes)
attr source packetDropReasonIsInterfaceDown(packetDropped)
attr title "packet drops: interface down, sum(packetBytes)"
scalar MediumActivityMultipleNodesShowcase.source.wlan[0] packetDropNoCarrier:count 0
attr interpolationmode none
attr recordingmode count
attr source packetDropReasonIsNoCarrier(packetDropped)
attr title "packet drops: no carrier, count"
scalar MediumActivityMultipleNodesShowcase.source.wlan[0] packetDropNoCarrier:sum(packetBytes) 0
attr interpolationmode none
attr recordingmode sum(packetBytes)
attr source packetDropReasonIsNoCarrier(packetDropped)
attr title "packet drops: no carrier, sum(packetBytes)"
scalar MediumActivityMultipleNodesShowcase.source.ipv4.ip packetDropAddressResolutionFailed:count 0
attr interpolationmode none
attr recordingmode count
attr source packetDropReasonIsAddressResolutionFailed(packetDropped)
attr title "packet drop: address resolution failed, count"
scalar MediumActivityMultipleNodesShowcase.source.ipv4.ip packetDropAddressResolutionFailed:sum(packetBytes) 0
attr interpolationmode none
attr recordingmode sum(packetBytes)
attr source packetDropReasonIsAddressResolutionFailed(packetDropped)
attr title "packet drop: address resolution failed, sum(packetBytes)"
scalar MediumActivityMultipleNodesShowcase.source.ipv4.ip packetDropHopLimitReached:count 0
attr interpolationmode none
attr recordingmode count
attr source packetDropReasonIsHopLimitReached(packetDropped)
attr title "packet drop: hop limit reached, count"
scalar MediumActivityMultipleNodesShowcase.source.ipv4.ip packetDropHopLimitReached:sum(packetBytes) 0
attr interpolationmode none
attr recordingmode sum(packetBytes)
attr source packetDropReasonIsHopLimitReached(packetDropped)
attr title "packet drop: hop limit reached, sum(packetBytes)"
scalar MediumActivityMultipleNodesShowcase.source.ipv4.ip packetDropForwardingDisabled:count 0
attr interpolationmode none
attr recordingmode count
attr source packetDropReasonIsForwardingDisabled(packetDropped)
attr title "packet drop: forwarding disabled, count"
scalar MediumActivityMultipleNodesShowcase.source.ipv4.ip packetDropForwardingDisabled:sum(packetBytes) 0
attr interpolationmode none
attr recordingmode sum(packetBytes)
attr source packetDropReasonIsForwardingDisabled(packetDropped)
attr title "packet drop: forwarding disabled, sum(packetBytes)"
scalar MediumActivityMultipleNodesShowcase.source.ipv4.ip packetDropLifetimeExpired:count 0
attr interpolationmode none
attr recordingmode count
attr source packetDropReasonIsLifetimeExpired(packetDropped)
attr title "packet drop: lifetime expired, count"
scalar MediumActivityMultipleNodesShowcase.source.ipv4.ip packetDropLifetimeExpired:sum(packetBytes) 0
attr interpolationmode none
attr recordingmode sum(packetBytes)
attr source packetDropReasonIsLifetimeExpired(packetDropped)
attr title "packet drop: lifetime expired, sum(packetBytes)"
scalar MediumActivityMultipleNodesShowcase.source.ipv4.ip packetDropNoInterfaceFound:count 0
attr interpolationmode none
attr recordingmode count
attr source packetDropReasonIsNoInterfaceFound(packetDropped)
attr title "packet drop: no interface found, count"
scalar MediumActivityMultipleNodesShowcase.source.ipv4.ip packetDropNoInterfaceFound:sum(packetBytes) 0
attr interpolationmode none
attr recordingmode sum(packetBytes)
attr source packetDropReasonIsNoInterfaceFound(packetDropped)
attr title "packet drop: no interface found, sum(packetBytes)"
scalar MediumActivityMultipleNodesShowcase.source.ipv4.ip packetDropNoRouteFound:count 0
attr interpolationmode none
attr recordingmode count
attr source packetDropReasonIsNoRouteFound(packetDropped)
attr title "packet drop: no route found, count"
scalar MediumActivityMultipleNodesShowcase.source.ipv4.ip packetDropNoRouteFound:sum(packetBytes) 0
attr interpolationmode none
attr recordingmode sum(packetBytes)
attr source packetDropReasonIsNoRouteFound(packetDropped)
attr title "packet drop: no route found, sum(packetBytes)"
scalar MediumActivityMultipleNodesShowcase.source.ipv4.ip packetDropUndefined:count 0
attr interpolationmode none
attr recordingmode count
attr source packetDropReasonIsUndefined(packetDropped)
attr title "packet drop: undefined, count"
scalar MediumActivityMultipleNodesShowcase.source.ipv4.ip packetDropUndefined:sum(packetBytes) 0
attr interpolationmode none
attr recordingmode sum(packetBytes)
attr source packetDropReasonIsUndefined(packetDropped)
attr title "packet drop: undefined, sum(packetBytes)"
scalar MediumActivityMultipleNodesShowcase.source.udp packetReceived:count 0
attr interpolationmode none
attr recordingmode count
attr source packetReceived
attr title "packets received, count"
scalar MediumActivityMultipleNodesShowcase.source.udp packetReceived:sum(packetBytes) 0
attr interpolationmode none
attr recordingmode sum(packetBytes)
attr source packetReceived
attr title "packets received, sum(packetBytes)"
scalar MediumActivityMultipleNodesShowcase.source.udp packetSent:count 100
attr interpolationmode none
attr recordingmode count
attr source packetSent
attr title "packets sent, count"
scalar MediumActivityMultipleNodesShowcase.source.udp packetSent:sum(packetBytes) 100800
attr interpolationmode none
attr recordingmode sum(packetBytes)
attr source packetSent
attr title "packets sent, sum(packetBytes)"
scalar MediumActivityMultipleNodesShowcase.source.udp passedUpPk:count 0
attr interpolationmode none
attr recordingmode count
attr source packetSentToUpper
attr title "packets passed up, count"
scalar MediumActivityMultipleNodesShowcase.source.udp droppedPkWrongPort:count 0
attr interpolationmode none
attr recordingmode count
attr source packetDropReasonIsNoPortFound(packetDropped)
attr title "packets dropped (wrong port), count"
scalar MediumActivityMultipleNodesShowcase.source.udp droppedPkBadChecksum:count 0
attr interpolationmode none
attr recordingmode count
attr source packetDropReasonIsIncorrectlyReceived(packetDropped)
attr title "packets dropped (checksum error), count"
scalar MediumActivityMultipleNodesShowcase.source.app[0] "packets sent" 100
scalar MediumActivityMultipleNodesShowcase.source.app[0] "packets received" 0
scalar MediumActivityMultipleNodesShowcase.source.app[0] packetReceived:count 0
attr interpolationmode none
attr recordingmode count
attr source packetReceived
attr title "packets received, count"
scalar MediumActivityMultipleNodesShowcase.source.app[0] packetReceived:sum(packetBytes) 0
attr interpolationmode none
attr recordingmode sum(packetBytes)
attr source packetReceived
attr title "packets received, sum(packetBytes)"
statistic MediumActivityMultipleNodesShowcase.source.app[0] rcvdPkLifetime:stats
field count 0
field mean -nan
field stddev nan
field min nan
field max nan
field sum 0
field sqrsum 0
attr interpolationmode none
attr recordingmode stats
attr source dataAge(packetReceived)
attr title "received packet lifetime"
attr unit s
scalar MediumActivityMultipleNodesShowcase.source.app[0] packetSent:count 100
attr interpolationmode none
attr recordingmode count
attr source packetSent
attr title "packets sent, count"
scalar MediumActivityMultipleNodesShowcase.source.app[0] packetSent:sum(packetBytes) 100000
attr interpolationmode none
attr recordingmode sum(packetBytes)
attr source packetSent
attr title "packets sent, sum(packetBytes)"
scalar MediumActivityMultipleNodesShowcase.relay.lo[0].lo rcvdPkFromHl:count 0
attr interpolationmode none
attr recordingmode count
attr source packetReceivedFromUpper
attr title "packets received from higher layer, count"
scalar MediumActivityMultipleNodesShowcase.relay.lo[0].lo rcvdPkFromHl:sum(packetBytes) 0
attr interpolationmode none
attr recordingmode sum(packetBytes)
attr source packetReceivedFromUpper
attr title "packets received from higher layer, sum(packetBytes)"
scalar MediumActivityMultipleNodesShowcase.relay.lo[0].lo passedUpPk:count 0
attr interpolationmode none
attr recordingmode count
attr source packetSentToUpper
attr title "packets passed to higher layer, count"
scalar MediumActivityMultipleNodesShowcase.relay.lo[0].lo passedUpPk:sum(packetBytes) 0
attr interpolationmode none
attr recordingmode sum(packetBytes)
attr source packetSentToUpper
attr title "packets passed to higher layer, sum(packetBytes)"
scalar MediumActivityMultipleNodesShowcase.relay.lo[0] packetDropInterfaceDown:count 0
attr interpolationmode none
attr recordingmode count
attr source packetDropReasonIsInterfaceDown(packetDropped)
attr title "packet drops: interface down, count"
scalar MediumActivityMultipleNodesShowcase.relay.lo[0] packetDropInterfaceDown:sum(packetBytes) 0
attr interpolationmode none
attr recordingmode sum(packetBytes)
attr source packetDropReasonIsInterfaceDown(packetDropped)
attr title "packet drops: interface down, sum(packetBytes)"
scalar MediumActivityMultipleNodesShowcase.relay.lo[0] packetDropNoCarrier:count 0
attr interpolationmode none
attr recordingmode count
attr source packetDropReasonIsNoCarrier(packetDropped)
attr title "packet drops: no carrier, count"
scalar MediumActivityMultipleNodesShowcase.relay.lo[0] packetDropNoCarrier:sum(packetBytes) 0
attr interpolationmode none
attr recordingmode sum(packetBytes)
attr source packetDropReasonIsNoCarrier(packetDropped)
attr title "packet drops: no carrier, sum(packetBytes)"
scalar MediumActivityMultipleNodesShowcase.relay.wlan[0].mac.dcf.channelAccess.pendingQueue queueLength:last 0
attr autoWarmupFilter false
attr interpolationmode sample-hold
attr recordingmode last
attr source "warmup(atomic(constant0(packetPushEnded) + count(packetPushStarted) - count(packetPulled) - count(packetRemoved) - count(packetDropped)))"
attr title "queue length, last"
attr unit pk
scalar MediumActivityMultipleNodesShowcase.relay.wlan[0].mac.dcf.channelAccess.pendingQueue queueLength:max 1
attr autoWarmupFilter false
attr interpolationmode sample-hold
attr recordingmode max
attr source "warmup(atomic(constant0(packetPushEnded) + count(packetPushStarted) - count(packetPulled) - count(packetRemoved) - count(packetDropped)))"
attr title "queue length, max"
attr unit pk
scalar MediumActivityMultipleNodesShowcase.relay.wlan[0].mac.dcf.channelAccess.pendingQueue queueLength:timeavg 3.9226e-05
attr autoWarmupFilter false
attr interpolationmode sample-hold
attr recordingmode timeavg
attr source "warmup(atomic(constant0(packetPushEnded) + count(packetPushStarted) - count(packetPulled) - count(packetRemoved) - count(packetDropped)))"
attr title "queue length, timeavg"
attr unit pk
scalar MediumActivityMultipleNodesShowcase.relay.wlan[0].mac.dcf.channelAccess.pendingQueue queueBitLength:last 0
attr autoWarmupFilter false
attr interpolationmode sample-hold
attr recordingmode last
attr source "warmup(atomic(constant0(packetPushEnded) + sum(packetLength(packetPushStarted)) - sum(packetLength(packetPulled)) - sum(packetLength(packetRemoved)) - sum(packetLength(packetDropped))))"
attr title "queue bit length, last"
attr unit b
scalar MediumActivityMultipleNodesShowcase.relay.wlan[0].mac.dcf.channelAccess.pendingQueue queueBitLength:max 8512
attr autoWarmupFilter false
attr interpolationmode sample-hold
attr recordingmode max
attr source "warmup(atomic(constant0(packetPushEnded) + sum(packetLength(packetPushStarted)) - sum(packetLength(packetPulled)) - sum(packetLength(packetRemoved)) - sum(packetLength(packetDropped))))"
attr title "queue bit length, max"
attr unit b
scalar MediumActivityMultipleNodesShowcase.relay.wlan[0].mac.dcf.channelAccess.pendingQueue queueBitLength:timeavg 0.333891712
attr autoWarmupFilter false
attr interpolationmode sample-hold
attr recordingmode timeavg
attr source "warmup(atomic(constant0(packetPushEnded) + sum(packetLength(packetPushStarted)) - sum(packetLength(packetPulled)) - sum(packetLength(packetRemoved)) - sum(packetLength(packetDropped))))"
attr title "queue bit length, timeavg"
attr unit b
statistic MediumActivityMultipleNodesShowcase.relay.wlan[0].mac.dcf.channelAccess.pendingQueue queueingTime:histogram
field count 99
field mean 0.00039622222222222
field stddev 0.00018926040561561
field min 9.4e-05
field max 0.000714
field sum 0.039226
field sqrsum 1.9052524e-05
attr interpolationmode none
attr recordingmode histogram
attr source queueingTime(packetPulled)
attr title "queueing times"
attr unit s
bin	-inf	0
bin	0	0
bin	1e-05	0
bin	2e-05	0
bin	3e-05	0
bin	4e-05	0
bin	5e-05	0
bin	6e-05	0
bin	7e-05	0
bin	8e-05	0
bin	9e-05	4
bin	0.0001	0
bin	0.00011	2
bin	0.00012	0
bin	0.00013	4
bin	0.00014	0
bin	0.00015	5
bin	0.00016	0
bin	0.00017	3
bin	0.00018	0
bin	0.00019	2
bin	0.0002	0
bin	0.00021	4
bin	0.00022	0
bin	0.00023	0
bin	0.00024	0
bin	0.00025	6
bin	0.00026	0
bin	0.00027	4
bin	0.00028	0
bin	0.00029	2
bin	0.0003	0
bin	0.00031	4
bin	0.00032	0
bin	0.00033	0
bin	0.00034	0
bin	0.00035	6
bin	0.00036	0
bin	0.00037	4
bin	0.00038	0
bin	0.00039	5
bin	0.0004	0
bin	0.00041	1
bin	0.00042	0
bin	0.00043	1
bin	0.00044	0
bin	0.00045	3
bin	0.00046	0
bin	0.00047	3
bin	0.00048	0
bin	0.00049	2
bin	0.0005	0
bin	0.00051	5
bin	0.00052	0
bin	0.00053	1
bin	0.00054	0
bin	0.00055	4
bin	0.00056	0
bin	0.00057	3
bin	0.00058	0
bin	0.00059	3
bin	0.0006	0
bin	0.00061	2
bin	0.00062	0
bin	0.00063	3
bin	0.00064	0
bin	0.00065	1
bin	0.00066	0
bin	0.00067	7
bin	0.00068	0
bin	0.00069	1
bin	0.0007	0
bin	0.00071	4
bin	0.00072	0
bin	0.00073	0
bin	0.00074	0
bin	0.00075	0
bin	0.00076	0
bin	0.00077	0
bin	0.00078	0
bin	0.00079	0
bin	0.0008	0
bin	0.00081	0
bin	0.00082	0
bin	0.00083	0
bin	0.00084	0
bin	0.00085	0
bin	0.00086	0
bin	0.00087	0
scalar MediumActivityMultipleNodesShowcase.relay.wlan[0].mac.dcf.channelAccess.pendingQueue outgoingPackets:count 99
attr recordingmode count
attr source packetPulled
attr title "outgoing packets, count"
attr unit pk
scalar MediumActivityMultipleNodesShowcase.relay.wlan[0].mac.dcf.channelAccess.pendingQueue outgoingPacketLengths:sum 842688
attr interpolationmode none
attr recordingmode sum
attr source packetLength(packetPulled)
attr title "outgoing packet lengths, sum"
attr unit b
statistic MediumActivityMultipleNodesShowcase.relay.wlan[0].mac.dcf.channelAccess.pendingQueue outgoingPacketLengths:histogram
field count 99
field mean 8512
field stddev 0
field min 8512
field max 8512
field sum 842688
field sqrsum 7172960256
attr interpolationmode none
attr recordingmode histogram
attr source packetLength(packetPulled)
attr title "outgoing packet lengths"
attr unit b
bin	-inf	0
bin	8511	0
bin	8512	99
bin	8513	0
statistic MediumActivityMultipleNodesShowcase.relay.wlan[0].mac.dcf.channelAccess.pendingQueue flowQueueingTime:histogram
field count 0
field mean -nan
field stddev nan
field min nan
field max nan
field sum 0
field sqrsum 0
attr interpolationmode none
attr recordingmode histogram
attr source queueingTime(demuxFlow(packetPulled))
attr title "flow queueing times"
attr unit s
bin	-inf	0
bin	0	0
bin	1	0
scalar MediumActivityMultipleNodesShowcase.relay.wlan[0].mac.dcf.channelAccess.pendingQueue incomingPackets:count 99
attr recordingmode count
attr source packetPushStarted
attr title "incoming packets, count"
attr unit pk
scalar MediumActivityMultipleNodesShowcase.relay.wlan[0].mac.dcf.channelAccess.pendingQueue incomingPacketLengths:sum 842688
attr interpolationmode none
attr recordingmode sum
attr source packetLength(packetPushStarted)
attr title "incoming packet lengths, sum"
attr unit b
statistic MediumActivityMultipleNodesShowcase.relay.wlan[0].mac.dcf.channelAccess.pendingQueue incomingPacketLengths:histogram
field count 99
field mean 8512
field stddev 0
field min 8512
field max 8512
field sum 842688
field sqrsum 7172960256
attr interpolationmode none
attr recordingmode histogram
attr source packetLength(packetPushStarted)
attr title "incoming packet lengths"
attr unit b
bin	-inf	0
bin	8511	0
bin	8512	99
bin	8513	0
scalar MediumActivityMultipleNodesShowcase.relay.wlan[0].mac.dcf.channelAccess.pendingQueue droppedPacketsQueueOverflow:count 0
attr interpolationmode none
attr recordingmode count
attr source packetDropReasonIsQueueOverflow(packetDropped)
attr title "dropped packets: queue overflow, count"
attr unit pk
scalar MediumActivityMultipleNodesShowcase.relay.wlan[0].mac.dcf.channelAccess.pendingQueue droppedPacketLengthsQueueOverflow:sum 0
attr interpolationmode none
attr recordingmode sum
attr source packetLength(packetDropReasonIsQueueOverflow(packetDropped))
attr title "dropped packet lengths: queue overflow, sum"
attr unit b
statistic MediumActivityMultipleNodesShowcase.relay.wlan[0].mac.dcf.channelAccess.inProgressFrames queueingTime:histogram
field count 99
field mean 0.000428109644
field stddev 0
field min 0.000428109644
field max 0.000428109644
field sum 0.042382854756
field sqrsum 1.8144508861295e-05
attr interpolationmode none
attr recordingmode histogram
attr source queueingTime(packetDequeued)
attr title "queueing times"
bin	-inf	0
bin	0	99
bin	0.01	0
bin	0.02	0
bin	0.03	0
bin	0.04	0
bin	0.05	0
bin	0.06	0
bin	0.07	0
bin	0.08	0
bin	0.09	0
bin	0.1	0
bin	0.11	0
bin	0.12	0
bin	0.13	0
bin	0.14	0
bin	0.15	0
bin	0.16	0
bin	0.17	0
bin	0.18	0
bin	0.19	0
bin	0.2	0
bin	0.21	0
bin	0.22	0
bin	0.23	0
bin	0.24	0
bin	0.25	0
bin	0.26	0
bin	0.27	0
bin	0.28	0
bin	0.29	0
bin	0.3	0
bin	0.31	0
bin	0.32	0
bin	0.33	0
bin	0.34	0
bin	0.35	0
bin	0.36	0
bin	0.37	0
bin	0.38	0
bin	0.39	0
bin	0.4	0
bin	0.41	0
bin	0.42	0
bin	0.43	0
bin	0.44	0
bin	0.45	0
bin	0.46	0
bin	0.47	0
bin	0.48	0
bin	0.49	0
bin	0.5	0
bin	0.51	0
scalar MediumActivityMultipleNodesShowcase.relay.wlan[0].mac.dcf.channelAccess.inProgressFrames queueLength:max 1
attr autoWarmupFilter false
attr interpolationmode sample-hold
attr recordingmode max
attr source "warmup(count(packetEnqueued) - count(packetDequeued))"
attr title "queue length, max"
scalar MediumActivityMultipleNodesShowcase.relay.wlan[0].mac.dcf.channelAccess.inProgressFrames queueLength:timeavg 4.2382854756e-05
attr autoWarmupFilter false
attr interpolationmode sample-hold
attr recordingmode timeavg
attr source "warmup(count(packetEnqueued) - count(packetDequeued))"
attr title "queue length, timeavg"
scalar MediumActivityMultipleNodesShowcase.relay.wlan[0].mac.dcf.channelAccess.contention channelAccessGranted:count 99
attr recordingmode count
attr title "channel access granted, count"
scalar MediumActivityMultipleNodesShowcase.relay.wlan[0].mac.dcf.channelAccess.contention stateChanged:count 1586
attr enum IDLE,DEFER,IFS_AND_BACKOFF
attr interpolationmode none
attr recordingmode count
attr title "contention state changed, count"
attr type enum
scalar MediumActivityMultipleNodesShowcase.relay.wlan[0].mac.dcf.channelAccess channelOwnershipChanged:count 198
attr interpolationmode sample-hold
attr recordingmode count
attr title "channel ownership, count"
scalar MediumActivityMultipleNodesShowcase.relay.wlan[0].mac.dcf.originatorMacDataService packetAggregated:count 0
attr recordingmode count
attr title "packets aggregated, count"
scalar MediumActivityMultipleNodesShowcase.relay.wlan[0].mac.dcf.originatorMacDataService packetFragmented:count 0
attr recordingmode count
attr title "packets fragmented, count"
scalar MediumActivityMultipleNodesShowcase.relay.wlan[0].mac.dcf.recipientMacDataService packetDeaggregated:count 0
attr recordingmode count
attr title "packets deaggregated, count"
scalar MediumActivityMultipleNodesShowcase.relay.wlan[0].mac.dcf.recipientMacDataService packetDefragmented:count 99
attr recordingmode count
attr title "packets defragmented, count"
scalar MediumActivityMultipleNodesShowcase.relay.wlan[0].mac.dcf.recipientMacDataService packetDropDuplicateDetected:count 0
attr interpolationmode none
attr recordingmode count
attr source packetDropReasonIsDuplicateDetected(packetDropped)
attr title "packet drops: duplicate detected, count"
scalar MediumActivityMultipleNodesShowcase.relay.wlan[0].mac.dcf.recipientMacDataService packetDropDuplicateDetected:sum(packetBytes) 0
attr interpolationmode none
attr recordingmode sum(packetBytes)
attr source packetDropReasonIsDuplicateDetected(packetDropped)
attr title "packet drops: duplicate detected, sum(packetBytes)"
scalar MediumActivityMultipleNodesShowcase.relay.wlan[0].mac.dcf.recoveryProcedure retryLimitReached:count 0
attr recordingmode count
attr title "retry limit reached, count"
scalar MediumActivityMultipleNodesShowcase.relay.wlan[0].mac.dcf frameSequenceFinished:count 99
attr recordingmode count
attr title "finished frame sequences, count"
statistic MediumActivityMultipleNodesShowcase.relay.wlan[0].mac.dcf frameSequenceDuration:histogram
field count 99
field mean 0.000428109644
field stddev 0
field min 0.000428109644
field max 0.000428109644
field sum 0.042382854756
field sqrsum 1.8144508861295e-05
attr recordingmode histogram
attr source frameSequenceDuration(frameSequenceFinished)
attr title "frame sequence durations"
bin	-inf	0
bin	0	99
bin	0.01	0
bin	0.02	0
bin	0.03	0
bin	0.04	0
bin	0.05	0
bin	0.06	0
bin	0.07	0
bin	0.08	0
bin	0.09	0
bin	0.1	0
bin	0.11	0
bin	0.12	0
bin	0.13	0
bin	0.14	0
bin	0.15	0
bin	0.16	0
bin	0.17	0
bin	0.18	0
bin	0.19	0
bin	0.2	0
bin	0.21	0
bin	0.22	0
bin	0.23	0
bin	0.24	0
bin	0.25	0
bin	0.26	0
bin	0.27	0
bin	0.28	0
bin	0.29	0
bin	0.3	0
bin	0.31	0
bin	0.32	0
bin	0.33	0
bin	0.34	0
bin	0.35	0
bin	0.36	0
bin	0.37	0
bin	0.38	0
bin	0.39	0
bin	0.4	0
bin	0.41	0
bin	0.42	0
bin	0.43	0
bin	0.44	0
bin	0.45	0
bin	0.46	0
bin	0.47	0
bin	0.48	0
bin	0.49	0
bin	0.5	0
bin	0.51	0
statistic MediumActivityMultipleNodesShowcase.relay.wlan[0].mac.dcf frameSequenceNumPackets:histogram
field count 99
field mean 2
field stddev 0
field min 2
field max 2
field sum 198
field sqrsum 396
attr recordingmode histogram
attr source frameSequenceNumPackets(frameSequenceFinished)
attr title "frame sequences: number of packets"
bin	-inf	0
bin	1	0
bin	2	99
bin	3	0
scalar MediumActivityMultipleNodesShowcase.relay.wlan[0].mac.dcf packetReceivedFromPeer:count 198
attr interpolationmode none
attr recordingmode count
attr title "packets received, count"
scalar MediumActivityMultipleNodesShowcase.relay.wlan[0].mac.dcf packetReceivedFromPeer:sum(packetBytes) 106722
attr interpolationmode none
attr recordingmode sum(packetBytes)
attr title "packets received, sum(packetBytes)"
scalar MediumActivityMultipleNodesShowcase.relay.wlan[0].mac.dcf packetReceivedFromPeerUnicast:count 198
attr interpolationmode none
attr recordingmode count
attr source ieee80211Unicast(packetReceivedFromPeer)
attr title "packets received: unicast, count"
scalar MediumActivityMultipleNodesShowcase.relay.wlan[0].mac.dcf packetReceivedFromPeerUnicast:sum(packetBytes) 106722
attr interpolationmode none
attr recordingmode sum(packetBytes)
attr source ieee80211Unicast(packetReceivedFromPeer)
attr title "packets received: unicast, sum(packetBytes)"
scalar MediumActivityMultipleNodesShowcase.relay.wlan[0].mac.dcf packetReceivedFromPeerMulticast:count 0
attr interpolationmode none
attr recordingmode count
attr source ieee80211Multicast(packetReceivedFromPeer)
attr title "packets received: multicast, count"
scalar MediumActivityMultipleNodesShowcase.relay.wlan[0].mac.dcf packetReceivedFromPeerMulticast:sum(packetBytes) 0
attr interpolationmode none
attr recordingmode sum(packetBytes)
attr source ieee80211Multicast(packetReceivedFromPeer)
attr title "packets received: multicast, sum(packetBytes)"
scalar MediumActivityMultipleNodesShowcase.relay.wlan[0].mac.dcf packetReceivedFromPeerBroadcast:count 0
attr interpolationmode none
attr recordingmode count
attr source ieee80211Broadcast(packetReceivedFromPeer)
attr title "packets received: broadcast, count"
scalar MediumActivityMultipleNodesShowcase.relay.wlan[0].mac.dcf packetReceivedFromPeerBroadcast:sum(packetBytes) 0
attr interpolationmode none
attr recordingmode sum(packetBytes)
attr source ieee80211Broadcast(packetReceivedFromPeer)
attr title "packets received: broadcast, sum(packetBytes)"
scalar MediumActivityMultipleNodesShowcase.relay.wlan[0].mac.dcf packetReceivedFromPeerWithRetry:count 0
attr interpolationmode none
attr recordingmode count
attr source ieee80211Retry(packetReceivedFromPeer)
attr title "packets received: with retry, count"
scalar MediumActivityMultipleNodesShowcase.relay.wlan[0].mac.dcf packetReceivedFromPeerWithRetry:sum(packetBytes) 0
attr interpolationmode none
attr recordingmode sum(packetBytes)
attr source ieee80211Retry(packetReceivedFromPeer)
attr title "packets received: with retry, sum(packetBytes)"
scalar MediumActivityMultipleNodesShowcase.relay.wlan[0].mac.dcf packetReceivedFromPeerWithoutRetry:count 198
attr interpolationmode none
attr recordingmode count
attr source ieee80211NotRetry(packetReceivedFromPeer)
attr title "packets received: without retry, count"
scalar MediumActivityMultipleNodesShowcase.relay.wlan[0].mac.dcf packetReceivedFromPeerWithoutRetry:sum(packetBytes) 106722
attr interpolationmode none
attr recordingmode sum(packetBytes)
attr source ieee80211NotRetry(packetReceivedFromPeer)
attr title "packets received: without retry, sum(packetBytes)"
scalar MediumActivityMultipleNodesShowcase.relay.wlan[0].mac.dcf packetSentToPeer:count 198
attr interpolationmode none
attr recordingmode count
attr title "packets sent, count"
scalar MediumActivityMultipleNodesShowcase.relay.wlan[0].mac.dcf packetSentToPeer:sum(packetBytes) 106722
attr interpolationmode none
attr recordingmode sum(packetBytes)
attr title "packets sent, sum(packetBytes)"
scalar MediumActivityMultipleNodesShowcase.relay.wlan[0].mac.dcf packetSentToPeerUnicast:count 198
attr interpolationmode none
attr recordingmode count
attr source ieee80211Unicast(packetSentToPeer)
attr title "packets sent: unicast, count"
scalar MediumActivityMultipleNodesShowcase.relay.wlan[0].mac.dcf packetSentToPeerUnicast:sum(packetBytes) 106722
attr interpolationmode none
attr recordingmode sum(packetBytes)
attr source ieee80211Unicast(packetSentToPeer)
attr title "packets sent: unicast, sum(packetBytes)"
scalar MediumActivityMultipleNodesShowcase.relay.wlan[0].mac.dcf packetSentToPeerMulticast:count 0
attr interpolationmode none
attr recordingmode count
attr source ieee80211Multicast(packetSentToPeer)
attr title "packets sent: multicast, count"
scalar MediumActivityMultipleNodesShowcase.relay.wlan[0].mac.dcf packetSentToPeerMulticast:sum(packetBytes) 0
attr interpolationmode none
attr recordingmode sum(packetBytes)
attr source ieee80211Multicast(packetSentToPeer)
attr title "packets sent: multicast, sum(packetBytes)"
scalar MediumActivityMultipleNodesShowcase.relay.wlan[0].mac.dcf packetSentToPeerBroadcast:count 0
attr interpolationmode none
attr recordingmode count
attr source ieee80211Broadcast(packetSentToPeer)
attr title "packets sent: broadcast , count"
scalar MediumActivityMultipleNodesShowcase.relay.wlan[0].mac.dcf packetSentToPeerBroadcast:sum(packetBytes) 0
attr interpolationmode none
attr recordingmode sum(packetBytes)
attr source ieee80211Broadcast(packetSentToPeer)
attr title "packets sent: broadcast , sum(packetBytes)"
scalar MediumActivityMultipleNodesShowcase.relay.wlan[0].mac.dcf packetSentToPeerWithRetry:count 0
attr interpolationmode none
attr recordingmode count
attr source ieee80211Retry(packetSentToPeer)
attr title "packets sent: with retry, count"
scalar MediumActivityMultipleNodesShowcase.relay.wlan[0].mac.dcf packetSentToPeerWithRetry:sum(packetBytes) 0
attr interpolationmode none
attr recordingmode sum(packetBytes)
attr source ieee80211Retry(packetSentToPeer)
attr title "packets sent: with retry, sum(packetBytes)"
scalar MediumActivityMultipleNodesShowcase.relay.wlan[0].mac.dcf packetSentToPeerWithoutRetry:count 198
attr interpolationmode none
attr recordingmode count
attr source ieee80211NotRetry(packetSentToPeer)
attr title "packets sent: without retry, count"
scalar MediumActivityMultipleNodesShowcase.relay.wlan[0].mac.dcf packetSentToPeerWithoutRetry:sum(packetBytes) 106722
attr interpolationmode none
attr recordingmode sum(packetBytes)
attr source ieee80211NotRetry(packetSentToPeer)
attr title "packets sent: without retry, sum(packetBytes)"
scalar MediumActivityMultipleNodesShowcase.relay.wlan[0].mac.dcf packetDrop:count 0
attr interpolationmode none
attr recordingmode count
attr source packetDropped
attr title "packet drops, count"
scalar MediumActivityMultipleNodesShowcase.relay.wlan[0].mac.dcf packetDrop:sum(packetBytes) 0
attr interpolationmode none
attr recordingmode sum(packetBytes)
attr source packetDropped
attr title "packet drops, sum(packetBytes)"
scalar MediumActivityMultipleNodesShowcase.relay.wlan[0].mac.dcf packetDropNotAddressedToUs:count 0
attr interpolationmode none
attr recordingmode count
attr source packetDropReasonIsNotAddressedToUs(packetDropped)
attr title "packet drops: not addressed to us, count"
scalar MediumActivityMultipleNodesShowcase.relay.wlan[0].mac.dcf packetDropNotAddressedToUs:sum(packetBytes) 0
attr interpolationmode none
attr recordingmode sum(packetBytes)
attr source packetDropReasonIsNotAddressedToUs(packetDropped)
attr title "packet drops: not addressed to us, sum(packetBytes)"
scalar MediumActivityMultipleNodesShowcase.relay.wlan[0].mac.dcf packetDropQueueOverflow:count 0
attr interpolationmode none
attr recordingmode count
attr source packetDropReasonIsQueueOverflow(packetDropped)
attr title "packet drops: queue overflow, count"
scalar MediumActivityMultipleNodesShowcase.relay.wlan[0].mac.dcf packetDropQueueOverflow:sum(packetBytes) 0
attr interpolationmode none
attr recordingmode sum(packetBytes)
attr source packetDropReasonIsQueueOverflow(packetDropped)
attr title "packet drops: queue overflow, sum(packetBytes)"
scalar MediumActivityMultipleNodesShowcase.relay.wlan[0].mac.dcf packetDropRetryLimitReached:count 0
attr interpolationmode none
attr recordingmode count
attr source packetDropReasonIsRetryLimitReached(packetDropped)
attr title "packet drops: retry limit reached, count"
scalar MediumActivityMultipleNodesShowcase.relay.wlan[0].mac.dcf packetDropRetryLimitReached:sum(packetBytes) 0
attr interpolationmode none
attr recordingmode sum(packetBytes)
attr source packetDropReasonIsRetryLimitReached(packetDropped)
attr title "packet drops: retry limit reached, sum(packetBytes)"
scalar MediumActivityMultipleNodesShowcase.relay.wlan[0].mac.dcf linkBroken:count 0
attr interpolationmode none
attr recordingmode count
attr title "link breaks, count"
scalar MediumActivityMultipleNodesShowcase.relay.wlan[0].mac packetReceivedFromLower:count 198
attr interpolationmode none
attr recordingmode count
attr title "packets received from lower layer, count"
scalar MediumActivityMultipleNodesShowcase.relay.wlan[0].mac packetReceivedFromLower:sum(packetBytes) 106722
attr interpolationmode none
attr recordingmode sum(packetBytes)
attr title "packets received from lower layer, sum(packetBytes)"
scalar MediumActivityMultipleNodesShowcase.relay.wlan[0].mac packetSentToLower:count 198
attr interpolationmode none
attr recordingmode count
attr title "packets sent to lower layer, count"
scalar MediumActivityMultipleNodesShowcase.relay.wlan[0].mac packetSentToLower:sum(packetBytes) 106722
attr interpolationmode none
attr recordingmode sum(packetBytes)
attr title "packets sent to lower layer, sum(packetBytes)"
scalar MediumActivityMultipleNodesShowcase.relay.wlan[0].mac packetReceivedFromUpper:count 99
attr interpolationmode none
attr recordingmode count
attr title "packets received from upper layer, count"
scalar MediumActivityMultipleNodesShowcase.relay.wlan[0].mac packetReceivedFromUpper:sum(packetBytes) 102564
attr interpolationmode none
attr recordingmode sum(packetBytes)
attr title "packets received from upper layer, sum(packetBytes)"
scalar MediumActivityMultipleNodesShowcase.relay.wlan[0].mac packetSentToUpper:count 99
attr interpolationmode none
attr recordingmode count
attr title "packets sent to upper layer, count"
scalar MediumActivityMultipleNodesShowcase.relay.wlan[0].mac packetSentToUpper:sum(packetBytes) 102564
attr interpolationmode none
attr recordingmode sum(packetBytes)
attr title "packets sent to upper layer, sum(packetBytes)"
scalar MediumActivityMultipleNodesShowcase.relay.wlan[0].mac packetDrop:count 0
attr interpolationmode none
attr recordingmode count
attr source packetDropped
attr title "packet drops, count"
scalar MediumActivityMultipleNodesShowcase.relay.wlan[0].mac packetDrop:sum(packetBytes) 0
attr interpolationmode none
attr recordingmode sum(packetBytes)
attr source packetDropped
attr title "packet drops, sum(packetBytes)"
scalar MediumActivityMultipleNodesShowcase.relay.wlan[0].mac packetDropIncorrectlyReceived:count 0
attr interpolationmode none
attr recordingmode count
attr source packetDropReasonIsIncorrectlyReceived(packetDropped)
attr title "packet drops: incorrectly received, count"
scalar MediumActivityMultipleNodesShowcase.relay.wlan[0].mac packetDropIncorrectlyReceived:sum(packetBytes) 0
attr interpolationmode none
attr recordingmode sum(packetBytes)
attr source packetDropReasonIsIncorrectlyReceived(packetDropped)
attr title "packet drops: incorrectly received, sum(packetBytes)"
scalar MediumActivityMultipleNodesShowcase.relay.wlan[0].mac packetDropNotAddressedToUs:count 0
attr interpolationmode none
attr recordingmode count
attr source packetDropReasonIsNotAddressedToUs(packetDropped)
attr title "packet drops: not addressed to us, count"
scalar MediumActivityMultipleNodesShowcase.relay.wlan[0].mac packetDropNotAddressedToUs:sum(packetBytes) 0
attr interpolationmode none
attr recordingmode sum(packetBytes)
attr source packetDropReasonIsNotAddressedToUs(packetDropped)
attr title "packet drops: not addressed to us, sum(packetBytes)"
scalar MediumActivityMultipleNodesShowcase.relay.wlan[0].mac packetDropQueueOverflow:count 0
attr interpolationmode none
attr recordingmode count
attr source packetDropReasonIsQueueOverflow(packetDropped)
attr title "packet drops: queue overflow, count"
scalar MediumActivityMultipleNodesShowcase.relay.wlan[0].mac packetDropQueueOverflow:sum(packetBytes) 0
attr interpolationmode none
attr recordingmode sum(packetBytes)
attr source packetDropReasonIsQueueOverflow(packetDropped)
attr title "packet drops: queue overflow, sum(packetBytes)"
scalar MediumActivityMultipleNodesShowcase.relay.wlan[0].mac packetDropRetryLimitReached:count 0
attr interpolationmode none
attr recordingmode count
attr source packetDropReasonIsRetryLimitReached(packetDropped)
attr title "packet drops: retry limit reached, count"
scalar MediumActivityMultipleNodesShowcase.relay.wlan[0].mac packetDropRetryLimitReached:sum(packetBytes) 0
attr interpolationmode none
attr recordingmode sum(packetBytes)
attr source packetDropReasonIsRetryLimitReached(packetDropped)
attr title "packet drops: retry limit reached, sum(packetBytes)"
scalar MediumActivityMultipleNodesShowcase.relay.wlan[0].mac packetDropDuplicateDetected:count 0
attr interpolationmode none
attr recordingmode count
attr source packetDropReasonIsDuplicateDetected(packetDropped)
attr title "packet drops: duplicate detected, count"
scalar MediumActivityMultipleNodesShowcase.relay.wlan[0].mac packetDropDuplicateDetected:sum(packetBytes) 0
attr interpolationmode none
attr recordingmode sum(packetBytes)
attr source packetDropReasonIsDuplicateDetected(packetDropped)
attr title "packet drops: duplicate detected, sum(packetBytes)"
scalar MediumActivityMultipleNodesShowcase.relay.wlan[0].mac packetDropOther:count 0
attr interpolationmode none
attr recordingmode count
attr source packetDropReasonIsOther(packetDropped)
attr title "packet drops: other, count"
scalar MediumActivityMultipleNodesShowcase.relay.wlan[0].mac packetDropOther:sum(packetBytes) 0
attr interpolationmode none
attr recordingmode sum(packetBytes)
attr source packetDropReasonIsOther(packetDropped)
attr title "packet drops: other, sum(packetBytes)"
scalar MediumActivityMultipleNodesShowcase.relay.wlan[0].mac linkBroken:count 0
attr interpolationmode none
attr recordingmode count
attr title "link breaks, count"
statistic MediumActivityMultipleNodesShowcase.relay.wlan[0].radio radioChannel:histogram
field count 1
field mean 0
field stddev nan
field min 0
field max 0
field sum 0
field sqrsum 0
attr interpolationmode sample-hold
attr recordingmode histogram
attr source radioChannelChanged
attr title "Radio channel"
bin	-inf	0
bin	-0.5	0
bin	-0.48	0
bin	-0.46	0
bin	-0.44	0
bin	-0.42	0
bin	-0.4	0
bin	-0.38	0
bin	-0.36	0
bin	-0.34	0
bin	-0.32	0
bin	-0.3	0
bin	-0.28	0
bin	-0.26	0
bin	-0.24	0
bin	-0.22	0
bin	-0.2	0
bin	-0.18	0
bin	-0.16	0
bin	-0.14	0
bin	-0.12	0
bin	-0.1	0
bin	-0.08	0
bin	-0.06	0
bin	-0.04	0
bin	-0.02	0
bin	0	1
bin	0.02	0
bin	0.04	0
bin	0.06	0
bin	0.08	0
bin	0.1	0
bin	0.12	0
bin	0.14	0
bin	0.16	0
bin	0.18	0
bin	0.2	0
bin	0.22	0
bin	0.24	0
bin	0.26	0
bin	0.28	0
bin	0.3	0
bin	0.32	0
bin	0.34	0
bin	0.36	0
bin	0.38	0
bin	0.4	0
bin	0.42	0
bin	0.44	0
bin	0.46	0
bin	0.48	0
bin	0.5	0
scalar MediumActivityMultipleNodesShowcase.relay.wlan[0].radio radioMode:count 399
attr interpolationmode sample-hold
attr recordingmode count
attr source radioModeChanged
attr title "Radio mode, count"
scalar MediumActivityMultipleNodesShowcase.relay.wlan[0].radio receptionState:count 793
attr interpolationmode sample-hold
attr recordingmode count
attr source receptionStateChanged
attr title "Radio reception state, count"
scalar MediumActivityMultipleNodesShowcase.relay.wlan[0].radio transmissionState:count 792
attr interpolationmode sample-hold
attr recordingmode count
attr source transmissionStateChanged
attr title "Radio transmission state, count"
statistic MediumActivityMultipleNodesShowcase.relay.wlan[0].radio minSnir:histogram
field count 198
field mean 489.14438802596
field stddev 0
field min 489.14438802596
field max 489.14438802596
field sum 96850.588829141
field sqrsum 47373922.002785
attr recordingmode histogram
attr source minimumSnir(packetSentToUpper)
attr title "Min SNIR"
bin	-inf	0
bin	488.64	0
bin	488.66	0
bin	488.68	0
bin	488.7	0
bin	488.72	0
bin	488.74	0
bin	488.76	0
bin	488.78	0
bin	488.8	0
bin	488.82	0
bin	488.84	0
bin	488.86	0
bin	488.88	0
bin	488.9	0
bin	488.92	0
bin	488.94	0
bin	488.96	0
bin	488.98	0
bin	489	0
bin	489.02	0
bin	489.04	0
bin	489.06	0
bin	489.08	0
bin	489.1	0
bin	489.12	0
bin	489.14	198
bin	489.16	0
bin	489.18	0
bin	489.2	0
bin	489.22	0
bin	489.24	0
bin	489.26	0
bin	489.28	0
bin	489.3	0
bin	489.32	0
bin	489.34	0
bin	489.36	0
bin	489.38	0
bin	489.4	0
bin	489.42	0
bin	489.44	0
bin	489.46	0
bin	489.48	0
bin	489.5	0
bin	489.52	0
bin	489.54	0
bin	489.56	0
bin	489.58	0
bin	489.6	0
bin	489.62	0
bin	489.64	0
bin	489.66	0
statistic MediumActivityMultipleNodesShowcase.relay.wlan[0].radio packetErrorRate:histogram
field count 198
field mean 1.0215828183391e-10
field stddev 1.0241723860382e-10
field min 0
field max 2.0431656366782e-10
field sum 2.0227339803114e-08
field sqrsum 4.1327805607135e-18
attr recordingmode histogram
attr source packetErrorRate(packetSentToUpper)
attr title "Packet error rate"
bin	-inf	0
bin	0	99
bin	5e-12	0
bin	1e-11	0
bin	1.5e-11	0
bin	2e-11	0
bin	2.5e-11	0
bin	3e-11	0
bin	3.5e-11	0
bin	4e-11	0
bin	4.5e-11	0
bin	5e-11	0
bin	5.5e-11	0
bin	6e-11	0
bin	6.5e-11	0
bin	7e-11	0
bin	7.5e-11	0
bin	8e-11	0
bin	8.5e-11	0
bin	9e-11	0
bin	9.5e-11	0
bin	1e-10	0
bin	1.05e-10	0
bin	1.1e-10	0
bin	1.15e-10	0
bin	1.2e-10	0
bin	1.25e-10	0
bin	1.3e-10	0
bin	1.35e-10	0
bin	1.4e-10	0
bin	1.45e-10	0
bin	1.5e-10	0
bin	1.55e-10	0
bin	1.6e-10	0
bin	1.65e-10	0
bin	1.7e-10	0
bin	1.75e-10	0
bin	1.8e-10	0
bin	1.85e-10	0
bin	1.9e-10	0
bin	1.95e-10	0
bin	2e-10	99
bin	2.05e-10	0
bin	2.1e-10	0
bin	2.15e-10	0
bin	2.2e-10	0
bin	2.25e-10	0
bin	2.3e-10	0
bin	2.35e-10	0
bin	2.4e-10	0
bin	2.45e-10	0
bin	2.5e-10	0
bin	2.55e-10	0
bin	2.6e-10	0
statistic MediumActivityMultipleNodesShowcase.relay.wlan[0].radio bitErrorRate:histogram
field count 0
field mean -nan
field stddev nan
field min nan
field max nan
field sum 0
field sqrsum 0
attr recordingmode histogram
attr source bitErrorRate(packetSentToUpper)
attr title "Bit error rate"
bin	-inf	0
bin	0	0
bin	1	0
statistic MediumActivityMultipleNodesShowcase.relay.wlan[0].radio symbolErrorRate:histogram
field count 0
field mean -nan
field stddev nan
field min nan
field max nan
field sum 0
field sqrsum 0
attr recordingmode histogram
attr source symbolErrorRate(packetSentToUpper)
attr title "Symbol error rate"
bin	-inf	0
bin	0	0
bin	1	0
scalar MediumActivityMultipleNodesShowcase.relay.wlan[0] packetDropInterfaceDown:count 0
attr interpolationmode none
attr recordingmode count
attr source packetDropReasonIsInterfaceDown(packetDropped)
attr title "packet drops: interface down, count"
scalar MediumActivityMultipleNodesShowcase.relay.wlan[0] packetDropInterfaceDown:sum(packetBytes) 0
attr interpolationmode none
attr recordingmode sum(packetBytes)
attr source packetDropReasonIsInterfaceDown(packetDropped)
attr title "packet drops: interface down, sum(packetBytes)"
scalar MediumActivityMultipleNodesShowcase.relay.wlan[0] packetDropNoCarrier:count 0
attr interpolationmode none
attr recordingmode count
attr source packetDropReasonIsNoCarrier(packetDropped)
attr title "packet drops: no carrier, count"
scalar MediumActivityMultipleNodesShowcase.relay.wlan[0] packetDropNoCarrier:sum(packetBytes) 0
attr interpolationmode none
attr recordingmode sum(packetBytes)
attr source packetDropReasonIsNoCarrier(packetDropped)
attr title "packet drops: no carrier, sum(packetBytes)"
scalar MediumActivityMultipleNodesShowcase.relay.ipv4.ip packetDropAddressResolutionFailed:count 0
attr interpolationmode none
attr recordingmode count
attr source packetDropReasonIsAddressResolutionFailed(packetDropped)
attr title "packet drop: address resolution failed, count"
scalar MediumActivityMultipleNodesShowcase.relay.ipv4.ip packetDropAddressResolutionFailed:sum(packetBytes) 0
attr interpolationmode none
attr recordingmode sum(packetBytes)
attr source packetDropReasonIsAddressResolutionFailed(packetDropped)
attr title "packet drop: address resolution failed, sum(packetBytes)"
scalar MediumActivityMultipleNodesShowcase.relay.ipv4.ip packetDropHopLimitReached:count 0
attr interpolationmode none
attr recordingmode count
attr source packetDropReasonIsHopLimitReached(packetDropped)
attr title "packet drop: hop limit reached, count"
scalar MediumActivityMultipleNodesShowcase.relay.ipv4.ip packetDropHopLimitReached:sum(packetBytes) 0
attr interpolationmode none
attr recordingmode sum(packetBytes)
attr source packetDropReasonIsHopLimitReached(packetDropped)
attr title "packet drop: hop limit reached, sum(packetBytes)"
scalar MediumActivityMultipleNodesShowcase.relay.ipv4.ip packetDropForwardingDisabled:count 0
attr interpolationmode none
attr recordingmode count
attr source packetDropReasonIsForwardingDisabled(packetDropped)
attr title "packet drop: forwarding disabled, count"
scalar MediumActivityMultipleNodesShowcase.relay.ipv4.ip packetDropForwardingDisabled:sum(packetBytes) 0
attr interpolationmode none
attr recordingmode sum(packetBytes)
attr source packetDropReasonIsForwardingDisabled(packetDropped)
attr title "packet drop: forwarding disabled, sum(packetBytes)"
scalar MediumActivityMultipleNodesShowcase.relay.ipv4.ip packetDropLifetimeExpired:count 0
attr interpolationmode none
attr recordingmode count
attr source packetDropReasonIsLifetimeExpired(packetDropped)
attr title "packet drop: lifetime expired, count"
scalar MediumActivityMultipleNodesShowcase.relay.ipv4.ip packetDropLifetimeExpired:sum(packetBytes) 0
attr interpolationmode none
attr recordingmode sum(packetBytes)
attr source packetDropReasonIsLifetimeExpired(packetDropped)
attr title "packet drop: lifetime expired, sum(packetBytes)"
scalar MediumActivityMultipleNodesShowcase.relay.ipv4.ip packetDropNoInterfaceFound:count 0
attr interpolationmode none
attr recordingmode count
attr source packetDropReasonIsNoInterfaceFound(packetDropped)
attr title "packet drop: no interface found, count"
scalar MediumActivityMultipleNodesShowcase.relay.ipv4.ip packetDropNoInterfaceFound:sum(packetBytes) 0
attr interpolationmode none
attr recordingmode sum(packetBytes)
attr source packetDropReasonIsNoInterfaceFound(packetDropped)
attr title "packet drop: no interface found, sum(packetBytes)"
scalar MediumActivityMultipleNodesShowcase.relay.ipv4.ip packetDropNoRouteFound:count 0
attr interpolationmode none
attr recordingmode count
attr source packetDropReasonIsNoRouteFound(packetDropped)
attr title "packet drop: no route found, count"
scalar MediumActivityMultipleNodesShowcase.relay.ipv4.ip packetDropNoRouteFound:sum(packetBytes) 0
attr interpolationmode none
attr recordingmode sum(packetBytes)
attr source packetDropReasonIsNoRouteFound(packetDropped)
attr title "packet drop: no route found, sum(packetBytes)"
scalar MediumActivityMultipleNodesShowcase.relay.ipv4.ip packetDropUndefined:count 0
attr interpolationmode none
attr recordingmode count
attr source packetDropReasonIsUndefined(packetDropped)
[...]
attr interpolationmode none
attr recordingmode sum(packetBytes)
attr source packetDropped
attr title "packet drops, sum(packetBytes)"
scalar MediumActivityMultipleNodesShowcase.destination.wlan[0].mac.dcf packetDropNotAddressedToUs:count 99
attr interpolationmode none
attr recordingmode count
attr source packetDropReasonIsNotAddressedToUs(packetDropped)
attr title "packet drops: not addressed to us, count"
scalar MediumActivityMultipleNodesShowcase.destination.wlan[0].mac.dcf packetDropNotAddressedToUs:sum(packetBytes) 1386
attr interpolationmode none
attr recordingmode sum(packetBytes)
attr source packetDropReasonIsNotAddressedToUs(packetDropped)
attr title "packet drops: not addressed to us, sum(packetBytes)"
scalar MediumActivityMultipleNodesShowcase.destination.wlan[0].mac.dcf packetDropQueueOverflow:count 0
attr interpolationmode none
attr recordingmode count
attr source packetDropReasonIsQueueOverflow(packetDropped)
attr title "packet drops: queue overflow, count"
scalar MediumActivityMultipleNodesShowcase.destination.wlan[0].mac.dcf packetDropQueueOverflow:sum(packetBytes) 0
attr interpolationmode none
attr recordingmode sum(packetBytes)
attr source packetDropReasonIsQueueOverflow(packetDropped)
attr title "packet drops: queue overflow, sum(packetBytes)"
scalar MediumActivityMultipleNodesShowcase.destination.wlan[0].mac.dcf packetDropRetryLimitReached:count 0
attr interpolationmode none
attr recordingmode count
attr source packetDropReasonIsRetryLimitReached(packetDropped)
attr title "packet drops: retry limit reached, count"
scalar MediumActivityMultipleNodesShowcase.destination.wlan[0].mac.dcf packetDropRetryLimitReached:sum(packetBytes) 0
attr interpolationmode none
attr recordingmode sum(packetBytes)
attr source packetDropReasonIsRetryLimitReached(packetDropped)
attr title "packet drops: retry limit reached, sum(packetBytes)"
scalar MediumActivityMultipleNodesShowcase.destination.wlan[0].mac.dcf linkBroken:count 0
attr interpolationmode none
attr recordingmode count
attr title "link breaks, count"
scalar MediumActivityMultipleNodesShowcase.destination.wlan[0].mac packetReceivedFromLower:count 198
attr interpolationmode none
attr recordingmode count
attr title "packets received from lower layer, count"
scalar MediumActivityMultipleNodesShowcase.destination.wlan[0].mac packetReceivedFromLower:sum(packetBytes) 106722
attr interpolationmode none
attr recordingmode sum(packetBytes)
attr title "packets received from lower layer, sum(packetBytes)"
scalar MediumActivityMultipleNodesShowcase.destination.wlan[0].mac packetSentToLower:count 99
attr interpolationmode none
attr recordingmode count
attr title "packets sent to lower layer, count"
scalar MediumActivityMultipleNodesShowcase.destination.wlan[0].mac packetSentToLower:sum(packetBytes) 1386
attr interpolationmode none
attr recordingmode sum(packetBytes)
attr title "packets sent to lower layer, sum(packetBytes)"
scalar MediumActivityMultipleNodesShowcase.destination.wlan[0].mac packetReceivedFromUpper:count 0
attr interpolationmode none
attr recordingmode count
attr title "packets received from upper layer, count"
scalar MediumActivityMultipleNodesShowcase.destination.wlan[0].mac packetReceivedFromUpper:sum(packetBytes) 0
attr interpolationmode none
attr recordingmode sum(packetBytes)
attr title "packets received from upper layer, sum(packetBytes)"
scalar MediumActivityMultipleNodesShowcase.destination.wlan[0].mac packetSentToUpper:count 99
attr interpolationmode none
attr recordingmode count
attr title "packets sent to upper layer, count"
scalar MediumActivityMultipleNodesShowcase.destination.wlan[0].mac packetSentToUpper:sum(packetBytes) 102564
attr interpolationmode none
attr recordingmode sum(packetBytes)
attr title "packets sent to upper layer, sum(packetBytes)"
scalar MediumActivityMultipleNodesShowcase.destination.wlan[0].mac packetDrop:count 99
attr interpolationmode none
attr recordingmode count
attr source packetDropped
attr title "packet drops, count"
scalar MediumActivityMultipleNodesShowcase.destination.wlan[0].mac packetDrop:sum(packetBytes) 1386
attr interpolationmode none
attr recordingmode sum(packetBytes)
attr source packetDropped
attr title "packet drops, sum(packetBytes)"
scalar MediumActivityMultipleNodesShowcase.destination.wlan[0].mac packetDropIncorrectlyReceived:count 0
attr interpolationmode none
attr recordingmode count
attr source packetDropReasonIsIncorrectlyReceived(packetDropped)
attr title "packet drops: incorrectly received, count"
scalar MediumActivityMultipleNodesShowcase.destination.wlan[0].mac packetDropIncorrectlyReceived:sum(packetBytes) 0
attr interpolationmode none
attr recordingmode sum(packetBytes)
attr source packetDropReasonIsIncorrectlyReceived(packetDropped)
attr title "packet drops: incorrectly received, sum(packetBytes)"
scalar MediumActivityMultipleNodesShowcase.destination.wlan[0].mac packetDropNotAddressedToUs:count 99
attr interpolationmode none
attr recordingmode count
attr source packetDropReasonIsNotAddressedToUs(packetDropped)
attr title "packet drops: not addressed to us, count"
scalar MediumActivityMultipleNodesShowcase.destination.wlan[0].mac packetDropNotAddressedToUs:sum(packetBytes) 1386
attr interpolationmode none
attr recordingmode sum(packetBytes)
attr source packetDropReasonIsNotAddressedToUs(packetDropped)
attr title "packet drops: not addressed to us, sum(packetBytes)"
scalar MediumActivityMultipleNodesShowcase.destination.wlan[0].mac packetDropQueueOverflow:count 0
attr interpolationmode none
attr recordingmode count
attr source packetDropReasonIsQueueOverflow(packetDropped)
attr title "packet drops: queue overflow, count"
scalar MediumActivityMultipleNodesShowcase.destination.wlan[0].mac packetDropQueueOverflow:sum(packetBytes) 0
attr interpolationmode none
attr recordingmode sum(packetBytes)
attr source packetDropReasonIsQueueOverflow(packetDropped)
attr title "packet drops: queue overflow, sum(packetBytes)"
scalar MediumActivityMultipleNodesShowcase.destination.wlan[0].mac packetDropRetryLimitReached:count 0
attr interpolationmode none
attr recordingmode count
attr source packetDropReasonIsRetryLimitReached(packetDropped)
attr title "packet drops: retry limit reached, count"
scalar MediumActivityMultipleNodesShowcase.destination.wlan[0].mac packetDropRetryLimitReached:sum(packetBytes) 0
attr interpolationmode none
attr recordingmode sum(packetBytes)
attr source packetDropReasonIsRetryLimitReached(packetDropped)
attr title "packet drops: retry limit reached, sum(packetBytes)"
scalar MediumActivityMultipleNodesShowcase.destination.wlan[0].mac packetDropDuplicateDetected:count 0
attr interpolationmode none
attr recordingmode count
attr source packetDropReasonIsDuplicateDetected(packetDropped)
attr title "packet drops: duplicate detected, count"
scalar MediumActivityMultipleNodesShowcase.destination.wlan[0].mac packetDropDuplicateDetected:sum(packetBytes) 0
attr interpolationmode none
attr recordingmode sum(packetBytes)
attr source packetDropReasonIsDuplicateDetected(packetDropped)
attr title "packet drops: duplicate detected, sum(packetBytes)"
scalar MediumActivityMultipleNodesShowcase.destination.wlan[0].mac packetDropOther:count 0
attr interpolationmode none
attr recordingmode count
attr source packetDropReasonIsOther(packetDropped)
attr title "packet drops: other, count"
scalar MediumActivityMultipleNodesShowcase.destination.wlan[0].mac packetDropOther:sum(packetBytes) 0
attr interpolationmode none
attr recordingmode sum(packetBytes)
attr source packetDropReasonIsOther(packetDropped)
attr title "packet drops: other, sum(packetBytes)"
scalar MediumActivityMultipleNodesShowcase.destination.wlan[0].mac linkBroken:count 0
attr interpolationmode none
attr recordingmode count
attr title "link breaks, count"
statistic MediumActivityMultipleNodesShowcase.destination.wlan[0].radio radioChannel:histogram
field count 1
field mean 0
field stddev nan
field min 0
field max 0
field sum 0
field sqrsum 0
attr interpolationmode sample-hold
attr recordingmode histogram
attr source radioChannelChanged
attr title "Radio channel"
bin	-inf	0
bin	-0.5	0
bin	-0.48	0
bin	-0.46	0
bin	-0.44	0
bin	-0.42	0
bin	-0.4	0
bin	-0.38	0
bin	-0.36	0
bin	-0.34	0
bin	-0.32	0
bin	-0.3	0
bin	-0.28	0
bin	-0.26	0
bin	-0.24	0
bin	-0.22	0
bin	-0.2	0
bin	-0.18	0
bin	-0.16	0
bin	-0.14	0
bin	-0.12	0
bin	-0.1	0
bin	-0.08	0
bin	-0.06	0
bin	-0.04	0
bin	-0.02	0
bin	0	1
bin	0.02	0
bin	0.04	0
bin	0.06	0
bin	0.08	0
bin	0.1	0
bin	0.12	0
bin	0.14	0
bin	0.16	0
bin	0.18	0
bin	0.2	0
bin	0.22	0
bin	0.24	0
bin	0.26	0
bin	0.28	0
bin	0.3	0
bin	0.32	0
bin	0.34	0
bin	0.36	0
bin	0.38	0
bin	0.4	0
bin	0.42	0
bin	0.44	0
bin	0.46	0
bin	0.48	0
bin	0.5	0
scalar MediumActivityMultipleNodesShowcase.destination.wlan[0].radio radioMode:count 201
attr interpolationmode sample-hold
attr recordingmode count
attr source radioModeChanged
attr title "Radio mode, count"
scalar MediumActivityMultipleNodesShowcase.destination.wlan[0].radio receptionState:count 595
attr interpolationmode sample-hold
attr recordingmode count
attr source receptionStateChanged
attr title "Radio reception state, count"
scalar MediumActivityMultipleNodesShowcase.destination.wlan[0].radio transmissionState:count 396
attr interpolationmode sample-hold
attr recordingmode count
attr source transmissionStateChanged
attr title "Radio transmission state, count"
statistic MediumActivityMultipleNodesShowcase.destination.wlan[0].radio minSnir:histogram
field count 198
field mean 489.14438802596
field stddev 0
field min 489.14438802596
field max 489.14438802596
field sum 96850.588829141
field sqrsum 47373922.002785
attr recordingmode histogram
attr source minimumSnir(packetSentToUpper)
attr title "Min SNIR"
bin	-inf	0
bin	488.64	0
bin	488.66	0
bin	488.68	0
bin	488.7	0
bin	488.72	0
bin	488.74	0
bin	488.76	0
bin	488.78	0
bin	488.8	0
bin	488.82	0
bin	488.84	0
bin	488.86	0
bin	488.88	0
bin	488.9	0
bin	488.92	0
bin	488.94	0
bin	488.96	0
bin	488.98	0
bin	489	0
bin	489.02	0
bin	489.04	0
bin	489.06	0
bin	489.08	0
bin	489.1	0
bin	489.12	0
bin	489.14	198
bin	489.16	0
bin	489.18	0
bin	489.2	0
bin	489.22	0
bin	489.24	0
bin	489.26	0
bin	489.28	0
bin	489.3	0
bin	489.32	0
bin	489.34	0
bin	489.36	0
bin	489.38	0
bin	489.4	0
bin	489.42	0
bin	489.44	0
bin	489.46	0
bin	489.48	0
bin	489.5	0
bin	489.52	0
bin	489.54	0
bin	489.56	0
bin	489.58	0
bin	489.6	0
bin	489.62	0
bin	489.64	0
bin	489.66	0
statistic MediumActivityMultipleNodesShowcase.destination.wlan[0].radio packetErrorRate:histogram
field count 198
field mean 0
field stddev 0
field min 0
field max 0
field sum 0
field sqrsum 0
attr recordingmode histogram
attr source packetErrorRate(packetSentToUpper)
attr title "Packet error rate"
bin	-inf	0
bin	-0.5	0
bin	-0.48	0
bin	-0.46	0
bin	-0.44	0
bin	-0.42	0
bin	-0.4	0
bin	-0.38	0
bin	-0.36	0
bin	-0.34	0
bin	-0.32	0
bin	-0.3	0
bin	-0.28	0
bin	-0.26	0
bin	-0.24	0
bin	-0.22	0
bin	-0.2	0
bin	-0.18	0
bin	-0.16	0
bin	-0.14	0
bin	-0.12	0
bin	-0.1	0
bin	-0.08	0
bin	-0.06	0
bin	-0.04	0
bin	-0.02	0
bin	0	198
bin	0.02	0
bin	0.04	0
bin	0.06	0
bin	0.08	0
bin	0.1	0
bin	0.12	0
bin	0.14	0
bin	0.16	0
bin	0.18	0
bin	0.2	0
bin	0.22	0
bin	0.24	0
bin	0.26	0
bin	0.28	0
bin	0.3	0
bin	0.32	0
bin	0.34	0
bin	0.36	0
bin	0.38	0
bin	0.4	0
bin	0.42	0
bin	0.44	0
bin	0.46	0
bin	0.48	0
bin	0.5	0
statistic MediumActivityMultipleNodesShowcase.destination.wlan[0].radio bitErrorRate:histogram
field count 0
field mean -nan
field stddev nan
field min nan
field max nan
field sum 0
field sqrsum 0
attr recordingmode histogram
attr source bitErrorRate(packetSentToUpper)
attr title "Bit error rate"
bin	-inf	0
bin	0	0
bin	1	0
statistic MediumActivityMultipleNodesShowcase.destination.wlan[0].radio symbolErrorRate:histogram
field count 0
field mean -nan
field stddev nan
field min nan
field max nan
field sum 0
field sqrsum 0
attr recordingmode histogram
attr source symbolErrorRate(packetSentToUpper)
attr title "Symbol error rate"
bin	-inf	0
bin	0	0
bin	1	0
scalar MediumActivityMultipleNodesShowcase.destination.wlan[0] packetDropInterfaceDown:count 0
attr interpolationmode none
attr recordingmode count
attr source packetDropReasonIsInterfaceDown(packetDropped)
attr title "packet drops: interface down, count"
scalar MediumActivityMultipleNodesShowcase.destination.wlan[0] packetDropInterfaceDown:sum(packetBytes) 0
attr interpolationmode none
attr recordingmode sum(packetBytes)
attr source packetDropReasonIsInterfaceDown(packetDropped)
attr title "packet drops: interface down, sum(packetBytes)"
scalar MediumActivityMultipleNodesShowcase.destination.wlan[0] packetDropNoCarrier:count 0
attr interpolationmode none
attr recordingmode count
attr source packetDropReasonIsNoCarrier(packetDropped)
attr title "packet drops: no carrier, count"
scalar MediumActivityMultipleNodesShowcase.destination.wlan[0] packetDropNoCarrier:sum(packetBytes) 0
attr interpolationmode none
attr recordingmode sum(packetBytes)
attr source packetDropReasonIsNoCarrier(packetDropped)
attr title "packet drops: no carrier, sum(packetBytes)"
scalar MediumActivityMultipleNodesShowcase.destination.ipv4.ip packetDropAddressResolutionFailed:count 0
attr interpolationmode none
attr recordingmode count
attr source packetDropReasonIsAddressResolutionFailed(packetDropped)
attr title "packet drop: address resolution failed, count"
scalar MediumActivityMultipleNodesShowcase.destination.ipv4.ip packetDropAddressResolutionFailed:sum(packetBytes) 0
attr interpolationmode none
attr recordingmode sum(packetBytes)
attr source packetDropReasonIsAddressResolutionFailed(packetDropped)
attr title "packet drop: address resolution failed, sum(packetBytes)"
scalar MediumActivityMultipleNodesShowcase.destination.ipv4.ip packetDropHopLimitReached:count 0
attr interpolationmode none
attr recordingmode count
attr source packetDropReasonIsHopLimitReached(packetDropped)
attr title "packet drop: hop limit reached, count"
scalar MediumActivityMultipleNodesShowcase.destination.ipv4.ip packetDropHopLimitReached:sum(packetBytes) 0
attr interpolationmode none
attr recordingmode sum(packetBytes)
attr source packetDropReasonIsHopLimitReached(packetDropped)
attr title "packet drop: hop limit reached, sum(packetBytes)"
scalar MediumActivityMultipleNodesShowcase.destination.ipv4.ip packetDropForwardingDisabled:count 0
attr interpolationmode none
attr recordingmode count
attr source packetDropReasonIsForwardingDisabled(packetDropped)
attr title "packet drop: forwarding disabled, count"
scalar MediumActivityMultipleNodesShowcase.destination.ipv4.ip packetDropForwardingDisabled:sum(packetBytes) 0
attr interpolationmode none
attr recordingmode sum(packetBytes)
attr source packetDropReasonIsForwardingDisabled(packetDropped)
attr title "packet drop: forwarding disabled, sum(packetBytes)"
scalar MediumActivityMultipleNodesShowcase.destination.ipv4.ip packetDropLifetimeExpired:count 0
attr interpolationmode none
attr recordingmode count
attr source packetDropReasonIsLifetimeExpired(packetDropped)
attr title "packet drop: lifetime expired, count"
scalar MediumActivityMultipleNodesShowcase.destination.ipv4.ip packetDropLifetimeExpired:sum(packetBytes) 0
attr interpolationmode none
attr recordingmode sum(packetBytes)
attr source packetDropReasonIsLifetimeExpired(packetDropped)
attr title "packet drop: lifetime expired, sum(packetBytes)"
scalar MediumActivityMultipleNodesShowcase.destination.ipv4.ip packetDropNoInterfaceFound:count 0
attr interpolationmode none
attr recordingmode count
attr source packetDropReasonIsNoInterfaceFound(packetDropped)
attr title "packet drop: no interface found, count"
scalar MediumActivityMultipleNodesShowcase.destination.ipv4.ip packetDropNoInterfaceFound:sum(packetBytes) 0
attr interpolationmode none
attr recordingmode sum(packetBytes)
attr source packetDropReasonIsNoInterfaceFound(packetDropped)
attr title "packet drop: no interface found, sum(packetBytes)"
scalar MediumActivityMultipleNodesShowcase.destination.ipv4.ip packetDropNoRouteFound:count 0
attr interpolationmode none
attr recordingmode count
attr source packetDropReasonIsNoRouteFound(packetDropped)
attr title "packet drop: no route found, count"
scalar MediumActivityMultipleNodesShowcase.destination.ipv4.ip packetDropNoRouteFound:sum(packetBytes) 0
attr interpolationmode none
attr recordingmode sum(packetBytes)
attr source packetDropReasonIsNoRouteFound(packetDropped)
attr title "packet drop: no route found, sum(packetBytes)"
scalar MediumActivityMultipleNodesShowcase.destination.ipv4.ip packetDropUndefined:count 0
attr interpolationmode none
attr recordingmode count
attr source packetDropReasonIsUndefined(packetDropped)
attr title "packet drop: undefined, count"
scalar MediumActivityMultipleNodesShowcase.destination.ipv4.ip packetDropUndefined:sum(packetBytes) 0
attr interpolationmode none
attr recordingmode sum(packetBytes)
attr source packetDropReasonIsUndefined(packetDropped)
attr title "packet drop: undefined, sum(packetBytes)"
scalar MediumActivityMultipleNodesShowcase.destination.udp packetReceived:count 99
attr interpolationmode none
attr recordingmode count
attr source packetReceived
attr title "packets received, count"
scalar MediumActivityMultipleNodesShowcase.destination.udp packetReceived:sum(packetBytes) 99792
attr interpolationmode none
attr recordingmode sum(packetBytes)
attr source packetReceived
attr title "packets received, sum(packetBytes)"
scalar MediumActivityMultipleNodesShowcase.destination.udp packetSent:count 0
attr interpolationmode none
attr recordingmode count
attr source packetSent
attr title "packets sent, count"
scalar MediumActivityMultipleNodesShowcase.destination.udp packetSent:sum(packetBytes) 0
attr interpolationmode none
attr recordingmode sum(packetBytes)
attr source packetSent
attr title "packets sent, sum(packetBytes)"
scalar MediumActivityMultipleNodesShowcase.destination.udp passedUpPk:count 99
attr interpolationmode none
attr recordingmode count
attr source packetSentToUpper
attr title "packets passed up, count"
scalar MediumActivityMultipleNodesShowcase.destination.udp droppedPkWrongPort:count 0
attr interpolationmode none
attr recordingmode count
attr source packetDropReasonIsNoPortFound(packetDropped)
attr title "packets dropped (wrong port), count"
scalar MediumActivityMultipleNodesShowcase.destination.udp droppedPkBadChecksum:count 0
attr interpolationmode none
attr recordingmode count
attr source packetDropReasonIsIncorrectlyReceived(packetDropped)
attr title "packets dropped (checksum error), count"
scalar MediumActivityMultipleNodesShowcase.destination.app[0] packetReceived:count 99
attr interpolationmode none
attr recordingmode count
attr source packetReceived
attr title "packets received, count"
scalar MediumActivityMultipleNodesShowcase.destination.app[0] packetReceived:sum(packetBytes) 99000
attr interpolationmode none
attr recordingmode sum(packetBytes)
attr source packetReceived
attr title "packets received, sum(packetBytes)"
statistic MediumActivityMultipleNodesShowcase.destination.app[0] endToEndDelay:histogram
field count 99
field mean 0.00096633186622222
field stddev 0.00018926040561561
field min 0.000664109644
field max 0.001284109644
field sum 0.095666854756
field sqrsum 9.5956241403087e-05
attr interpolationmode none
attr recordingmode histogram
attr source dataAge(packetReceived)
attr title "end-to-end delay"
attr unit s
bin	-inf	0
bin	0.0005	0
bin	0.00052	0
bin	0.00054	0
bin	0.00056	0
bin	0.00058	0
bin	0.0006	0
bin	0.00062	0
bin	0.00064	0
bin	0.00066	4
bin	0.00068	2
bin	0.0007	4
bin	0.00072	5
bin	0.00074	3
bin	0.00076	2
bin	0.00078	4
bin	0.0008	0
bin	0.00082	6
bin	0.00084	4
bin	0.00086	2
bin	0.00088	4
bin	0.0009	0
bin	0.00092	6
bin	0.00094	4
bin	0.00096	5
bin	0.00098	1
bin	0.001	1
bin	0.00102	3
bin	0.00104	3
bin	0.00106	2
bin	0.00108	5
bin	0.0011	1
bin	0.00112	4
bin	0.00114	3
bin	0.00116	3
bin	0.00118	2
bin	0.0012	3
bin	0.00122	1
bin	0.00124	7
bin	0.00126	1
bin	0.00128	4
bin	0.0013	0
bin	0.00132	0
bin	0.00134	0
bin	0.00136	0
bin	0.00138	0
bin	0.0014	0
bin	0.00142	0
bin	0.00144	0

