version 3
run DisplayingSignalsTransmissionsReceptions-0-20250108-11:36:46-14062
attr configname DisplayingSignalsTransmissionsReceptions
attr datetime 20250108-11:36:46
attr datetimef 20250108-113646
attr experiment DisplayingSignalsTransmissionsReceptions
attr inifile omnetpp.ini
attr iterationvars ""
attr iterationvarsd ""
attr iterationvarsf ""
attr measurement ""
attr network MediumActivityDisplayingSignalsTransmissionsReceptionsShowcase
attr processid 14062
attr repetition 0
attr replication #0
attr resultdir results
attr runnumber 0
attr seedset 0
config **.param-recording false
config image-path /home/levy/workspace/inet/images
config output-scalar-file results/omnetpp.ini-DisplayingSignalsTransmissionsReceptions-#0.sca
config output-vector-file results/omnetpp.ini-DisplayingSignalsTransmissionsReceptions-#0.vec
config sim-time-limit 1000s
config sim-time-limit 1000s
config network MediumActivityDisplayingSignalsTransmissionsReceptionsShowcase
config description "Displaying signals, transmissions and receptions"
config *.host1.numApps 1
config *.host1.app[0].typename UdpBasicApp
config *.host1.app[*].destAddresses "\"host2\""
config *.host1.app[*].destPort 1000
config *.host1.app[*].messageLength 1000byte
config *.host1.app[*].sendInterval 10s
config *.host2.numApps 1
config *.host2.app[0].typename UdpSink
config *.host2.app[*].localPort 1000
config *.visualizer.mediumVisualizer.displaySignals true
config *.visualizer.mediumVisualizer.displaySignalArrivals true
config *.visualizer.mediumVisualizer.displaySignalDepartures true
config *.visualizer.mediumVisualizer.displayCommunicationRanges true
config *.visualizer.mediumVisualizer.displayInterferenceRanges true
config *.host*.wlan[*].radio.transmitter.power 10mW
config *.host*.forwarding true
config *.host*.wlan[*].mgmt.typename Ieee80211MgmtAdhoc
config *.host*.wlan[*].agent.typename ""
config **.arp.typename GlobalArp

scalar MediumActivityDisplayingSignalsTransmissionsReceptionsShowcase.host2.lo[0].lo rcvdPkFromHl:count 0
scalar MediumActivityDisplayingSignalsTransmissionsReceptionsShowcase.host2.lo[0].lo rcvdPkFromHl:sum(packetBytes) 0
scalar MediumActivityDisplayingSignalsTransmissionsReceptionsShowcase.host2.lo[0].lo passedUpPk:count 0
scalar MediumActivityDisplayingSignalsTransmissionsReceptionsShowcase.host2.lo[0].lo passedUpPk:sum(packetBytes) 0
scalar MediumActivityDisplayingSignalsTransmissionsReceptionsShowcase.host2.lo[0] packetDropInterfaceDown:count 0
scalar MediumActivityDisplayingSignalsTransmissionsReceptionsShowcase.host2.lo[0] packetDropInterfaceDown:sum(packetBytes) 0
scalar MediumActivityDisplayingSignalsTransmissionsReceptionsShowcase.host2.lo[0] packetDropNoCarrier:count 0
scalar MediumActivityDisplayingSignalsTransmissionsReceptionsShowcase.host2.lo[0] packetDropNoCarrier:sum(packetBytes) 0
scalar MediumActivityDisplayingSignalsTransmissionsReceptionsShowcase.host2.wlan[0].mac.dcf.channelAccess.pendingQueue queueLength:last 0
scalar MediumActivityDisplayingSignalsTransmissionsReceptionsShowcase.host2.wlan[0].mac.dcf.channelAccess.pendingQueue queueLength:max 0
scalar MediumActivityDisplayingSignalsTransmissionsReceptionsShowcase.host2.wlan[0].mac.dcf.channelAccess.pendingQueue queueLength:timeavg 0
scalar MediumActivityDisplayingSignalsTransmissionsReceptionsShowcase.host2.wlan[0].mac.dcf.channelAccess.pendingQueue queueBitLength:last 0
scalar MediumActivityDisplayingSignalsTransmissionsReceptionsShowcase.host2.wlan[0].mac.dcf.channelAccess.pendingQueue queueBitLength:max 0
scalar MediumActivityDisplayingSignalsTransmissionsReceptionsShowcase.host2.wlan[0].mac.dcf.channelAccess.pendingQueue queueBitLength:timeavg 0
scalar MediumActivityDisplayingSignalsTransmissionsReceptionsShowcase.host2.wlan[0].mac.dcf.channelAccess.pendingQueue outgoingPackets:count 0
scalar MediumActivityDisplayingSignalsTransmissionsReceptionsShowcase.host2.wlan[0].mac.dcf.channelAccess.pendingQueue outgoingPacketLengths:sum 0
scalar MediumActivityDisplayingSignalsTransmissionsReceptionsShowcase.host2.wlan[0].mac.dcf.channelAccess.pendingQueue incomingPackets:count 0
scalar MediumActivityDisplayingSignalsTransmissionsReceptionsShowcase.host2.wlan[0].mac.dcf.channelAccess.pendingQueue incomingPacketLengths:sum 0
scalar MediumActivityDisplayingSignalsTransmissionsReceptionsShowcase.host2.wlan[0].mac.dcf.channelAccess.pendingQueue droppedPacketsQueueOverflow:count 0
scalar MediumActivityDisplayingSignalsTransmissionsReceptionsShowcase.host2.wlan[0].mac.dcf.channelAccess.pendingQueue droppedPacketLengthsQueueOverflow:sum 0
scalar MediumActivityDisplayingSignalsTransmissionsReceptionsShowcase.host2.wlan[0].mac.dcf.channelAccess.inProgressFrames queueLength:max 0
scalar MediumActivityDisplayingSignalsTransmissionsReceptionsShowcase.host2.wlan[0].mac.dcf.channelAccess.inProgressFrames queueLength:timeavg 0
scalar MediumActivityDisplayingSignalsTransmissionsReceptionsShowcase.host2.wlan[0].mac.dcf.channelAccess.contention channelAccessGranted:count 0
scalar MediumActivityDisplayingSignalsTransmissionsReceptionsShowcase.host2.wlan[0].mac.dcf.channelAccess.contention stateChanged:count 794
scalar MediumActivityDisplayingSignalsTransmissionsReceptionsShowcase.host2.wlan[0].mac.dcf.channelAccess channelOwnershipChanged:count 0
scalar MediumActivityDisplayingSignalsTransmissionsReceptionsShowcase.host2.wlan[0].mac.dcf.originatorMacDataService packetAggregated:count 0
scalar MediumActivityDisplayingSignalsTransmissionsReceptionsShowcase.host2.wlan[0].mac.dcf.originatorMacDataService packetFragmented:count 0
scalar MediumActivityDisplayingSignalsTransmissionsReceptionsShowcase.host2.wlan[0].mac.dcf.recipientMacDataService packetDeaggregated:count 0
scalar MediumActivityDisplayingSignalsTransmissionsReceptionsShowcase.host2.wlan[0].mac.dcf.recipientMacDataService packetDefragmented:count 99
scalar MediumActivityDisplayingSignalsTransmissionsReceptionsShowcase.host2.wlan[0].mac.dcf.recipientMacDataService packetDropDuplicateDetected:count 0
scalar MediumActivityDisplayingSignalsTransmissionsReceptionsShowcase.host2.wlan[0].mac.dcf.recipientMacDataService packetDropDuplicateDetected:sum(packetBytes) 0
scalar MediumActivityDisplayingSignalsTransmissionsReceptionsShowcase.host2.wlan[0].mac.dcf.recoveryProcedure retryLimitReached:count 0
scalar MediumActivityDisplayingSignalsTransmissionsReceptionsShowcase.host2.wlan[0].mac.dcf frameSequenceFinished:count 0
scalar MediumActivityDisplayingSignalsTransmissionsReceptionsShowcase.host2.wlan[0].mac.dcf packetReceivedFromPeer:count 99
scalar MediumActivityDisplayingSignalsTransmissionsReceptionsShowcase.host2.wlan[0].mac.dcf packetReceivedFromPeer:sum(packetBytes) 105336
scalar MediumActivityDisplayingSignalsTransmissionsReceptionsShowcase.host2.wlan[0].mac.dcf packetReceivedFromPeerUnicast:count 99
scalar MediumActivityDisplayingSignalsTransmissionsReceptionsShowcase.host2.wlan[0].mac.dcf packetReceivedFromPeerUnicast:sum(packetBytes) 105336
scalar MediumActivityDisplayingSignalsTransmissionsReceptionsShowcase.host2.wlan[0].mac.dcf packetReceivedFromPeerMulticast:count 0
scalar MediumActivityDisplayingSignalsTransmissionsReceptionsShowcase.host2.wlan[0].mac.dcf packetReceivedFromPeerMulticast:sum(packetBytes) 0
scalar MediumActivityDisplayingSignalsTransmissionsReceptionsShowcase.host2.wlan[0].mac.dcf packetReceivedFromPeerBroadcast:count 0
scalar MediumActivityDisplayingSignalsTransmissionsReceptionsShowcase.host2.wlan[0].mac.dcf packetReceivedFromPeerBroadcast:sum(packetBytes) 0
scalar MediumActivityDisplayingSignalsTransmissionsReceptionsShowcase.host2.wlan[0].mac.dcf packetReceivedFromPeerWithRetry:count 0
scalar MediumActivityDisplayingSignalsTransmissionsReceptionsShowcase.host2.wlan[0].mac.dcf packetReceivedFromPeerWithRetry:sum(packetBytes) 0
scalar MediumActivityDisplayingSignalsTransmissionsReceptionsShowcase.host2.wlan[0].mac.dcf packetReceivedFromPeerWithoutRetry:count 99
scalar MediumActivityDisplayingSignalsTransmissionsReceptionsShowcase.host2.wlan[0].mac.dcf packetReceivedFromPeerWithoutRetry:sum(packetBytes) 105336
scalar MediumActivityDisplayingSignalsTransmissionsReceptionsShowcase.host2.wlan[0].mac.dcf packetSentToPeer:count 99
scalar MediumActivityDisplayingSignalsTransmissionsReceptionsShowcase.host2.wlan[0].mac.dcf packetSentToPeer:sum(packetBytes) 1386
scalar MediumActivityDisplayingSignalsTransmissionsReceptionsShowcase.host2.wlan[0].mac.dcf packetSentToPeerUnicast:count 99
scalar MediumActivityDisplayingSignalsTransmissionsReceptionsShowcase.host2.wlan[0].mac.dcf packetSentToPeerUnicast:sum(packetBytes) 1386
scalar MediumActivityDisplayingSignalsTransmissionsReceptionsShowcase.host2.wlan[0].mac.dcf packetSentToPeerMulticast:count 0
scalar MediumActivityDisplayingSignalsTransmissionsReceptionsShowcase.host2.wlan[0].mac.dcf packetSentToPeerMulticast:sum(packetBytes) 0
scalar MediumActivityDisplayingSignalsTransmissionsReceptionsShowcase.host2.wlan[0].mac.dcf packetSentToPeerBroadcast:count 0
scalar MediumActivityDisplayingSignalsTransmissionsReceptionsShowcase.host2.wlan[0].mac.dcf packetSentToPeerBroadcast:sum(packetBytes) 0
scalar MediumActivityDisplayingSignalsTransmissionsReceptionsShowcase.host2.wlan[0].mac.dcf packetSentToPeerWithRetry:count 0
scalar MediumActivityDisplayingSignalsTransmissionsReceptionsShowcase.host2.wlan[0].mac.dcf packetSentToPeerWithRetry:sum(packetBytes) 0
scalar MediumActivityDisplayingSignalsTransmissionsReceptionsShowcase.host2.wlan[0].mac.dcf packetSentToPeerWithoutRetry:count 99
scalar MediumActivityDisplayingSignalsTransmissionsReceptionsShowcase.host2.wlan[0].mac.dcf packetSentToPeerWithoutRetry:sum(packetBytes) 1386
scalar MediumActivityDisplayingSignalsTransmissionsReceptionsShowcase.host2.wlan[0].mac.dcf packetDrop:count 0
scalar MediumActivityDisplayingSignalsTransmissionsReceptionsShowcase.host2.wlan[0].mac.dcf packetDrop:sum(packetBytes) 0
scalar MediumActivityDisplayingSignalsTransmissionsReceptionsShowcase.host2.wlan[0].mac.dcf packetDropNotAddressedToUs:count 0
scalar MediumActivityDisplayingSignalsTransmissionsReceptionsShowcase.host2.wlan[0].mac.dcf packetDropNotAddressedToUs:sum(packetBytes) 0
scalar MediumActivityDisplayingSignalsTransmissionsReceptionsShowcase.host2.wlan[0].mac.dcf packetDropQueueOverflow:count 0
scalar MediumActivityDisplayingSignalsTransmissionsReceptionsShowcase.host2.wlan[0].mac.dcf packetDropQueueOverflow:sum(packetBytes) 0
scalar MediumActivityDisplayingSignalsTransmissionsReceptionsShowcase.host2.wlan[0].mac.dcf packetDropRetryLimitReached:count 0
scalar MediumActivityDisplayingSignalsTransmissionsReceptionsShowcase.host2.wlan[0].mac.dcf packetDropRetryLimitReached:sum(packetBytes) 0
scalar MediumActivityDisplayingSignalsTransmissionsReceptionsShowcase.host2.wlan[0].mac.dcf linkBroken:count 0
scalar MediumActivityDisplayingSignalsTransmissionsReceptionsShowcase.host2.wlan[0].mac packetReceivedFromLower:count 99
scalar MediumActivityDisplayingSignalsTransmissionsReceptionsShowcase.host2.wlan[0].mac packetReceivedFromLower:sum(packetBytes) 105336
scalar MediumActivityDisplayingSignalsTransmissionsReceptionsShowcase.host2.wlan[0].mac packetSentToLower:count 99
scalar MediumActivityDisplayingSignalsTransmissionsReceptionsShowcase.host2.wlan[0].mac packetSentToLower:sum(packetBytes) 1386
scalar MediumActivityDisplayingSignalsTransmissionsReceptionsShowcase.host2.wlan[0].mac packetReceivedFromUpper:count 0
scalar MediumActivityDisplayingSignalsTransmissionsReceptionsShowcase.host2.wlan[0].mac packetReceivedFromUpper:sum(packetBytes) 0
scalar MediumActivityDisplayingSignalsTransmissionsReceptionsShowcase.host2.wlan[0].mac packetSentToUpper:count 99
scalar MediumActivityDisplayingSignalsTransmissionsReceptionsShowcase.host2.wlan[0].mac packetSentToUpper:sum(packetBytes) 102564
scalar MediumActivityDisplayingSignalsTransmissionsReceptionsShowcase.host2.wlan[0].mac packetDrop:count 0
scalar MediumActivityDisplayingSignalsTransmissionsReceptionsShowcase.host2.wlan[0].mac packetDrop:sum(packetBytes) 0
scalar MediumActivityDisplayingSignalsTransmissionsReceptionsShowcase.host2.wlan[0].mac packetDropIncorrectlyReceived:count 0
scalar MediumActivityDisplayingSignalsTransmissionsReceptionsShowcase.host2.wlan[0].mac packetDropIncorrectlyReceived:sum(packetBytes) 0
scalar MediumActivityDisplayingSignalsTransmissionsReceptionsShowcase.host2.wlan[0].mac packetDropNotAddressedToUs:count 0
scalar MediumActivityDisplayingSignalsTransmissionsReceptionsShowcase.host2.wlan[0].mac packetDropNotAddressedToUs:sum(packetBytes) 0
scalar MediumActivityDisplayingSignalsTransmissionsReceptionsShowcase.host2.wlan[0].mac packetDropQueueOverflow:count 0
scalar MediumActivityDisplayingSignalsTransmissionsReceptionsShowcase.host2.wlan[0].mac packetDropQueueOverflow:sum(packetBytes) 0
scalar MediumActivityDisplayingSignalsTransmissionsReceptionsShowcase.host2.wlan[0].mac packetDropRetryLimitReached:count 0
scalar MediumActivityDisplayingSignalsTransmissionsReceptionsShowcase.host2.wlan[0].mac packetDropRetryLimitReached:sum(packetBytes) 0
scalar MediumActivityDisplayingSignalsTransmissionsReceptionsShowcase.host2.wlan[0].mac packetDropDuplicateDetected:count 0
scalar MediumActivityDisplayingSignalsTransmissionsReceptionsShowcase.host2.wlan[0].mac packetDropDuplicateDetected:sum(packetBytes) 0
scalar MediumActivityDisplayingSignalsTransmissionsReceptionsShowcase.host2.wlan[0].mac packetDropOther:count 0
scalar MediumActivityDisplayingSignalsTransmissionsReceptionsShowcase.host2.wlan[0].mac packetDropOther:sum(packetBytes) 0
scalar MediumActivityDisplayingSignalsTransmissionsReceptionsShowcase.host2.wlan[0].mac linkBroken:count 0
scalar MediumActivityDisplayingSignalsTransmissionsReceptionsShowcase.host2.wlan[0].radio radioMode:count 201
scalar MediumActivityDisplayingSignalsTransmissionsReceptionsShowcase.host2.wlan[0].radio receptionState:count 397
scalar MediumActivityDisplayingSignalsTransmissionsReceptionsShowcase.host2.wlan[0].radio transmissionState:count 396
scalar MediumActivityDisplayingSignalsTransmissionsReceptionsShowcase.host2.wlan[0] packetDropInterfaceDown:count 0
scalar MediumActivityDisplayingSignalsTransmissionsReceptionsShowcase.host2.wlan[0] packetDropInterfaceDown:sum(packetBytes) 0
scalar MediumActivityDisplayingSignalsTransmissionsReceptionsShowcase.host2.wlan[0] packetDropNoCarrier:count 0
scalar MediumActivityDisplayingSignalsTransmissionsReceptionsShowcase.host2.wlan[0] packetDropNoCarrier:sum(packetBytes) 0
scalar MediumActivityDisplayingSignalsTransmissionsReceptionsShowcase.host2.ipv4.ip packetDropAddressResolutionFailed:count 0
scalar MediumActivityDisplayingSignalsTransmissionsReceptionsShowcase.host2.ipv4.ip packetDropAddressResolutionFailed:sum(packetBytes) 0
scalar MediumActivityDisplayingSignalsTransmissionsReceptionsShowcase.host2.ipv4.ip packetDropHopLimitReached:count 0
scalar MediumActivityDisplayingSignalsTransmissionsReceptionsShowcase.host2.ipv4.ip packetDropHopLimitReached:sum(packetBytes) 0
scalar MediumActivityDisplayingSignalsTransmissionsReceptionsShowcase.host2.ipv4.ip packetDropForwardingDisabled:count 0
scalar MediumActivityDisplayingSignalsTransmissionsReceptionsShowcase.host2.ipv4.ip packetDropForwardingDisabled:sum(packetBytes) 0
scalar MediumActivityDisplayingSignalsTransmissionsReceptionsShowcase.host2.ipv4.ip packetDropLifetimeExpired:count 0
scalar MediumActivityDisplayingSignalsTransmissionsReceptionsShowcase.host2.ipv4.ip packetDropLifetimeExpired:sum(packetBytes) 0
scalar MediumActivityDisplayingSignalsTransmissionsReceptionsShowcase.host2.ipv4.ip packetDropNoInterfaceFound:count 0
scalar MediumActivityDisplayingSignalsTransmissionsReceptionsShowcase.host2.ipv4.ip packetDropNoInterfaceFound:sum(packetBytes) 0
scalar MediumActivityDisplayingSignalsTransmissionsReceptionsShowcase.host2.ipv4.ip packetDropNoRouteFound:count 0
scalar MediumActivityDisplayingSignalsTransmissionsReceptionsShowcase.host2.ipv4.ip packetDropNoRouteFound:sum(packetBytes) 0
scalar MediumActivityDisplayingSignalsTransmissionsReceptionsShowcase.host2.ipv4.ip packetDropUndefined:count 0
scalar MediumActivityDisplayingSignalsTransmissionsReceptionsShowcase.host2.ipv4.ip packetDropUndefined:sum(packetBytes) 0
scalar MediumActivityDisplayingSignalsTransmissionsReceptionsShowcase.host2.udp packetReceived:count 99
scalar MediumActivityDisplayingSignalsTransmissionsReceptionsShowcase.host2.udp packetReceived:sum(packetBytes) 99792
scalar MediumActivityDisplayingSignalsTransmissionsReceptionsShowcase.host2.udp packetSent:count 0
scalar MediumActivityDisplayingSignalsTransmissionsReceptionsShowcase.host2.udp packetSent:sum(packetBytes) 0
scalar MediumActivityDisplayingSignalsTransmissionsReceptionsShowcase.host2.udp passedUpPk:count 99
scalar MediumActivityDisplayingSignalsTransmissionsReceptionsShowcase.host2.udp droppedPkWrongPort:count 0
scalar MediumActivityDisplayingSignalsTransmissionsReceptionsShowcase.host2.udp droppedPkBadChecksum:count 0
scalar MediumActivityDisplayingSignalsTransmissionsReceptionsShowcase.host2.app[0] packetReceived:count 99
scalar MediumActivityDisplayingSignalsTransmissionsReceptionsShowcase.host2.app[0] packetReceived:sum(packetBytes) 99000
scalar MediumActivityDisplayingSignalsTransmissionsReceptionsShowcase.radioMedium.propagation "Arrival computation count" 199
scalar MediumActivityDisplayingSignalsTransmissionsReceptionsShowcase.radioMedium "transmission count" 199
scalar MediumActivityDisplayingSignalsTransmissionsReceptionsShowcase.radioMedium "signal send count" 199
scalar MediumActivityDisplayingSignalsTransmissionsReceptionsShowcase.radioMedium "reception computation count" 198
scalar MediumActivityDisplayingSignalsTransmissionsReceptionsShowcase.radioMedium "interference computation count" 796
scalar MediumActivityDisplayingSignalsTransmissionsReceptionsShowcase.radioMedium "reception decision computation count" 198
scalar MediumActivityDisplayingSignalsTransmissionsReceptionsShowcase.radioMedium "listening decision computation count" 400
scalar MediumActivityDisplayingSignalsTransmissionsReceptionsShowcase.radioMedium "reception cache hit" 85.714285714286
scalar MediumActivityDisplayingSignalsTransmissionsReceptionsShowcase.radioMedium "interference cache hit" 66.666666666667
scalar MediumActivityDisplayingSignalsTransmissionsReceptionsShowcase.radioMedium "noise cache hit" 0
scalar MediumActivityDisplayingSignalsTransmissionsReceptionsShowcase.radioMedium "snir cache hit" 50
scalar MediumActivityDisplayingSignalsTransmissionsReceptionsShowcase.radioMedium "reception decision cache hit" 50
scalar MediumActivityDisplayingSignalsTransmissionsReceptionsShowcase.radioMedium "reception result cache hit" 0
scalar MediumActivityDisplayingSignalsTransmissionsReceptionsShowcase.host1.lo[0].lo rcvdPkFromHl:count 0
scalar MediumActivityDisplayingSignalsTransmissionsReceptionsShowcase.host1.lo[0].lo rcvdPkFromHl:sum(packetBytes) 0
scalar MediumActivityDisplayingSignalsTransmissionsReceptionsShowcase.host1.lo[0].lo passedUpPk:count 0
scalar MediumActivityDisplayingSignalsTransmissionsReceptionsShowcase.host1.lo[0].lo passedUpPk:sum(packetBytes) 0
scalar MediumActivityDisplayingSignalsTransmissionsReceptionsShowcase.host1.lo[0] packetDropInterfaceDown:count 0
scalar MediumActivityDisplayingSignalsTransmissionsReceptionsShowcase.host1.lo[0] packetDropInterfaceDown:sum(packetBytes) 0
scalar MediumActivityDisplayingSignalsTransmissionsReceptionsShowcase.host1.lo[0] packetDropNoCarrier:count 0
scalar MediumActivityDisplayingSignalsTransmissionsReceptionsShowcase.host1.lo[0] packetDropNoCarrier:sum(packetBytes) 0
scalar MediumActivityDisplayingSignalsTransmissionsReceptionsShowcase.host1.wlan[0].mac.dcf.channelAccess.pendingQueue queueLength:last 0
scalar MediumActivityDisplayingSignalsTransmissionsReceptionsShowcase.host1.wlan[0].mac.dcf.channelAccess.pendingQueue queueLength:max 1
scalar MediumActivityDisplayingSignalsTransmissionsReceptionsShowcase.host1.wlan[0].mac.dcf.channelAccess.pendingQueue queueLength:timeavg 0
scalar MediumActivityDisplayingSignalsTransmissionsReceptionsShowcase.host1.wlan[0].mac.dcf.channelAccess.pendingQueue queueBitLength:last 0
scalar MediumActivityDisplayingSignalsTransmissionsReceptionsShowcase.host1.wlan[0].mac.dcf.channelAccess.pendingQueue queueBitLength:max 8512
scalar MediumActivityDisplayingSignalsTransmissionsReceptionsShowcase.host1.wlan[0].mac.dcf.channelAccess.pendingQueue queueBitLength:timeavg 0
scalar MediumActivityDisplayingSignalsTransmissionsReceptionsShowcase.host1.wlan[0].mac.dcf.channelAccess.pendingQueue outgoingPackets:count 100
scalar MediumActivityDisplayingSignalsTransmissionsReceptionsShowcase.host1.wlan[0].mac.dcf.channelAccess.pendingQueue outgoingPacketLengths:sum 851200
scalar MediumActivityDisplayingSignalsTransmissionsReceptionsShowcase.host1.wlan[0].mac.dcf.channelAccess.pendingQueue incomingPackets:count 100
scalar MediumActivityDisplayingSignalsTransmissionsReceptionsShowcase.host1.wlan[0].mac.dcf.channelAccess.pendingQueue incomingPacketLengths:sum 851200
scalar MediumActivityDisplayingSignalsTransmissionsReceptionsShowcase.host1.wlan[0].mac.dcf.channelAccess.pendingQueue droppedPacketsQueueOverflow:count 0
scalar MediumActivityDisplayingSignalsTransmissionsReceptionsShowcase.host1.wlan[0].mac.dcf.channelAccess.pendingQueue droppedPacketLengthsQueueOverflow:sum 0
scalar MediumActivityDisplayingSignalsTransmissionsReceptionsShowcase.host1.wlan[0].mac.dcf.channelAccess.inProgressFrames queueLength:max 1
scalar MediumActivityDisplayingSignalsTransmissionsReceptionsShowcase.host1.wlan[0].mac.dcf.channelAccess.inProgressFrames queueLength:timeavg 4.2482199276e-05
scalar MediumActivityDisplayingSignalsTransmissionsReceptionsShowcase.host1.wlan[0].mac.dcf.channelAccess.contention channelAccessGranted:count 100
scalar MediumActivityDisplayingSignalsTransmissionsReceptionsShowcase.host1.wlan[0].mac.dcf.channelAccess.contention stateChanged:count 800
scalar MediumActivityDisplayingSignalsTransmissionsReceptionsShowcase.host1.wlan[0].mac.dcf.channelAccess channelOwnershipChanged:count 199
scalar MediumActivityDisplayingSignalsTransmissionsReceptionsShowcase.host1.wlan[0].mac.dcf.originatorMacDataService packetAggregated:count 0
scalar MediumActivityDisplayingSignalsTransmissionsReceptionsShowcase.host1.wlan[0].mac.dcf.originatorMacDataService packetFragmented:count 0
scalar MediumActivityDisplayingSignalsTransmissionsReceptionsShowcase.host1.wlan[0].mac.dcf.recipientMacDataService packetDeaggregated:count 0
scalar MediumActivityDisplayingSignalsTransmissionsReceptionsShowcase.host1.wlan[0].mac.dcf.recipientMacDataService packetDefragmented:count 0
scalar MediumActivityDisplayingSignalsTransmissionsReceptionsShowcase.host1.wlan[0].mac.dcf.recipientMacDataService packetDropDuplicateDetected:count 0
scalar MediumActivityDisplayingSignalsTransmissionsReceptionsShowcase.host1.wlan[0].mac.dcf.recipientMacDataService packetDropDuplicateDetected:sum(packetBytes) 0
scalar MediumActivityDisplayingSignalsTransmissionsReceptionsShowcase.host1.wlan[0].mac.dcf.recoveryProcedure retryLimitReached:count 0
scalar MediumActivityDisplayingSignalsTransmissionsReceptionsShowcase.host1.wlan[0].mac.dcf frameSequenceFinished:count 99
scalar MediumActivityDisplayingSignalsTransmissionsReceptionsShowcase.host1.wlan[0].mac.dcf packetReceivedFromPeer:count 99
scalar MediumActivityDisplayingSignalsTransmissionsReceptionsShowcase.host1.wlan[0].mac.dcf packetReceivedFromPeer:sum(packetBytes) 1386
scalar MediumActivityDisplayingSignalsTransmissionsReceptionsShowcase.host1.wlan[0].mac.dcf packetReceivedFromPeerUnicast:count 99
scalar MediumActivityDisplayingSignalsTransmissionsReceptionsShowcase.host1.wlan[0].mac.dcf packetReceivedFromPeerUnicast:sum(packetBytes) 1386
scalar MediumActivityDisplayingSignalsTransmissionsReceptionsShowcase.host1.wlan[0].mac.dcf packetReceivedFromPeerMulticast:count 0
scalar MediumActivityDisplayingSignalsTransmissionsReceptionsShowcase.host1.wlan[0].mac.dcf packetReceivedFromPeerMulticast:sum(packetBytes) 0
scalar MediumActivityDisplayingSignalsTransmissionsReceptionsShowcase.host1.wlan[0].mac.dcf packetReceivedFromPeerBroadcast:count 0
scalar MediumActivityDisplayingSignalsTransmissionsReceptionsShowcase.host1.wlan[0].mac.dcf packetReceivedFromPeerBroadcast:sum(packetBytes) 0
scalar MediumActivityDisplayingSignalsTransmissionsReceptionsShowcase.host1.wlan[0].mac.dcf packetReceivedFromPeerWithRetry:count 0
scalar MediumActivityDisplayingSignalsTransmissionsReceptionsShowcase.host1.wlan[0].mac.dcf packetReceivedFromPeerWithRetry:sum(packetBytes) 0
scalar MediumActivityDisplayingSignalsTransmissionsReceptionsShowcase.host1.wlan[0].mac.dcf packetReceivedFromPeerWithoutRetry:count 99
scalar MediumActivityDisplayingSignalsTransmissionsReceptionsShowcase.host1.wlan[0].mac.dcf packetReceivedFromPeerWithoutRetry:sum(packetBytes) 1386
scalar MediumActivityDisplayingSignalsTransmissionsReceptionsShowcase.host1.wlan[0].mac.dcf packetSentToPeer:count 99
scalar MediumActivityDisplayingSignalsTransmissionsReceptionsShowcase.host1.wlan[0].mac.dcf packetSentToPeer:sum(packetBytes) 105336
scalar MediumActivityDisplayingSignalsTransmissionsReceptionsShowcase.host1.wlan[0].mac.dcf packetSentToPeerUnicast:count 99
scalar MediumActivityDisplayingSignalsTransmissionsReceptionsShowcase.host1.wlan[0].mac.dcf packetSentToPeerUnicast:sum(packetBytes) 105336
scalar MediumActivityDisplayingSignalsTransmissionsReceptionsShowcase.host1.wlan[0].mac.dcf packetSentToPeerMulticast:count 0
scalar MediumActivityDisplayingSignalsTransmissionsReceptionsShowcase.host1.wlan[0].mac.dcf packetSentToPeerMulticast:sum(packetBytes) 0
scalar MediumActivityDisplayingSignalsTransmissionsReceptionsShowcase.host1.wlan[0].mac.dcf packetSentToPeerBroadcast:count 0
scalar MediumActivityDisplayingSignalsTransmissionsReceptionsShowcase.host1.wlan[0].mac.dcf packetSentToPeerBroadcast:sum(packetBytes) 0
scalar MediumActivityDisplayingSignalsTransmissionsReceptionsShowcase.host1.wlan[0].mac.dcf packetSentToPeerWithRetry:count 0
scalar MediumActivityDisplayingSignalsTransmissionsReceptionsShowcase.host1.wlan[0].mac.dcf packetSentToPeerWithRetry:sum(packetBytes) 0
scalar MediumActivityDisplayingSignalsTransmissionsReceptionsShowcase.host1.wlan[0].mac.dcf packetSentToPeerWithoutRetry:count 99
scalar MediumActivityDisplayingSignalsTransmissionsReceptionsShowcase.host1.wlan[0].mac.dcf packetSentToPeerWithoutRetry:sum(packetBytes) 105336
scalar MediumActivityDisplayingSignalsTransmissionsReceptionsShowcase.host1.wlan[0].mac.dcf packetDrop:count 0
scalar MediumActivityDisplayingSignalsTransmissionsReceptionsShowcase.host1.wlan[0].mac.dcf packetDrop:sum(packetBytes) 0
scalar MediumActivityDisplayingSignalsTransmissionsReceptionsShowcase.host1.wlan[0].mac.dcf packetDropNotAddressedToUs:count 0
scalar MediumActivityDisplayingSignalsTransmissionsReceptionsShowcase.host1.wlan[0].mac.dcf packetDropNotAddressedToUs:sum(packetBytes) 0
scalar MediumActivityDisplayingSignalsTransmissionsReceptionsShowcase.host1.wlan[0].mac.dcf packetDropQueueOverflow:count 0
scalar MediumActivityDisplayingSignalsTransmissionsReceptionsShowcase.host1.wlan[0].mac.dcf packetDropQueueOverflow:sum(packetBytes) 0
scalar MediumActivityDisplayingSignalsTransmissionsReceptionsShowcase.host1.wlan[0].mac.dcf packetDropRetryLimitReached:count 0
scalar MediumActivityDisplayingSignalsTransmissionsReceptionsShowcase.host1.wlan[0].mac.dcf packetDropRetryLimitReached:sum(packetBytes) 0
scalar MediumActivityDisplayingSignalsTransmissionsReceptionsShowcase.host1.wlan[0].mac.dcf linkBroken:count 0
scalar MediumActivityDisplayingSignalsTransmissionsReceptionsShowcase.host1.wlan[0].mac packetReceivedFromLower:count 99
scalar MediumActivityDisplayingSignalsTransmissionsReceptionsShowcase.host1.wlan[0].mac packetReceivedFromLower:sum(packetBytes) 1386
scalar MediumActivityDisplayingSignalsTransmissionsReceptionsShowcase.host1.wlan[0].mac packetSentToLower:count 100
scalar MediumActivityDisplayingSignalsTransmissionsReceptionsShowcase.host1.wlan[0].mac packetSentToLower:sum(packetBytes) 106400
scalar MediumActivityDisplayingSignalsTransmissionsReceptionsShowcase.host1.wlan[0].mac packetReceivedFromUpper:count 100
scalar MediumActivityDisplayingSignalsTransmissionsReceptionsShowcase.host1.wlan[0].mac packetReceivedFromUpper:sum(packetBytes) 103600
scalar MediumActivityDisplayingSignalsTransmissionsReceptionsShowcase.host1.wlan[0].mac packetSentToUpper:count 0
scalar MediumActivityDisplayingSignalsTransmissionsReceptionsShowcase.host1.wlan[0].mac packetSentToUpper:sum(packetBytes) 0
scalar MediumActivityDisplayingSignalsTransmissionsReceptionsShowcase.host1.wlan[0].mac packetDrop:count 0
scalar MediumActivityDisplayingSignalsTransmissionsReceptionsShowcase.host1.wlan[0].mac packetDrop:sum(packetBytes) 0
scalar MediumActivityDisplayingSignalsTransmissionsReceptionsShowcase.host1.wlan[0].mac packetDropIncorrectlyReceived:count 0
scalar MediumActivityDisplayingSignalsTransmissionsReceptionsShowcase.host1.wlan[0].mac packetDropIncorrectlyReceived:sum(packetBytes) 0
scalar MediumActivityDisplayingSignalsTransmissionsReceptionsShowcase.host1.wlan[0].mac packetDropNotAddressedToUs:count 0
scalar MediumActivityDisplayingSignalsTransmissionsReceptionsShowcase.host1.wlan[0].mac packetDropNotAddressedToUs:sum(packetBytes) 0
scalar MediumActivityDisplayingSignalsTransmissionsReceptionsShowcase.host1.wlan[0].mac packetDropQueueOverflow:count 0
scalar MediumActivityDisplayingSignalsTransmissionsReceptionsShowcase.host1.wlan[0].mac packetDropQueueOverflow:sum(packetBytes) 0
scalar MediumActivityDisplayingSignalsTransmissionsReceptionsShowcase.host1.wlan[0].mac packetDropRetryLimitReached:count 0
scalar MediumActivityDisplayingSignalsTransmissionsReceptionsShowcase.host1.wlan[0].mac packetDropRetryLimitReached:sum(packetBytes) 0
scalar MediumActivityDisplayingSignalsTransmissionsReceptionsShowcase.host1.wlan[0].mac packetDropDuplicateDetected:count 0
scalar MediumActivityDisplayingSignalsTransmissionsReceptionsShowcase.host1.wlan[0].mac packetDropDuplicateDetected:sum(packetBytes) 0
scalar MediumActivityDisplayingSignalsTransmissionsReceptionsShowcase.host1.wlan[0].mac packetDropOther:count 0
scalar MediumActivityDisplayingSignalsTransmissionsReceptionsShowcase.host1.wlan[0].mac packetDropOther:sum(packetBytes) 0
scalar MediumActivityDisplayingSignalsTransmissionsReceptionsShowcase.host1.wlan[0].mac linkBroken:count 0
scalar MediumActivityDisplayingSignalsTransmissionsReceptionsShowcase.host1.wlan[0].radio radioMode:count 202
scalar MediumActivityDisplayingSignalsTransmissionsReceptionsShowcase.host1.wlan[0].radio receptionState:count 398
scalar MediumActivityDisplayingSignalsTransmissionsReceptionsShowcase.host1.wlan[0].radio transmissionState:count 398
scalar MediumActivityDisplayingSignalsTransmissionsReceptionsShowcase.host1.wlan[0] packetDropInterfaceDown:count 0
scalar MediumActivityDisplayingSignalsTransmissionsReceptionsShowcase.host1.wlan[0] packetDropInterfaceDown:sum(packetBytes) 0
scalar MediumActivityDisplayingSignalsTransmissionsReceptionsShowcase.host1.wlan[0] packetDropNoCarrier:count 0
scalar MediumActivityDisplayingSignalsTransmissionsReceptionsShowcase.host1.wlan[0] packetDropNoCarrier:sum(packetBytes) 0
scalar MediumActivityDisplayingSignalsTransmissionsReceptionsShowcase.host1.ipv4.ip packetDropAddressResolutionFailed:count 0
scalar MediumActivityDisplayingSignalsTransmissionsReceptionsShowcase.host1.ipv4.ip packetDropAddressResolutionFailed:sum(packetBytes) 0
scalar MediumActivityDisplayingSignalsTransmissionsReceptionsShowcase.host1.ipv4.ip packetDropHopLimitReached:count 0
scalar MediumActivityDisplayingSignalsTransmissionsReceptionsShowcase.host1.ipv4.ip packetDropHopLimitReached:sum(packetBytes) 0
scalar MediumActivityDisplayingSignalsTransmissionsReceptionsShowcase.host1.ipv4.ip packetDropForwardingDisabled:count 0
scalar MediumActivityDisplayingSignalsTransmissionsReceptionsShowcase.host1.ipv4.ip packetDropForwardingDisabled:sum(packetBytes) 0
scalar MediumActivityDisplayingSignalsTransmissionsReceptionsShowcase.host1.ipv4.ip packetDropLifetimeExpired:count 0
scalar MediumActivityDisplayingSignalsTransmissionsReceptionsShowcase.host1.ipv4.ip packetDropLifetimeExpired:sum(packetBytes) 0
scalar MediumActivityDisplayingSignalsTransmissionsReceptionsShowcase.host1.ipv4.ip packetDropNoInterfaceFound:count 0
scalar MediumActivityDisplayingSignalsTransmissionsReceptionsShowcase.host1.ipv4.ip packetDropNoInterfaceFound:sum(packetBytes) 0
scalar MediumActivityDisplayingSignalsTransmissionsReceptionsShowcase.host1.ipv4.ip packetDropNoRouteFound:count 0
scalar MediumActivityDisplayingSignalsTransmissionsReceptionsShowcase.host1.ipv4.ip packetDropNoRouteFound:sum(packetBytes) 0
scalar MediumActivityDisplayingSignalsTransmissionsReceptionsShowcase.host1.ipv4.ip packetDropUndefined:count 0
scalar MediumActivityDisplayingSignalsTransmissionsReceptionsShowcase.host1.ipv4.ip packetDropUndefined:sum(packetBytes) 0
scalar MediumActivityDisplayingSignalsTransmissionsReceptionsShowcase.host1.udp packetReceived:count 0
scalar MediumActivityDisplayingSignalsTransmissionsReceptionsShowcase.host1.udp packetReceived:sum(packetBytes) 0
scalar MediumActivityDisplayingSignalsTransmissionsReceptionsShowcase.host1.udp packetSent:count 100
scalar MediumActivityDisplayingSignalsTransmissionsReceptionsShowcase.host1.udp packetSent:sum(packetBytes) 100800
scalar MediumActivityDisplayingSignalsTransmissionsReceptionsShowcase.host1.udp passedUpPk:count 0
scalar MediumActivityDisplayingSignalsTransmissionsReceptionsShowcase.host1.udp droppedPkWrongPort:count 0
scalar MediumActivityDisplayingSignalsTransmissionsReceptionsShowcase.host1.udp droppedPkBadChecksum:count 0
scalar MediumActivityDisplayingSignalsTransmissionsReceptionsShowcase.host1.app[0] "packets sent" 100
scalar MediumActivityDisplayingSignalsTransmissionsReceptionsShowcase.host1.app[0] "packets received" 0
scalar MediumActivityDisplayingSignalsTransmissionsReceptionsShowcase.host1.app[0] packetReceived:count 0
scalar MediumActivityDisplayingSignalsTransmissionsReceptionsShowcase.host1.app[0] packetReceived:sum(packetBytes) 0
scalar MediumActivityDisplayingSignalsTransmissionsReceptionsShowcase.host1.app[0] packetSent:count 100
scalar MediumActivityDisplayingSignalsTransmissionsReceptionsShowcase.host1.app[0] packetSent:sum(packetBytes) 100000
scalar MediumActivityDisplayingSignalsTransmissionsReceptionsShowcase.host1.app[0] rcvdPkLifetime:stats:count 0
scalar MediumActivityDisplayingSignalsTransmissionsReceptionsShowcase.host1.app[0] rcvdPkLifetime:stats:sumweights 0
scalar MediumActivityDisplayingSignalsTransmissionsReceptionsShowcase.host1.app[0] rcvdPkLifetime:stats:mean -nan
scalar MediumActivityDisplayingSignalsTransmissionsReceptionsShowcase.host1.app[0] rcvdPkLifetime:stats:stddev nan
scalar MediumActivityDisplayingSignalsTransmissionsReceptionsShowcase.host1.app[0] rcvdPkLifetime:stats:min nan
scalar MediumActivityDisplayingSignalsTransmissionsReceptionsShowcase.host1.app[0] rcvdPkLifetime:stats:max nan
scalar MediumActivityDisplayingSignalsTransmissionsReceptionsShowcase.host1.app[0] rcvdPkLifetime:stats:numbins 0
scalar MediumActivityDisplayingSignalsTransmissionsReceptionsShowcase.host2.wlan[0].mac.dcf.channelAccess.pendingQueue queueingTime:histogram:count 0
scalar MediumActivityDisplayingSignalsTransmissionsReceptionsShowcase.host2.wlan[0].mac.dcf.channelAccess.pendingQueue queueingTime:histogram:sumweights 0
scalar MediumActivityDisplayingSignalsTransmissionsReceptionsShowcase.host2.wlan[0].mac.dcf.channelAccess.pendingQueue queueingTime:histogram:mean -nan
scalar MediumActivityDisplayingSignalsTransmissionsReceptionsShowcase.host2.wlan[0].mac.dcf.channelAccess.pendingQueue queueingTime:histogram:stddev nan
scalar MediumActivityDisplayingSignalsTransmissionsReceptionsShowcase.host2.wlan[0].mac.dcf.channelAccess.pendingQueue queueingTime:histogram:min nan
scalar MediumActivityDisplayingSignalsTransmissionsReceptionsShowcase.host2.wlan[0].mac.dcf.channelAccess.pendingQueue queueingTime:histogram:max nan
scalar MediumActivityDisplayingSignalsTransmissionsReceptionsShowcase.host2.wlan[0].mac.dcf.channelAccess.pendingQueue queueingTime:histogram:numbins 1
scalar MediumActivityDisplayingSignalsTransmissionsReceptionsShowcase.host2.wlan[0].mac.dcf.channelAccess.pendingQueue queueingTime:histogram:rangemin 0
scalar MediumActivityDisplayingSignalsTransmissionsReceptionsShowcase.host2.wlan[0].mac.dcf.channelAccess.pendingQueue queueingTime:histogram:rangemax 1
scalar MediumActivityDisplayingSignalsTransmissionsReceptionsShowcase.host2.wlan[0].mac.dcf.channelAccess.pendingQueue queueingTime:histogram:underflows 0
scalar MediumActivityDisplayingSignalsTransmissionsReceptionsShowcase.host2.wlan[0].mac.dcf.channelAccess.pendingQueue queueingTime:histogram:overflows 0
scalar MediumActivityDisplayingSignalsTransmissionsReceptionsShowcase.host2.wlan[0].mac.dcf.channelAccess.pendingQueue outgoingPacketLengths:histogram:count 0
scalar MediumActivityDisplayingSignalsTransmissionsReceptionsShowcase.host2.wlan[0].mac.dcf.channelAccess.pendingQueue outgoingPacketLengths:histogram:sumweights 0
scalar MediumActivityDisplayingSignalsTransmissionsReceptionsShowcase.host2.wlan[0].mac.dcf.channelAccess.pendingQueue outgoingPacketLengths:histogram:mean -nan
scalar MediumActivityDisplayingSignalsTransmissionsReceptionsShowcase.host2.wlan[0].mac.dcf.channelAccess.pendingQueue outgoingPacketLengths:histogram:stddev nan
scalar MediumActivityDisplayingSignalsTransmissionsReceptionsShowcase.host2.wlan[0].mac.dcf.channelAccess.pendingQueue outgoingPacketLengths:histogram:min nan
scalar MediumActivityDisplayingSignalsTransmissionsReceptionsShowcase.host2.wlan[0].mac.dcf.channelAccess.pendingQueue outgoingPacketLengths:histogram:max nan
scalar MediumActivityDisplayingSignalsTransmissionsReceptionsShowcase.host2.wlan[0].mac.dcf.channelAccess.pendingQueue outgoingPacketLengths:histogram:numbins 1
scalar MediumActivityDisplayingSignalsTransmissionsReceptionsShowcase.host2.wlan[0].mac.dcf.channelAccess.pendingQueue outgoingPacketLengths:histogram:rangemin 0
scalar MediumActivityDisplayingSignalsTransmissionsReceptionsShowcase.host2.wlan[0].mac.dcf.channelAccess.pendingQueue outgoingPacketLengths:histogram:rangemax 1
scalar MediumActivityDisplayingSignalsTransmissionsReceptionsShowcase.host2.wlan[0].mac.dcf.channelAccess.pendingQueue outgoingPacketLengths:histogram:underflows 0
scalar MediumActivityDisplayingSignalsTransmissionsReceptionsShowcase.host2.wlan[0].mac.dcf.channelAccess.pendingQueue outgoingPacketLengths:histogram:overflows 0
scalar MediumActivityDisplayingSignalsTransmissionsReceptionsShowcase.host2.wlan[0].mac.dcf.channelAccess.pendingQueue flowQueueingTime:histogram:count 0
scalar MediumActivityDisplayingSignalsTransmissionsReceptionsShowcase.host2.wlan[0].mac.dcf.channelAccess.pendingQueue flowQueueingTime:histogram:sumweights 0
scalar MediumActivityDisplayingSignalsTransmissionsReceptionsShowcase.host2.wlan[0].mac.dcf.channelAccess.pendingQueue flowQueueingTime:histogram:mean -nan
scalar MediumActivityDisplayingSignalsTransmissionsReceptionsShowcase.host2.wlan[0].mac.dcf.channelAccess.pendingQueue flowQueueingTime:histogram:stddev nan
scalar MediumActivityDisplayingSignalsTransmissionsReceptionsShowcase.host2.wlan[0].mac.dcf.channelAccess.pendingQueue flowQueueingTime:histogram:min nan
scalar MediumActivityDisplayingSignalsTransmissionsReceptionsShowcase.host2.wlan[0].mac.dcf.channelAccess.pendingQueue flowQueueingTime:histogram:max nan
scalar MediumActivityDisplayingSignalsTransmissionsReceptionsShowcase.host2.wlan[0].mac.dcf.channelAccess.pendingQueue flowQueueingTime:histogram:numbins 1
scalar MediumActivityDisplayingSignalsTransmissionsReceptionsShowcase.host2.wlan[0].mac.dcf.channelAccess.pendingQueue flowQueueingTime:histogram:rangemin 0
scalar MediumActivityDisplayingSignalsTransmissionsReceptionsShowcase.host2.wlan[0].mac.dcf.channelAccess.pendingQueue flowQueueingTime:histogram:rangemax 1
scalar MediumActivityDisplayingSignalsTransmissionsReceptionsShowcase.host2.wlan[0].mac.dcf.channelAccess.pendingQueue flowQueueingTime:histogram:underflows 0
scalar MediumActivityDisplayingSignalsTransmissionsReceptionsShowcase.host2.wlan[0].mac.dcf.channelAccess.pendingQueue flowQueueingTime:histogram:overflows 0
scalar MediumActivityDisplayingSignalsTransmissionsReceptionsShowcase.host2.wlan[0].mac.dcf.channelAccess.pendingQueue incomingPacketLengths:histogram:count 0
scalar MediumActivityDisplayingSignalsTransmissionsReceptionsShowcase.host2.wlan[0].mac.dcf.channelAccess.pendingQueue incomingPacketLengths:histogram:sumweights 0
scalar MediumActivityDisplayingSignalsTransmissionsReceptionsShowcase.host2.wlan[0].mac.dcf.channelAccess.pendingQueue incomingPacketLengths:histogram:mean -nan
scalar MediumActivityDisplayingSignalsTransmissionsReceptionsShowcase.host2.wlan[0].mac.dcf.channelAccess.pendingQueue incomingPacketLengths:histogram:stddev nan
scalar MediumActivityDisplayingSignalsTransmissionsReceptionsShowcase.host2.wlan[0].mac.dcf.channelAccess.pendingQueue incomingPacketLengths:histogram:min nan
scalar MediumActivityDisplayingSignalsTransmissionsReceptionsShowcase.host2.wlan[0].mac.dcf.channelAccess.pendingQueue incomingPacketLengths:histogram:max nan
scalar MediumActivityDisplayingSignalsTransmissionsReceptionsShowcase.host2.wlan[0].mac.dcf.channelAccess.pendingQueue incomingPacketLengths:histogram:numbins 1
scalar MediumActivityDisplayingSignalsTransmissionsReceptionsShowcase.host2.wlan[0].mac.dcf.channelAccess.pendingQueue incomingPacketLengths:histogram:rangemin 0
scalar MediumActivityDisplayingSignalsTransmissionsReceptionsShowcase.host2.wlan[0].mac.dcf.channelAccess.pendingQueue incomingPacketLengths:histogram:rangemax 1
scalar MediumActivityDisplayingSignalsTransmissionsReceptionsShowcase.host2.wlan[0].mac.dcf.channelAccess.pendingQueue incomingPacketLengths:histogram:underflows 0
scalar MediumActivityDisplayingSignalsTransmissionsReceptionsShowcase.host2.wlan[0].mac.dcf.channelAccess.pendingQueue incomingPacketLengths:histogram:overflows 0
scalar MediumActivityDisplayingSignalsTransmissionsReceptionsShowcase.host2.wlan[0].mac.dcf.channelAccess.inProgressFrames queueingTime:histogram:count 0
scalar MediumActivityDisplayingSignalsTransmissionsReceptionsShowcase.host2.wlan[0].mac.dcf.channelAccess.inProgressFrames queueingTime:histogram:sumweights 0
scalar MediumActivityDisplayingSignalsTransmissionsReceptionsShowcase.host2.wlan[0].mac.dcf.channelAccess.inProgressFrames queueingTime:histogram:mean -nan
scalar MediumActivityDisplayingSignalsTransmissionsReceptionsShowcase.host2.wlan[0].mac.dcf.channelAccess.inProgressFrames queueingTime:histogram:stddev nan
scalar MediumActivityDisplayingSignalsTransmissionsReceptionsShowcase.host2.wlan[0].mac.dcf.channelAccess.inProgressFrames queueingTime:histogram:min nan
scalar MediumActivityDisplayingSignalsTransmissionsReceptionsShowcase.host2.wlan[0].mac.dcf.channelAccess.inProgressFrames queueingTime:histogram:max nan
scalar MediumActivityDisplayingSignalsTransmissionsReceptionsShowcase.host2.wlan[0].mac.dcf.channelAccess.inProgressFrames queueingTime:histogram:numbins 1
scalar MediumActivityDisplayingSignalsTransmissionsReceptionsShowcase.host2.wlan[0].mac.dcf.channelAccess.inProgressFrames queueingTime:histogram:rangemin 0
scalar MediumActivityDisplayingSignalsTransmissionsReceptionsShowcase.host2.wlan[0].mac.dcf.channelAccess.inProgressFrames queueingTime:histogram:rangemax 1
scalar MediumActivityDisplayingSignalsTransmissionsReceptionsShowcase.host2.wlan[0].mac.dcf.channelAccess.inProgressFrames queueingTime:histogram:underflows 0
scalar MediumActivityDisplayingSignalsTransmissionsReceptionsShowcase.host2.wlan[0].mac.dcf.channelAccess.inProgressFrames queueingTime:histogram:overflows 0
scalar MediumActivityDisplayingSignalsTransmissionsReceptionsShowcase.host2.wlan[0].mac.dcf frameSequenceDuration:histogram:count 0
scalar MediumActivityDisplayingSignalsTransmissionsReceptionsShowcase.host2.wlan[0].mac.dcf frameSequenceDuration:histogram:sumweights 0
scalar MediumActivityDisplayingSignalsTransmissionsReceptionsShowcase.host2.wlan[0].mac.dcf frameSequenceDuration:histogram:mean -nan
scalar MediumActivityDisplayingSignalsTransmissionsReceptionsShowcase.host2.wlan[0].mac.dcf frameSequenceDuration:histogram:stddev nan
scalar MediumActivityDisplayingSignalsTransmissionsReceptionsShowcase.host2.wlan[0].mac.dcf frameSequenceDuration:histogram:min nan
scalar MediumActivityDisplayingSignalsTransmissionsReceptionsShowcase.host2.wlan[0].mac.dcf frameSequenceDuration:histogram:max nan
scalar MediumActivityDisplayingSignalsTransmissionsReceptionsShowcase.host2.wlan[0].mac.dcf frameSequenceDuration:histogram:numbins 1
scalar MediumActivityDisplayingSignalsTransmissionsReceptionsShowcase.host2.wlan[0].mac.dcf frameSequenceDuration:histogram:rangemin 0
scalar MediumActivityDisplayingSignalsTransmissionsReceptionsShowcase.host2.wlan[0].mac.dcf frameSequenceDuration:histogram:rangemax 1
scalar MediumActivityDisplayingSignalsTransmissionsReceptionsShowcase.host2.wlan[0].mac.dcf frameSequenceDuration:histogram:underflows 0
scalar MediumActivityDisplayingSignalsTransmissionsReceptionsShowcase.host2.wlan[0].mac.dcf frameSequenceDuration:histogram:overflows 0
scalar MediumActivityDisplayingSignalsTransmissionsReceptionsShowcase.host2.wlan[0].mac.dcf frameSequenceNumPackets:histogram:count 0
scalar MediumActivityDisplayingSignalsTransmissionsReceptionsShowcase.host2.wlan[0].mac.dcf frameSequenceNumPackets:histogram:sumweights 0
scalar MediumActivityDisplayingSignalsTransmissionsReceptionsShowcase.host2.wlan[0].mac.dcf frameSequenceNumPackets:histogram:mean -nan
scalar MediumActivityDisplayingSignalsTransmissionsReceptionsShowcase.host2.wlan[0].mac.dcf frameSequenceNumPackets:histogram:stddev nan
scalar MediumActivityDisplayingSignalsTransmissionsReceptionsShowcase.host2.wlan[0].mac.dcf frameSequenceNumPackets:histogram:min nan
scalar MediumActivityDisplayingSignalsTransmissionsReceptionsShowcase.host2.wlan[0].mac.dcf frameSequenceNumPackets:histogram:max nan
scalar MediumActivityDisplayingSignalsTransmissionsReceptionsShowcase.host2.wlan[0].mac.dcf frameSequenceNumPackets:histogram:numbins 1
scalar MediumActivityDisplayingSignalsTransmissionsReceptionsShowcase.host2.wlan[0].mac.dcf frameSequenceNumPackets:histogram:rangemin 0
scalar MediumActivityDisplayingSignalsTransmissionsReceptionsShowcase.host2.wlan[0].mac.dcf frameSequenceNumPackets:histogram:rangemax 1
scalar MediumActivityDisplayingSignalsTransmissionsReceptionsShowcase.host2.wlan[0].mac.dcf frameSequenceNumPackets:histogram:underflows 0
scalar MediumActivityDisplayingSignalsTransmissionsReceptionsShowcase.host2.wlan[0].mac.dcf frameSequenceNumPackets:histogram:overflows 0
scalar MediumActivityDisplayingSignalsTransmissionsReceptionsShowcase.host2.wlan[0].radio radioChannel:histogram:count 1
scalar MediumActivityDisplayingSignalsTransmissionsReceptionsShowcase.host2.wlan[0].radio radioChannel:histogram:sumweights 1
scalar MediumActivityDisplayingSignalsTransmissionsReceptionsShowcase.host2.wlan[0].radio radioChannel:histogram:mean 0
scalar MediumActivityDisplayingSignalsTransmissionsReceptionsShowcase.host2.wlan[0].radio radioChannel:histogram:stddev nan
scalar MediumActivityDisplayingSignalsTransmissionsReceptionsShowcase.host2.wlan[0].radio radioChannel:histogram:min 0
scalar MediumActivityDisplayingSignalsTransmissionsReceptionsShowcase.host2.wlan[0].radio radioChannel:histogram:max 0
scalar MediumActivityDisplayingSignalsTransmissionsReceptionsShowcase.host2.wlan[0].radio radioChannel:histogram:numbins 50
scalar MediumActivityDisplayingSignalsTransmissionsReceptionsShowcase.host2.wlan[0].radio radioChannel:histogram:rangemin -0.5
scalar MediumActivityDisplayingSignalsTransmissionsReceptionsShowcase.host2.wlan[0].radio radioChannel:histogram:rangemax 0.5
scalar MediumActivityDisplayingSignalsTransmissionsReceptionsShowcase.host2.wlan[0].radio radioChannel:histogram:underflows 0
scalar MediumActivityDisplayingSignalsTransmissionsReceptionsShowcase.host2.wlan[0].radio radioChannel:histogram:overflows 0
scalar MediumActivityDisplayingSignalsTransmissionsReceptionsShowcase.host2.wlan[0].radio minSnir:histogram:count 99
scalar MediumActivityDisplayingSignalsTransmissionsReceptionsShowcase.host2.wlan[0].radio minSnir:histogram:sumweights 99
scalar MediumActivityDisplayingSignalsTransmissionsReceptionsShowcase.host2.wlan[0].radio minSnir:histogram:mean 449.25485013274
scalar MediumActivityDisplayingSignalsTransmissionsReceptionsShowcase.host2.wlan[0].radio minSnir:histogram:stddev 0
scalar MediumActivityDisplayingSignalsTransmissionsReceptionsShowcase.host2.wlan[0].radio minSnir:histogram:min 449.25485013274
scalar MediumActivityDisplayingSignalsTransmissionsReceptionsShowcase.host2.wlan[0].radio minSnir:histogram:max 449.25485013274
scalar MediumActivityDisplayingSignalsTransmissionsReceptionsShowcase.host2.wlan[0].radio minSnir:histogram:numbins 51
scalar MediumActivityDisplayingSignalsTransmissionsReceptionsShowcase.host2.wlan[0].radio minSnir:histogram:rangemin 448.74
scalar MediumActivityDisplayingSignalsTransmissionsReceptionsShowcase.host2.wlan[0].radio minSnir:histogram:rangemax 449.76
scalar MediumActivityDisplayingSignalsTransmissionsReceptionsShowcase.host2.wlan[0].radio minSnir:histogram:underflows 0
scalar MediumActivityDisplayingSignalsTransmissionsReceptionsShowcase.host2.wlan[0].radio minSnir:histogram:overflows 0
scalar MediumActivityDisplayingSignalsTransmissionsReceptionsShowcase.host2.wlan[0].radio packetErrorRate:histogram:count 99
scalar MediumActivityDisplayingSignalsTransmissionsReceptionsShowcase.host2.wlan[0].radio packetErrorRate:histogram:sumweights 99
scalar MediumActivityDisplayingSignalsTransmissionsReceptionsShowcase.host2.wlan[0].radio packetErrorRate:histogram:mean 0
scalar MediumActivityDisplayingSignalsTransmissionsReceptionsShowcase.host2.wlan[0].radio packetErrorRate:histogram:stddev 0
scalar MediumActivityDisplayingSignalsTransmissionsReceptionsShowcase.host2.wlan[0].radio packetErrorRate:histogram:min 0
scalar MediumActivityDisplayingSignalsTransmissionsReceptionsShowcase.host2.wlan[0].radio packetErrorRate:histogram:max 0
scalar MediumActivityDisplayingSignalsTransmissionsReceptionsShowcase.host2.wlan[0].radio packetErrorRate:histogram:numbins 50
scalar MediumActivityDisplayingSignalsTransmissionsReceptionsShowcase.host2.wlan[0].radio packetErrorRate:histogram:rangemin -0.5
scalar MediumActivityDisplayingSignalsTransmissionsReceptionsShowcase.host2.wlan[0].radio packetErrorRate:histogram:rangemax 0.5
scalar MediumActivityDisplayingSignalsTransmissionsReceptionsShowcase.host2.wlan[0].radio packetErrorRate:histogram:underflows 0
scalar MediumActivityDisplayingSignalsTransmissionsReceptionsShowcase.host2.wlan[0].radio packetErrorRate:histogram:overflows 0
scalar MediumActivityDisplayingSignalsTransmissionsReceptionsShowcase.host2.wlan[0].radio bitErrorRate:histogram:count 0
scalar MediumActivityDisplayingSignalsTransmissionsReceptionsShowcase.host2.wlan[0].radio bitErrorRate:histogram:sumweights 0
scalar MediumActivityDisplayingSignalsTransmissionsReceptionsShowcase.host2.wlan[0].radio bitErrorRate:histogram:mean -nan
scalar MediumActivityDisplayingSignalsTransmissionsReceptionsShowcase.host2.wlan[0].radio bitErrorRate:histogram:stddev nan
scalar MediumActivityDisplayingSignalsTransmissionsReceptionsShowcase.host2.wlan[0].radio bitErrorRate:histogram:min nan
scalar MediumActivityDisplayingSignalsTransmissionsReceptionsShowcase.host2.wlan[0].radio bitErrorRate:histogram:max nan
scalar MediumActivityDisplayingSignalsTransmissionsReceptionsShowcase.host2.wlan[0].radio bitErrorRate:histogram:numbins 1
scalar MediumActivityDisplayingSignalsTransmissionsReceptionsShowcase.host2.wlan[0].radio bitErrorRate:histogram:rangemin 0
scalar MediumActivityDisplayingSignalsTransmissionsReceptionsShowcase.host2.wlan[0].radio bitErrorRate:histogram:rangemax 1
scalar MediumActivityDisplayingSignalsTransmissionsReceptionsShowcase.host2.wlan[0].radio bitErrorRate:histogram:underflows 0
scalar MediumActivityDisplayingSignalsTransmissionsReceptionsShowcase.host2.wlan[0].radio bitErrorRate:histogram:overflows 0
scalar MediumActivityDisplayingSignalsTransmissionsReceptionsShowcase.host2.wlan[0].radio symbolErrorRate:histogram:count 0
scalar MediumActivityDisplayingSignalsTransmissionsReceptionsShowcase.host2.wlan[0].radio symbolErrorRate:histogram:sumweights 0
scalar MediumActivityDisplayingSignalsTransmissionsReceptionsShowcase.host2.wlan[0].radio symbolErrorRate:histogram:mean -nan
scalar MediumActivityDisplayingSignalsTransmissionsReceptionsShowcase.host2.wlan[0].radio symbolErrorRate:histogram:stddev nan
scalar MediumActivityDisplayingSignalsTransmissionsReceptionsShowcase.host2.wlan[0].radio symbolErrorRate:histogram:min nan
scalar MediumActivityDisplayingSignalsTransmissionsReceptionsShowcase.host2.wlan[0].radio symbolErrorRate:histogram:max nan
scalar MediumActivityDisplayingSignalsTransmissionsReceptionsShowcase.host2.wlan[0].radio symbolErrorRate:histogram:numbins 1
scalar MediumActivityDisplayingSignalsTransmissionsReceptionsShowcase.host2.wlan[0].radio symbolErrorRate:histogram:rangemin 0
scalar MediumActivityDisplayingSignalsTransmissionsReceptionsShowcase.host2.wlan[0].radio symbolErrorRate:histogram:rangemax 1
scalar MediumActivityDisplayingSignalsTransmissionsReceptionsShowcase.host2.wlan[0].radio symbolErrorRate:histogram:underflows 0
scalar MediumActivityDisplayingSignalsTransmissionsReceptionsShowcase.host2.wlan[0].radio symbolErrorRate:histogram:overflows 0
scalar MediumActivityDisplayingSignalsTransmissionsReceptionsShowcase.host2.app[0] endToEndDelay:histogram:count 99
scalar MediumActivityDisplayingSignalsTransmissionsReceptionsShowcase.host2.app[0] endToEndDelay:histogram:sumweights 99
scalar MediumActivityDisplayingSignalsTransmissionsReceptionsShowcase.host2.app[0] endToEndDelay:histogram:mean 0.000383556562
scalar MediumActivityDisplayingSignalsTransmissionsReceptionsShowcase.host2.app[0] endToEndDelay:histogram:stddev 0
scalar MediumActivityDisplayingSignalsTransmissionsReceptionsShowcase.host2.app[0] endToEndDelay:histogram:min 0.000383556562
scalar MediumActivityDisplayingSignalsTransmissionsReceptionsShowcase.host2.app[0] endToEndDelay:histogram:max 0.000383556562
scalar MediumActivityDisplayingSignalsTransmissionsReceptionsShowcase.host2.app[0] endToEndDelay:histogram:numbins 51
scalar MediumActivityDisplayingSignalsTransmissionsReceptionsShowcase.host2.app[0] endToEndDelay:histogram:rangemin 0
scalar MediumActivityDisplayingSignalsTransmissionsReceptionsShowcase.host2.app[0] endToEndDelay:histogram:rangemax 0.51
scalar MediumActivityDisplayingSignalsTransmissionsReceptionsShowcase.host2.app[0] endToEndDelay:histogram:underflows 0
scalar MediumActivityDisplayingSignalsTransmissionsReceptionsShowcase.host2.app[0] endToEndDelay:histogram:overflows 0
scalar MediumActivityDisplayingSignalsTransmissionsReceptionsShowcase.host1.wlan[0].mac.dcf.channelAccess.pendingQueue queueingTime:histogram:count 100
scalar MediumActivityDisplayingSignalsTransmissionsReceptionsShowcase.host1.wlan[0].mac.dcf.channelAccess.pendingQueue queueingTime:histogram:sumweights 100
scalar MediumActivityDisplayingSignalsTransmissionsReceptionsShowcase.host1.wlan[0].mac.dcf.channelAccess.pendingQueue queueingTime:histogram:mean 0
scalar MediumActivityDisplayingSignalsTransmissionsReceptionsShowcase.host1.wlan[0].mac.dcf.channelAccess.pendingQueue queueingTime:histogram:stddev 0
scalar MediumActivityDisplayingSignalsTransmissionsReceptionsShowcase.host1.wlan[0].mac.dcf.channelAccess.pendingQueue queueingTime:histogram:min 0
scalar MediumActivityDisplayingSignalsTransmissionsReceptionsShowcase.host1.wlan[0].mac.dcf.channelAccess.pendingQueue queueingTime:histogram:max 0
scalar MediumActivityDisplayingSignalsTransmissionsReceptionsShowcase.host1.wlan[0].mac.dcf.channelAccess.pendingQueue queueingTime:histogram:numbins 50
scalar MediumActivityDisplayingSignalsTransmissionsReceptionsShowcase.host1.wlan[0].mac.dcf.channelAccess.pendingQueue queueingTime:histogram:rangemin -0.5
scalar MediumActivityDisplayingSignalsTransmissionsReceptionsShowcase.host1.wlan[0].mac.dcf.channelAccess.pendingQueue queueingTime:histogram:rangemax 0.5
scalar MediumActivityDisplayingSignalsTransmissionsReceptionsShowcase.host1.wlan[0].mac.dcf.channelAccess.pendingQueue queueingTime:histogram:underflows 0
scalar MediumActivityDisplayingSignalsTransmissionsReceptionsShowcase.host1.wlan[0].mac.dcf.channelAccess.pendingQueue queueingTime:histogram:overflows 0
scalar MediumActivityDisplayingSignalsTransmissionsReceptionsShowcase.host1.wlan[0].mac.dcf.channelAccess.pendingQueue outgoingPacketLengths:histogram:count 100
scalar MediumActivityDisplayingSignalsTransmissionsReceptionsShowcase.host1.wlan[0].mac.dcf.channelAccess.pendingQueue outgoingPacketLengths:histogram:sumweights 100
scalar MediumActivityDisplayingSignalsTransmissionsReceptionsShowcase.host1.wlan[0].mac.dcf.channelAccess.pendingQueue outgoingPacketLengths:histogram:mean 8512
scalar MediumActivityDisplayingSignalsTransmissionsReceptionsShowcase.host1.wlan[0].mac.dcf.channelAccess.pendingQueue outgoingPacketLengths:histogram:stddev 0
scalar MediumActivityDisplayingSignalsTransmissionsReceptionsShowcase.host1.wlan[0].mac.dcf.channelAccess.pendingQueue outgoingPacketLengths:histogram:min 8512
scalar MediumActivityDisplayingSignalsTransmissionsReceptionsShowcase.host1.wlan[0].mac.dcf.channelAccess.pendingQueue outgoingPacketLengths:histogram:max 8512
scalar MediumActivityDisplayingSignalsTransmissionsReceptionsShowcase.host1.wlan[0].mac.dcf.channelAccess.pendingQueue outgoingPacketLengths:histogram:numbins 2
scalar MediumActivityDisplayingSignalsTransmissionsReceptionsShowcase.host1.wlan[0].mac.dcf.channelAccess.pendingQueue outgoingPacketLengths:histogram:rangemin 8511
scalar MediumActivityDisplayingSignalsTransmissionsReceptionsShowcase.host1.wlan[0].mac.dcf.channelAccess.pendingQueue outgoingPacketLengths:histogram:rangemax 8513
scalar MediumActivityDisplayingSignalsTransmissionsReceptionsShowcase.host1.wlan[0].mac.dcf.channelAccess.pendingQueue outgoingPacketLengths:histogram:underflows 0
scalar MediumActivityDisplayingSignalsTransmissionsReceptionsShowcase.host1.wlan[0].mac.dcf.channelAccess.pendingQueue outgoingPacketLengths:histogram:overflows 0
scalar MediumActivityDisplayingSignalsTransmissionsReceptionsShowcase.host1.wlan[0].mac.dcf.channelAccess.pendingQueue flowQueueingTime:histogram:count 0
scalar MediumActivityDisplayingSignalsTransmissionsReceptionsShowcase.host1.wlan[0].mac.dcf.channelAccess.pendingQueue flowQueueingTime:histogram:sumweights 0
scalar MediumActivityDisplayingSignalsTransmissionsReceptionsShowcase.host1.wlan[0].mac.dcf.channelAccess.pendingQueue flowQueueingTime:histogram:mean -nan
scalar MediumActivityDisplayingSignalsTransmissionsReceptionsShowcase.host1.wlan[0].mac.dcf.channelAccess.pendingQueue flowQueueingTime:histogram:stddev nan
scalar MediumActivityDisplayingSignalsTransmissionsReceptionsShowcase.host1.wlan[0].mac.dcf.channelAccess.pendingQueue flowQueueingTime:histogram:min nan
scalar MediumActivityDisplayingSignalsTransmissionsReceptionsShowcase.host1.wlan[0].mac.dcf.channelAccess.pendingQueue flowQueueingTime:histogram:max nan
scalar MediumActivityDisplayingSignalsTransmissionsReceptionsShowcase.host1.wlan[0].mac.dcf.channelAccess.pendingQueue flowQueueingTime:histogram:numbins 1
scalar MediumActivityDisplayingSignalsTransmissionsReceptionsShowcase.host1.wlan[0].mac.dcf.channelAccess.pendingQueue flowQueueingTime:histogram:rangemin 0
scalar MediumActivityDisplayingSignalsTransmissionsReceptionsShowcase.host1.wlan[0].mac.dcf.channelAccess.pendingQueue flowQueueingTime:histogram:rangemax 1
scalar MediumActivityDisplayingSignalsTransmissionsReceptionsShowcase.host1.wlan[0].mac.dcf.channelAccess.pendingQueue flowQueueingTime:histogram:underflows 0
scalar MediumActivityDisplayingSignalsTransmissionsReceptionsShowcase.host1.wlan[0].mac.dcf.channelAccess.pendingQueue flowQueueingTime:histogram:overflows 0
scalar MediumActivityDisplayingSignalsTransmissionsReceptionsShowcase.host1.wlan[0].mac.dcf.channelAccess.pendingQueue incomingPacketLengths:histogram:count 100
scalar MediumActivityDisplayingSignalsTransmissionsReceptionsShowcase.host1.wlan[0].mac.dcf.channelAccess.pendingQueue incomingPacketLengths:histogram:sumweights 100
scalar MediumActivityDisplayingSignalsTransmissionsReceptionsShowcase.host1.wlan[0].mac.dcf.channelAccess.pendingQueue incomingPacketLengths:histogram:mean 8512
scalar MediumActivityDisplayingSignalsTransmissionsReceptionsShowcase.host1.wlan[0].mac.dcf.channelAccess.pendingQueue incomingPacketLengths:histogram:stddev 0
scalar MediumActivityDisplayingSignalsTransmissionsReceptionsShowcase.host1.wlan[0].mac.dcf.channelAccess.pendingQueue incomingPacketLengths:histogram:min 8512
scalar MediumActivityDisplayingSignalsTransmissionsReceptionsShowcase.host1.wlan[0].mac.dcf.channelAccess.pendingQueue incomingPacketLengths:histogram:max 8512
scalar MediumActivityDisplayingSignalsTransmissionsReceptionsShowcase.host1.wlan[0].mac.dcf.channelAccess.pendingQueue incomingPacketLengths:histogram:numbins 2
scalar MediumActivityDisplayingSignalsTransmissionsReceptionsShowcase.host1.wlan[0].mac.dcf.channelAccess.pendingQueue incomingPacketLengths:histogram:rangemin 8511
scalar MediumActivityDisplayingSignalsTransmissionsReceptionsShowcase.host1.wlan[0].mac.dcf.channelAccess.pendingQueue incomingPacketLengths:histogram:rangemax 8513
scalar MediumActivityDisplayingSignalsTransmissionsReceptionsShowcase.host1.wlan[0].mac.dcf.channelAccess.pendingQueue incomingPacketLengths:histogram:underflows 0
scalar MediumActivityDisplayingSignalsTransmissionsReceptionsShowcase.host1.wlan[0].mac.dcf.channelAccess.pendingQueue incomingPacketLengths:histogram:overflows 0
scalar MediumActivityDisplayingSignalsTransmissionsReceptionsShowcase.host1.wlan[0].mac.dcf.channelAccess.inProgressFrames queueingTime:histogram:count 99
scalar MediumActivityDisplayingSignalsTransmissionsReceptionsShowcase.host1.wlan[0].mac.dcf.channelAccess.inProgressFrames queueingTime:histogram:sumweights 99
scalar MediumActivityDisplayingSignalsTransmissionsReceptionsShowcase.host1.wlan[0].mac.dcf.channelAccess.inProgressFrames queueingTime:histogram:mean 0.000429113124
scalar MediumActivityDisplayingSignalsTransmissionsReceptionsShowcase.host1.wlan[0].mac.dcf.channelAccess.inProgressFrames queueingTime:histogram:stddev 0
scalar MediumActivityDisplayingSignalsTransmissionsReceptionsShowcase.host1.wlan[0].mac.dcf.channelAccess.inProgressFrames queueingTime:histogram:min 0.000429113124
scalar MediumActivityDisplayingSignalsTransmissionsReceptionsShowcase.host1.wlan[0].mac.dcf.channelAccess.inProgressFrames queueingTime:histogram:max 0.000429113124
scalar MediumActivityDisplayingSignalsTransmissionsReceptionsShowcase.host1.wlan[0].mac.dcf.channelAccess.inProgressFrames queueingTime:histogram:numbins 51
scalar MediumActivityDisplayingSignalsTransmissionsReceptionsShowcase.host1.wlan[0].mac.dcf.channelAccess.inProgressFrames queueingTime:histogram:rangemin 0
scalar MediumActivityDisplayingSignalsTransmissionsReceptionsShowcase.host1.wlan[0].mac.dcf.channelAccess.inProgressFrames queueingTime:histogram:rangemax 0.51
scalar MediumActivityDisplayingSignalsTransmissionsReceptionsShowcase.host1.wlan[0].mac.dcf.channelAccess.inProgressFrames queueingTime:histogram:underflows 0
scalar MediumActivityDisplayingSignalsTransmissionsReceptionsShowcase.host1.wlan[0].mac.dcf.channelAccess.inProgressFrames queueingTime:histogram:overflows 0
scalar MediumActivityDisplayingSignalsTransmissionsReceptionsShowcase.host1.wlan[0].mac.dcf frameSequenceDuration:histogram:count 99
scalar MediumActivityDisplayingSignalsTransmissionsReceptionsShowcase.host1.wlan[0].mac.dcf frameSequenceDuration:histogram:sumweights 99
scalar MediumActivityDisplayingSignalsTransmissionsReceptionsShowcase.host1.wlan[0].mac.dcf frameSequenceDuration:histogram:mean 0.000429113124
scalar MediumActivityDisplayingSignalsTransmissionsReceptionsShowcase.host1.wlan[0].mac.dcf frameSequenceDuration:histogram:stddev 0
scalar MediumActivityDisplayingSignalsTransmissionsReceptionsShowcase.host1.wlan[0].mac.dcf frameSequenceDuration:histogram:min 0.000429113124
scalar MediumActivityDisplayingSignalsTransmissionsReceptionsShowcase.host1.wlan[0].mac.dcf frameSequenceDuration:histogram:max 0.000429113124
scalar MediumActivityDisplayingSignalsTransmissionsReceptionsShowcase.host1.wlan[0].mac.dcf frameSequenceDuration:histogram:numbins 51
scalar MediumActivityDisplayingSignalsTransmissionsReceptionsShowcase.host1.wlan[0].mac.dcf frameSequenceDuration:histogram:rangemin 0
scalar MediumActivityDisplayingSignalsTransmissionsReceptionsShowcase.host1.wlan[0].mac.dcf frameSequenceDuration:histogram:rangemax 0.51
scalar MediumActivityDisplayingSignalsTransmissionsReceptionsShowcase.host1.wlan[0].mac.dcf frameSequenceDuration:histogram:underflows 0
scalar MediumActivityDisplayingSignalsTransmissionsReceptionsShowcase.host1.wlan[0].mac.dcf frameSequenceDuration:histogram:overflows 0
scalar MediumActivityDisplayingSignalsTransmissionsReceptionsShowcase.host1.wlan[0].mac.dcf frameSequenceNumPackets:histogram:count 99
scalar MediumActivityDisplayingSignalsTransmissionsReceptionsShowcase.host1.wlan[0].mac.dcf frameSequenceNumPackets:histogram:sumweights 99
scalar MediumActivityDisplayingSignalsTransmissionsReceptionsShowcase.host1.wlan[0].mac.dcf frameSequenceNumPackets:histogram:mean 2
scalar MediumActivityDisplayingSignalsTransmissionsReceptionsShowcase.host1.wlan[0].mac.dcf frameSequenceNumPackets:histogram:stddev 0
scalar MediumActivityDisplayingSignalsTransmissionsReceptionsShowcase.host1.wlan[0].mac.dcf frameSequenceNumPackets:histogram:min 2
scalar MediumActivityDisplayingSignalsTransmissionsReceptionsShowcase.host1.wlan[0].mac.dcf frameSequenceNumPackets:histogram:max 2
scalar MediumActivityDisplayingSignalsTransmissionsReceptionsShowcase.host1.wlan[0].mac.dcf frameSequenceNumPackets:histogram:numbins 2
scalar MediumActivityDisplayingSignalsTransmissionsReceptionsShowcase.host1.wlan[0].mac.dcf frameSequenceNumPackets:histogram:rangemin 1
scalar MediumActivityDisplayingSignalsTransmissionsReceptionsShowcase.host1.wlan[0].mac.dcf frameSequenceNumPackets:histogram:rangemax 3
scalar MediumActivityDisplayingSignalsTransmissionsReceptionsShowcase.host1.wlan[0].mac.dcf frameSequenceNumPackets:histogram:underflows 0
scalar MediumActivityDisplayingSignalsTransmissionsReceptionsShowcase.host1.wlan[0].mac.dcf frameSequenceNumPackets:histogram:overflows 0
scalar MediumActivityDisplayingSignalsTransmissionsReceptionsShowcase.host1.wlan[0].radio radioChannel:histogram:count 1
scalar MediumActivityDisplayingSignalsTransmissionsReceptionsShowcase.host1.wlan[0].radio radioChannel:histogram:sumweights 1
scalar MediumActivityDisplayingSignalsTransmissionsReceptionsShowcase.host1.wlan[0].radio radioChannel:histogram:mean 0
scalar MediumActivityDisplayingSignalsTransmissionsReceptionsShowcase.host1.wlan[0].radio radioChannel:histogram:stddev nan
scalar MediumActivityDisplayingSignalsTransmissionsReceptionsShowcase.host1.wlan[0].radio radioChannel:histogram:min 0
scalar MediumActivityDisplayingSignalsTransmissionsReceptionsShowcase.host1.wlan[0].radio radioChannel:histogram:max 0
scalar MediumActivityDisplayingSignalsTransmissionsReceptionsShowcase.host1.wlan[0].radio radioChannel:histogram:numbins 50
scalar MediumActivityDisplayingSignalsTransmissionsReceptionsShowcase.host1.wlan[0].radio radioChannel:histogram:rangemin -0.5
scalar MediumActivityDisplayingSignalsTransmissionsReceptionsShowcase.host1.wlan[0].radio radioChannel:histogram:rangemax 0.5
scalar MediumActivityDisplayingSignalsTransmissionsReceptionsShowcase.host1.wlan[0].radio radioChannel:histogram:underflows 0
scalar MediumActivityDisplayingSignalsTransmissionsReceptionsShowcase.host1.wlan[0].radio radioChannel:histogram:overflows 0
scalar MediumActivityDisplayingSignalsTransmissionsReceptionsShowcase.host1.wlan[0].radio minSnir:histogram:count 99
scalar MediumActivityDisplayingSignalsTransmissionsReceptionsShowcase.host1.wlan[0].radio minSnir:histogram:sumweights 99
scalar MediumActivityDisplayingSignalsTransmissionsReceptionsShowcase.host1.wlan[0].radio minSnir:histogram:mean 449.25485013274
scalar MediumActivityDisplayingSignalsTransmissionsReceptionsShowcase.host1.wlan[0].radio minSnir:histogram:stddev 0
scalar MediumActivityDisplayingSignalsTransmissionsReceptionsShowcase.host1.wlan[0].radio minSnir:histogram:min 449.25485013274
scalar MediumActivityDisplayingSignalsTransmissionsReceptionsShowcase.host1.wlan[0].radio minSnir:histogram:max 449.25485013274
scalar MediumActivityDisplayingSignalsTransmissionsReceptionsShowcase.host1.wlan[0].radio minSnir:histogram:numbins 51
scalar MediumActivityDisplayingSignalsTransmissionsReceptionsShowcase.host1.wlan[0].radio minSnir:histogram:rangemin 448.74
scalar MediumActivityDisplayingSignalsTransmissionsReceptionsShowcase.host1.wlan[0].radio minSnir:histogram:rangemax 449.76
scalar MediumActivityDisplayingSignalsTransmissionsReceptionsShowcase.host1.wlan[0].radio minSnir:histogram:underflows 0
scalar MediumActivityDisplayingSignalsTransmissionsReceptionsShowcase.host1.wlan[0].radio minSnir:histogram:overflows 0
scalar MediumActivityDisplayingSignalsTransmissionsReceptionsShowcase.host1.wlan[0].radio packetErrorRate:histogram:count 99
scalar MediumActivityDisplayingSignalsTransmissionsReceptionsShowcase.host1.wlan[0].radio packetErrorRate:histogram:sumweights 99
scalar MediumActivityDisplayingSignalsTransmissionsReceptionsShowcase.host1.wlan[0].radio packetErrorRate:histogram:mean 0
scalar MediumActivityDisplayingSignalsTransmissionsReceptionsShowcase.host1.wlan[0].radio packetErrorRate:histogram:stddev 0
scalar MediumActivityDisplayingSignalsTransmissionsReceptionsShowcase.host1.wlan[0].radio packetErrorRate:histogram:min 0
scalar MediumActivityDisplayingSignalsTransmissionsReceptionsShowcase.host1.wlan[0].radio packetErrorRate:histogram:max 0
scalar MediumActivityDisplayingSignalsTransmissionsReceptionsShowcase.host1.wlan[0].radio packetErrorRate:histogram:numbins 50
scalar MediumActivityDisplayingSignalsTransmissionsReceptionsShowcase.host1.wlan[0].radio packetErrorRate:histogram:rangemin -0.5
scalar MediumActivityDisplayingSignalsTransmissionsReceptionsShowcase.host1.wlan[0].radio packetErrorRate:histogram:rangemax 0.5
scalar MediumActivityDisplayingSignalsTransmissionsReceptionsShowcase.host1.wlan[0].radio packetErrorRate:histogram:underflows 0
scalar MediumActivityDisplayingSignalsTransmissionsReceptionsShowcase.host1.wlan[0].radio packetErrorRate:histogram:overflows 0
scalar MediumActivityDisplayingSignalsTransmissionsReceptionsShowcase.host1.wlan[0].radio bitErrorRate:histogram:count 0
scalar MediumActivityDisplayingSignalsTransmissionsReceptionsShowcase.host1.wlan[0].radio bitErrorRate:histogram:sumweights 0
scalar MediumActivityDisplayingSignalsTransmissionsReceptionsShowcase.host1.wlan[0].radio bitErrorRate:histogram:mean -nan
scalar MediumActivityDisplayingSignalsTransmissionsReceptionsShowcase.host1.wlan[0].radio bitErrorRate:histogram:stddev nan
scalar MediumActivityDisplayingSignalsTransmissionsReceptionsShowcase.host1.wlan[0].radio bitErrorRate:histogram:min nan
scalar MediumActivityDisplayingSignalsTransmissionsReceptionsShowcase.host1.wlan[0].radio bitErrorRate:histogram:max nan
scalar MediumActivityDisplayingSignalsTransmissionsReceptionsShowcase.host1.wlan[0].radio bitErrorRate:histogram:numbins 1
scalar MediumActivityDisplayingSignalsTransmissionsReceptionsShowcase.host1.wlan[0].radio bitErrorRate:histogram:rangemin 0
scalar MediumActivityDisplayingSignalsTransmissionsReceptionsShowcase.host1.wlan[0].radio bitErrorRate:histogram:rangemax 1
scalar MediumActivityDisplayingSignalsTransmissionsReceptionsShowcase.host1.wlan[0].radio bitErrorRate:histogram:underflows 0
scalar MediumActivityDisplayingSignalsTransmissionsReceptionsShowcase.host1.wlan[0].radio bitErrorRate:histogram:overflows 0
scalar MediumActivityDisplayingSignalsTransmissionsReceptionsShowcase.host1.wlan[0].radio symbolErrorRate:histogram:count 0
scalar MediumActivityDisplayingSignalsTransmissionsReceptionsShowcase.host1.wlan[0].radio symbolErrorRate:histogram:sumweights 0
scalar MediumActivityDisplayingSignalsTransmissionsReceptionsShowcase.host1.wlan[0].radio symbolErrorRate:histogram:mean -nan
scalar MediumActivityDisplayingSignalsTransmissionsReceptionsShowcase.host1.wlan[0].radio symbolErrorRate:histogram:stddev nan
scalar MediumActivityDisplayingSignalsTransmissionsReceptionsShowcase.host1.wlan[0].radio symbolErrorRate:histogram:min nan
scalar MediumActivityDisplayingSignalsTransmissionsReceptionsShowcase.host1.wlan[0].radio symbolErrorRate:histogram:max nan
scalar MediumActivityDisplayingSignalsTransmissionsReceptionsShowcase.host1.wlan[0].radio symbolErrorRate:histogram:numbins 1
scalar MediumActivityDisplayingSignalsTransmissionsReceptionsShowcase.host1.wlan[0].radio symbolErrorRate:histogram:rangemin 0
scalar MediumActivityDisplayingSignalsTransmissionsReceptionsShowcase.host1.wlan[0].radio symbolErrorRate:histogram:rangemax 1
scalar MediumActivityDisplayingSignalsTransmissionsReceptionsShowcase.host1.wlan[0].radio symbolErrorRate:histogram:underflows 0
scalar MediumActivityDisplayingSignalsTransmissionsReceptionsShowcase.host1.wlan[0].radio symbolErrorRate:histogram:overflows 0
statistic MediumActivityDisplayingSignalsTransmissionsReceptionsShowcase.host1.app[0] rcvdPkLifetime:stats
field count 0
field mean -nan
field stddev nan
field min nan
field max nan
field sum 0
field sqrsum 0
statistic MediumActivityDisplayingSignalsTransmissionsReceptionsShowcase.host2.wlan[0].mac.dcf.channelAccess.pendingQueue queueingTime:histogram
field count 0
field mean -nan
field stddev nan
field min nan
field max nan
field sum 0
field sqrsum 0
bin	-inf	0
bin	0	0
bin	1	0
statistic MediumActivityDisplayingSignalsTransmissionsReceptionsShowcase.host2.wlan[0].mac.dcf.channelAccess.pendingQueue outgoingPacketLengths:histogram
field count 0
field mean -nan
field stddev nan
field min nan
field max nan
field sum 0
field sqrsum 0
bin	-inf	0
bin	0	0
bin	1	0
statistic MediumActivityDisplayingSignalsTransmissionsReceptionsShowcase.host2.wlan[0].mac.dcf.channelAccess.pendingQueue flowQueueingTime:histogram
field count 0
field mean -nan
field stddev nan
field min nan
field max nan
field sum 0
field sqrsum 0
bin	-inf	0
bin	0	0
bin	1	0
statistic MediumActivityDisplayingSignalsTransmissionsReceptionsShowcase.host2.wlan[0].mac.dcf.channelAccess.pendingQueue incomingPacketLengths:histogram
field count 0
field mean -nan
field stddev nan
field min nan
field max nan
field sum 0
field sqrsum 0
bin	-inf	0
bin	0	0
bin	1	0
statistic MediumActivityDisplayingSignalsTransmissionsReceptionsShowcase.host2.wlan[0].mac.dcf.channelAccess.inProgressFrames queueingTime:histogram
field count 0
field mean -nan
field stddev nan
field min nan
field max nan
field sum 0
field sqrsum 0
bin	-inf	0
bin	0	0
bin	1	0
statistic MediumActivityDisplayingSignalsTransmissionsReceptionsShowcase.host2.wlan[0].mac.dcf frameSequenceDuration:histogram
field count 0
field mean -nan
field stddev nan
field min nan
field max nan
field sum 0
field sqrsum 0
bin	-inf	0
bin	0	0
bin	1	0
statistic MediumActivityDisplayingSignalsTransmissionsReceptionsShowcase.host2.wlan[0].mac.dcf frameSequenceNumPackets:histogram
field count 0
field mean -nan
field stddev nan
field min nan
field max nan
field sum 0
field sqrsum 0
bin	-inf	0
bin	0	0
bin	1	0
statistic MediumActivityDisplayingSignalsTransmissionsReceptionsShowcase.host2.wlan[0].radio radioChannel:histogram
field count 1
field mean 0
field stddev nan
field min 0
field max 0
field sum 0
field sqrsum 0
bin	-inf	0
bin	-0.5	0
bin	-0.48	0
bin	-0.46	0
bin	-0.44	0
bin	-0.42	0
bin	-0.4	0
bin	-0.38	0
bin	-0.36	0
bin	-0.34	0
bin	-0.32	0
bin	-0.3	0
bin	-0.28	0
bin	-0.26	0
bin	-0.24	0
bin	-0.22	0
bin	-0.2	0
bin	-0.18	0
bin	-0.16	0
bin	-0.14	0
bin	-0.12	0
bin	-0.1	0
bin	-0.08	0
bin	-0.06	0
bin	-0.04	0
bin	-0.02	0
bin	0	1
bin	0.02	0
bin	0.04	0
bin	0.06	0
bin	0.08	0
bin	0.1	0
bin	0.12	0
bin	0.14	0
bin	0.16	0
bin	0.18	0
bin	0.2	0
bin	0.22	0
bin	0.24	0
bin	0.26	0
bin	0.28	0
bin	0.3	0
bin	0.32	0
bin	0.34	0
bin	0.36	0
bin	0.38	0
bin	0.4	0
bin	0.42	0
bin	0.44	0
bin	0.46	0
bin	0.48	0
bin	0.5	0
statistic MediumActivityDisplayingSignalsTransmissionsReceptionsShowcase.host2.wlan[0].radio minSnir:histogram
field count 99
field mean 449.25485013274
field stddev 0
field min 449.25485013274
field max 449.25485013274
field sum 44476.230163141
field sqrsum 19981162.116411
bin	-inf	0
bin	448.74	0
bin	448.76	0
bin	448.78	0
bin	448.8	0
bin	448.82	0
bin	448.84	0
bin	448.86	0
bin	448.88	0
bin	448.9	0
bin	448.92	0
bin	448.94	0
bin	448.96	0
bin	448.98	0
bin	449	0
bin	449.02	0
bin	449.04	0
bin	449.06	0
bin	449.08	0
bin	449.1	0
bin	449.12	0
bin	449.14	0
bin	449.16	0
bin	449.18	0
bin	449.2	0
bin	449.22	0
bin	449.24	99
bin	449.26	0
bin	449.28	0
bin	449.3	0
bin	449.32	0
bin	449.34	0
bin	449.36	0
bin	449.38	0
bin	449.4	0
bin	449.42	0
bin	449.44	0
bin	449.46	0
bin	449.48	0
bin	449.5	0
bin	449.52	0
bin	449.54	0
bin	449.56	0
bin	449.58	0
bin	449.6	0
bin	449.62	0
bin	449.64	0
bin	449.66	0
bin	449.68	0
bin	449.7	0
bin	449.72	0
bin	449.74	0
bin	449.76	0
statistic MediumActivityDisplayingSignalsTransmissionsReceptionsShowcase.host2.wlan[0].radio packetErrorRate:histogram
field count 99
field mean 0
field stddev 0
field min 0
field max 0
field sum 0
field sqrsum 0
bin	-inf	0
bin	-0.5	0
bin	-0.48	0
bin	-0.46	0
bin	-0.44	0
bin	-0.42	0
bin	-0.4	0
bin	-0.38	0
bin	-0.36	0
bin	-0.34	0
bin	-0.32	0
bin	-0.3	0
bin	-0.28	0
bin	-0.26	0
bin	-0.24	0
bin	-0.22	0
bin	-0.2	0
bin	-0.18	0
bin	-0.16	0
bin	-0.14	0
bin	-0.12	0
bin	-0.1	0
bin	-0.08	0
bin	-0.06	0
bin	-0.04	0
bin	-0.02	0
bin	0	99
bin	0.02	0
bin	0.04	0
bin	0.06	0
bin	0.08	0
bin	0.1	0
bin	0.12	0
bin	0.14	0
bin	0.16	0
bin	0.18	0
bin	0.2	0
bin	0.22	0
bin	0.24	0
bin	0.26	0
bin	0.28	0
bin	0.3	0
bin	0.32	0
bin	0.34	0
bin	0.36	0
bin	0.38	0
bin	0.4	0
bin	0.42	0
bin	0.44	0
bin	0.46	0
bin	0.48	0
bin	0.5	0
statistic MediumActivityDisplayingSignalsTransmissionsReceptionsShowcase.host2.wlan[0].radio bitErrorRate:histogram
field count 0
field mean -nan
field stddev nan
field min nan
field max nan
field sum 0
field sqrsum 0
bin	-inf	0
bin	0	0
bin	1	0
statistic MediumActivityDisplayingSignalsTransmissionsReceptionsShowcase.host2.wlan[0].radio symbolErrorRate:histogram
field count 0
field mean -nan
field stddev nan
field min nan
field max nan
field sum 0
field sqrsum 0
bin	-inf	0
bin	0	0
bin	1	0
statistic MediumActivityDisplayingSignalsTransmissionsReceptionsShowcase.host2.app[0] endToEndDelay:histogram
field count 99
field mean 0.000383556562
field stddev 0
field min 0.000383556562
field max 0.000383556562
field sum 0.037972099638
field sqrsum 1.4564447989073e-05
bin	-inf	0
bin	0	99
bin	0.01	0
bin	0.02	0
bin	0.03	0
bin	0.04	0
bin	0.05	0
bin	0.06	0
bin	0.07	0
bin	0.08	0
bin	0.09	0
bin	0.1	0
bin	0.11	0
bin	0.12	0
bin	0.13	0
bin	0.14	0
bin	0.15	0
bin	0.16	0
bin	0.17	0
bin	0.18	0
bin	0.19	0
bin	0.2	0
bin	0.21	0
bin	0.22	0
bin	0.23	0
bin	0.24	0
bin	0.25	0
bin	0.26	0
bin	0.27	0
bin	0.28	0
bin	0.29	0
bin	0.3	0
bin	0.31	0
bin	0.32	0
bin	0.33	0
bin	0.34	0
bin	0.35	0
bin	0.36	0
bin	0.37	0
bin	0.38	0
bin	0.39	0
bin	0.4	0
bin	0.41	0
bin	0.42	0
bin	0.43	0
bin	0.44	0
bin	0.45	0
bin	0.46	0
bin	0.47	0
bin	0.48	0
bin	0.49	0
bin	0.5	0
bin	0.51	0
statistic MediumActivityDisplayingSignalsTransmissionsReceptionsShowcase.host1.wlan[0].mac.dcf.channelAccess.pendingQueue queueingTime:histogram
field count 100
field mean 0
field stddev 0
field min 0
field max 0
field sum 0
field sqrsum 0
bin	-inf	0
bin	-0.5	0
bin	-0.48	0
bin	-0.46	0
bin	-0.44	0
bin	-0.42	0
bin	-0.4	0
bin	-0.38	0
bin	-0.36	0
bin	-0.34	0
bin	-0.32	0
bin	-0.3	0
bin	-0.28	0
bin	-0.26	0
bin	-0.24	0
bin	-0.22	0
[...]
scalar MediumActivityDisplayingSignalsTransmissionsReceptionsShowcase.host1.wlan[0] packetDropNoCarrier:vector(packetBytes):starttime nan
scalar MediumActivityDisplayingSignalsTransmissionsReceptionsShowcase.host1.wlan[0] packetDropNoCarrier:vector(packetBytes):endtime nan
scalar MediumActivityDisplayingSignalsTransmissionsReceptionsShowcase.host1.ipv4.ip packetDropAddressResolutionFailed:vector(packetBytes):count 0
scalar MediumActivityDisplayingSignalsTransmissionsReceptionsShowcase.host1.ipv4.ip packetDropAddressResolutionFailed:vector(packetBytes):sum 0
scalar MediumActivityDisplayingSignalsTransmissionsReceptionsShowcase.host1.ipv4.ip packetDropAddressResolutionFailed:vector(packetBytes):sumweights 0
scalar MediumActivityDisplayingSignalsTransmissionsReceptionsShowcase.host1.ipv4.ip packetDropAddressResolutionFailed:vector(packetBytes):mean -nan
scalar MediumActivityDisplayingSignalsTransmissionsReceptionsShowcase.host1.ipv4.ip packetDropAddressResolutionFailed:vector(packetBytes):stddev nan
scalar MediumActivityDisplayingSignalsTransmissionsReceptionsShowcase.host1.ipv4.ip packetDropAddressResolutionFailed:vector(packetBytes):min inf
scalar MediumActivityDisplayingSignalsTransmissionsReceptionsShowcase.host1.ipv4.ip packetDropAddressResolutionFailed:vector(packetBytes):max -inf
scalar MediumActivityDisplayingSignalsTransmissionsReceptionsShowcase.host1.ipv4.ip packetDropAddressResolutionFailed:vector(packetBytes):starttime nan
scalar MediumActivityDisplayingSignalsTransmissionsReceptionsShowcase.host1.ipv4.ip packetDropAddressResolutionFailed:vector(packetBytes):endtime nan
scalar MediumActivityDisplayingSignalsTransmissionsReceptionsShowcase.host1.ipv4.ip packetDropHopLimitReached:vector(packetBytes):count 0
scalar MediumActivityDisplayingSignalsTransmissionsReceptionsShowcase.host1.ipv4.ip packetDropHopLimitReached:vector(packetBytes):sum 0
scalar MediumActivityDisplayingSignalsTransmissionsReceptionsShowcase.host1.ipv4.ip packetDropHopLimitReached:vector(packetBytes):sumweights 0
scalar MediumActivityDisplayingSignalsTransmissionsReceptionsShowcase.host1.ipv4.ip packetDropHopLimitReached:vector(packetBytes):mean -nan
scalar MediumActivityDisplayingSignalsTransmissionsReceptionsShowcase.host1.ipv4.ip packetDropHopLimitReached:vector(packetBytes):stddev nan
scalar MediumActivityDisplayingSignalsTransmissionsReceptionsShowcase.host1.ipv4.ip packetDropHopLimitReached:vector(packetBytes):min inf
scalar MediumActivityDisplayingSignalsTransmissionsReceptionsShowcase.host1.ipv4.ip packetDropHopLimitReached:vector(packetBytes):max -inf
scalar MediumActivityDisplayingSignalsTransmissionsReceptionsShowcase.host1.ipv4.ip packetDropHopLimitReached:vector(packetBytes):starttime nan
scalar MediumActivityDisplayingSignalsTransmissionsReceptionsShowcase.host1.ipv4.ip packetDropHopLimitReached:vector(packetBytes):endtime nan
scalar MediumActivityDisplayingSignalsTransmissionsReceptionsShowcase.host1.ipv4.ip packetDropForwardingDisabled:vector(packetBytes):count 0
scalar MediumActivityDisplayingSignalsTransmissionsReceptionsShowcase.host1.ipv4.ip packetDropForwardingDisabled:vector(packetBytes):sum 0
scalar MediumActivityDisplayingSignalsTransmissionsReceptionsShowcase.host1.ipv4.ip packetDropForwardingDisabled:vector(packetBytes):sumweights 0
scalar MediumActivityDisplayingSignalsTransmissionsReceptionsShowcase.host1.ipv4.ip packetDropForwardingDisabled:vector(packetBytes):mean -nan
scalar MediumActivityDisplayingSignalsTransmissionsReceptionsShowcase.host1.ipv4.ip packetDropForwardingDisabled:vector(packetBytes):stddev nan
scalar MediumActivityDisplayingSignalsTransmissionsReceptionsShowcase.host1.ipv4.ip packetDropForwardingDisabled:vector(packetBytes):min inf
scalar MediumActivityDisplayingSignalsTransmissionsReceptionsShowcase.host1.ipv4.ip packetDropForwardingDisabled:vector(packetBytes):max -inf
scalar MediumActivityDisplayingSignalsTransmissionsReceptionsShowcase.host1.ipv4.ip packetDropForwardingDisabled:vector(packetBytes):starttime nan
scalar MediumActivityDisplayingSignalsTransmissionsReceptionsShowcase.host1.ipv4.ip packetDropForwardingDisabled:vector(packetBytes):endtime nan
scalar MediumActivityDisplayingSignalsTransmissionsReceptionsShowcase.host1.ipv4.ip packetDropLifetimeExpired:vector(packetBytes):count 0
scalar MediumActivityDisplayingSignalsTransmissionsReceptionsShowcase.host1.ipv4.ip packetDropLifetimeExpired:vector(packetBytes):sum 0
scalar MediumActivityDisplayingSignalsTransmissionsReceptionsShowcase.host1.ipv4.ip packetDropLifetimeExpired:vector(packetBytes):sumweights 0
scalar MediumActivityDisplayingSignalsTransmissionsReceptionsShowcase.host1.ipv4.ip packetDropLifetimeExpired:vector(packetBytes):mean -nan
scalar MediumActivityDisplayingSignalsTransmissionsReceptionsShowcase.host1.ipv4.ip packetDropLifetimeExpired:vector(packetBytes):stddev nan
scalar MediumActivityDisplayingSignalsTransmissionsReceptionsShowcase.host1.ipv4.ip packetDropLifetimeExpired:vector(packetBytes):min inf
scalar MediumActivityDisplayingSignalsTransmissionsReceptionsShowcase.host1.ipv4.ip packetDropLifetimeExpired:vector(packetBytes):max -inf
scalar MediumActivityDisplayingSignalsTransmissionsReceptionsShowcase.host1.ipv4.ip packetDropLifetimeExpired:vector(packetBytes):starttime nan
scalar MediumActivityDisplayingSignalsTransmissionsReceptionsShowcase.host1.ipv4.ip packetDropLifetimeExpired:vector(packetBytes):endtime nan
scalar MediumActivityDisplayingSignalsTransmissionsReceptionsShowcase.host1.ipv4.ip packetDropNoInterfaceFound:vector(packetBytes):count 0
scalar MediumActivityDisplayingSignalsTransmissionsReceptionsShowcase.host1.ipv4.ip packetDropNoInterfaceFound:vector(packetBytes):sum 0
scalar MediumActivityDisplayingSignalsTransmissionsReceptionsShowcase.host1.ipv4.ip packetDropNoInterfaceFound:vector(packetBytes):sumweights 0
scalar MediumActivityDisplayingSignalsTransmissionsReceptionsShowcase.host1.ipv4.ip packetDropNoInterfaceFound:vector(packetBytes):mean -nan
scalar MediumActivityDisplayingSignalsTransmissionsReceptionsShowcase.host1.ipv4.ip packetDropNoInterfaceFound:vector(packetBytes):stddev nan
scalar MediumActivityDisplayingSignalsTransmissionsReceptionsShowcase.host1.ipv4.ip packetDropNoInterfaceFound:vector(packetBytes):min inf
scalar MediumActivityDisplayingSignalsTransmissionsReceptionsShowcase.host1.ipv4.ip packetDropNoInterfaceFound:vector(packetBytes):max -inf
scalar MediumActivityDisplayingSignalsTransmissionsReceptionsShowcase.host1.ipv4.ip packetDropNoInterfaceFound:vector(packetBytes):starttime nan
scalar MediumActivityDisplayingSignalsTransmissionsReceptionsShowcase.host1.ipv4.ip packetDropNoInterfaceFound:vector(packetBytes):endtime nan
scalar MediumActivityDisplayingSignalsTransmissionsReceptionsShowcase.host1.ipv4.ip packetDropNoRouteFound:vector(packetBytes):count 0
scalar MediumActivityDisplayingSignalsTransmissionsReceptionsShowcase.host1.ipv4.ip packetDropNoRouteFound:vector(packetBytes):sum 0
scalar MediumActivityDisplayingSignalsTransmissionsReceptionsShowcase.host1.ipv4.ip packetDropNoRouteFound:vector(packetBytes):sumweights 0
scalar MediumActivityDisplayingSignalsTransmissionsReceptionsShowcase.host1.ipv4.ip packetDropNoRouteFound:vector(packetBytes):mean -nan
scalar MediumActivityDisplayingSignalsTransmissionsReceptionsShowcase.host1.ipv4.ip packetDropNoRouteFound:vector(packetBytes):stddev nan
scalar MediumActivityDisplayingSignalsTransmissionsReceptionsShowcase.host1.ipv4.ip packetDropNoRouteFound:vector(packetBytes):min inf
scalar MediumActivityDisplayingSignalsTransmissionsReceptionsShowcase.host1.ipv4.ip packetDropNoRouteFound:vector(packetBytes):max -inf
scalar MediumActivityDisplayingSignalsTransmissionsReceptionsShowcase.host1.ipv4.ip packetDropNoRouteFound:vector(packetBytes):starttime nan
scalar MediumActivityDisplayingSignalsTransmissionsReceptionsShowcase.host1.ipv4.ip packetDropNoRouteFound:vector(packetBytes):endtime nan
scalar MediumActivityDisplayingSignalsTransmissionsReceptionsShowcase.host1.ipv4.ip packetDropUndefined:vector(packetBytes):count 0
scalar MediumActivityDisplayingSignalsTransmissionsReceptionsShowcase.host1.ipv4.ip packetDropUndefined:vector(packetBytes):sum 0
scalar MediumActivityDisplayingSignalsTransmissionsReceptionsShowcase.host1.ipv4.ip packetDropUndefined:vector(packetBytes):sumweights 0
scalar MediumActivityDisplayingSignalsTransmissionsReceptionsShowcase.host1.ipv4.ip packetDropUndefined:vector(packetBytes):mean -nan
scalar MediumActivityDisplayingSignalsTransmissionsReceptionsShowcase.host1.ipv4.ip packetDropUndefined:vector(packetBytes):stddev nan
scalar MediumActivityDisplayingSignalsTransmissionsReceptionsShowcase.host1.ipv4.ip packetDropUndefined:vector(packetBytes):min inf
scalar MediumActivityDisplayingSignalsTransmissionsReceptionsShowcase.host1.ipv4.ip packetDropUndefined:vector(packetBytes):max -inf
scalar MediumActivityDisplayingSignalsTransmissionsReceptionsShowcase.host1.ipv4.ip packetDropUndefined:vector(packetBytes):starttime nan
scalar MediumActivityDisplayingSignalsTransmissionsReceptionsShowcase.host1.ipv4.ip packetDropUndefined:vector(packetBytes):endtime nan
scalar MediumActivityDisplayingSignalsTransmissionsReceptionsShowcase.host1.udp packetSent:vector(packetBytes):count 100
scalar MediumActivityDisplayingSignalsTransmissionsReceptionsShowcase.host1.udp packetSent:vector(packetBytes):sum 100800
scalar MediumActivityDisplayingSignalsTransmissionsReceptionsShowcase.host1.udp packetSent:vector(packetBytes):sumweights 100
scalar MediumActivityDisplayingSignalsTransmissionsReceptionsShowcase.host1.udp packetSent:vector(packetBytes):mean 1008
scalar MediumActivityDisplayingSignalsTransmissionsReceptionsShowcase.host1.udp packetSent:vector(packetBytes):stddev 0
scalar MediumActivityDisplayingSignalsTransmissionsReceptionsShowcase.host1.udp packetSent:vector(packetBytes):min 1008
scalar MediumActivityDisplayingSignalsTransmissionsReceptionsShowcase.host1.udp packetSent:vector(packetBytes):max 1008
scalar MediumActivityDisplayingSignalsTransmissionsReceptionsShowcase.host1.udp packetSent:vector(packetBytes):starttime 10
scalar MediumActivityDisplayingSignalsTransmissionsReceptionsShowcase.host1.udp packetSent:vector(packetBytes):endtime 1000
scalar MediumActivityDisplayingSignalsTransmissionsReceptionsShowcase.host1.udp packetReceived:vector(packetBytes):count 0
scalar MediumActivityDisplayingSignalsTransmissionsReceptionsShowcase.host1.udp packetReceived:vector(packetBytes):sum 0
scalar MediumActivityDisplayingSignalsTransmissionsReceptionsShowcase.host1.udp packetReceived:vector(packetBytes):sumweights 0
scalar MediumActivityDisplayingSignalsTransmissionsReceptionsShowcase.host1.udp packetReceived:vector(packetBytes):mean -nan
scalar MediumActivityDisplayingSignalsTransmissionsReceptionsShowcase.host1.udp packetReceived:vector(packetBytes):stddev nan
scalar MediumActivityDisplayingSignalsTransmissionsReceptionsShowcase.host1.udp packetReceived:vector(packetBytes):min inf
scalar MediumActivityDisplayingSignalsTransmissionsReceptionsShowcase.host1.udp packetReceived:vector(packetBytes):max -inf
scalar MediumActivityDisplayingSignalsTransmissionsReceptionsShowcase.host1.udp packetReceived:vector(packetBytes):starttime nan
scalar MediumActivityDisplayingSignalsTransmissionsReceptionsShowcase.host1.udp packetReceived:vector(packetBytes):endtime nan
scalar MediumActivityDisplayingSignalsTransmissionsReceptionsShowcase.host1.udp passedUpPk:vector(count):count 1
scalar MediumActivityDisplayingSignalsTransmissionsReceptionsShowcase.host1.udp passedUpPk:vector(count):sum 0
scalar MediumActivityDisplayingSignalsTransmissionsReceptionsShowcase.host1.udp passedUpPk:vector(count):sumweights 1
scalar MediumActivityDisplayingSignalsTransmissionsReceptionsShowcase.host1.udp passedUpPk:vector(count):mean 0
scalar MediumActivityDisplayingSignalsTransmissionsReceptionsShowcase.host1.udp passedUpPk:vector(count):stddev nan
scalar MediumActivityDisplayingSignalsTransmissionsReceptionsShowcase.host1.udp passedUpPk:vector(count):min 0
scalar MediumActivityDisplayingSignalsTransmissionsReceptionsShowcase.host1.udp passedUpPk:vector(count):max 0
scalar MediumActivityDisplayingSignalsTransmissionsReceptionsShowcase.host1.udp passedUpPk:vector(count):starttime 0
scalar MediumActivityDisplayingSignalsTransmissionsReceptionsShowcase.host1.udp passedUpPk:vector(count):endtime 0
scalar MediumActivityDisplayingSignalsTransmissionsReceptionsShowcase.host1.udp droppedPkWrongPort:vector(count):count 1
scalar MediumActivityDisplayingSignalsTransmissionsReceptionsShowcase.host1.udp droppedPkWrongPort:vector(count):sum 0
scalar MediumActivityDisplayingSignalsTransmissionsReceptionsShowcase.host1.udp droppedPkWrongPort:vector(count):sumweights 1
scalar MediumActivityDisplayingSignalsTransmissionsReceptionsShowcase.host1.udp droppedPkWrongPort:vector(count):mean 0
scalar MediumActivityDisplayingSignalsTransmissionsReceptionsShowcase.host1.udp droppedPkWrongPort:vector(count):stddev nan
scalar MediumActivityDisplayingSignalsTransmissionsReceptionsShowcase.host1.udp droppedPkWrongPort:vector(count):min 0
scalar MediumActivityDisplayingSignalsTransmissionsReceptionsShowcase.host1.udp droppedPkWrongPort:vector(count):max 0
scalar MediumActivityDisplayingSignalsTransmissionsReceptionsShowcase.host1.udp droppedPkWrongPort:vector(count):starttime 0
scalar MediumActivityDisplayingSignalsTransmissionsReceptionsShowcase.host1.udp droppedPkWrongPort:vector(count):endtime 0
scalar MediumActivityDisplayingSignalsTransmissionsReceptionsShowcase.host1.udp droppedPkBadChecksum:vector(count):count 1
scalar MediumActivityDisplayingSignalsTransmissionsReceptionsShowcase.host1.udp droppedPkBadChecksum:vector(count):sum 0
scalar MediumActivityDisplayingSignalsTransmissionsReceptionsShowcase.host1.udp droppedPkBadChecksum:vector(count):sumweights 1
scalar MediumActivityDisplayingSignalsTransmissionsReceptionsShowcase.host1.udp droppedPkBadChecksum:vector(count):mean 0
scalar MediumActivityDisplayingSignalsTransmissionsReceptionsShowcase.host1.udp droppedPkBadChecksum:vector(count):stddev nan
scalar MediumActivityDisplayingSignalsTransmissionsReceptionsShowcase.host1.udp droppedPkBadChecksum:vector(count):min 0
scalar MediumActivityDisplayingSignalsTransmissionsReceptionsShowcase.host1.udp droppedPkBadChecksum:vector(count):max 0
scalar MediumActivityDisplayingSignalsTransmissionsReceptionsShowcase.host1.udp droppedPkBadChecksum:vector(count):starttime 0
scalar MediumActivityDisplayingSignalsTransmissionsReceptionsShowcase.host1.udp droppedPkBadChecksum:vector(count):endtime 0
scalar MediumActivityDisplayingSignalsTransmissionsReceptionsShowcase.host1.app[0] packetReceived:vector(packetBytes):count 0
scalar MediumActivityDisplayingSignalsTransmissionsReceptionsShowcase.host1.app[0] packetReceived:vector(packetBytes):sum 0
scalar MediumActivityDisplayingSignalsTransmissionsReceptionsShowcase.host1.app[0] packetReceived:vector(packetBytes):sumweights 0
scalar MediumActivityDisplayingSignalsTransmissionsReceptionsShowcase.host1.app[0] packetReceived:vector(packetBytes):mean -nan
scalar MediumActivityDisplayingSignalsTransmissionsReceptionsShowcase.host1.app[0] packetReceived:vector(packetBytes):stddev nan
scalar MediumActivityDisplayingSignalsTransmissionsReceptionsShowcase.host1.app[0] packetReceived:vector(packetBytes):min inf
scalar MediumActivityDisplayingSignalsTransmissionsReceptionsShowcase.host1.app[0] packetReceived:vector(packetBytes):max -inf
scalar MediumActivityDisplayingSignalsTransmissionsReceptionsShowcase.host1.app[0] packetReceived:vector(packetBytes):starttime nan
scalar MediumActivityDisplayingSignalsTransmissionsReceptionsShowcase.host1.app[0] packetReceived:vector(packetBytes):endtime nan
scalar MediumActivityDisplayingSignalsTransmissionsReceptionsShowcase.host1.app[0] throughput:vector:count 10000
scalar MediumActivityDisplayingSignalsTransmissionsReceptionsShowcase.host1.app[0] throughput:vector:sum 0
scalar MediumActivityDisplayingSignalsTransmissionsReceptionsShowcase.host1.app[0] throughput:vector:sumweights 10000
scalar MediumActivityDisplayingSignalsTransmissionsReceptionsShowcase.host1.app[0] throughput:vector:mean 0
scalar MediumActivityDisplayingSignalsTransmissionsReceptionsShowcase.host1.app[0] throughput:vector:stddev 0
scalar MediumActivityDisplayingSignalsTransmissionsReceptionsShowcase.host1.app[0] throughput:vector:min 0
scalar MediumActivityDisplayingSignalsTransmissionsReceptionsShowcase.host1.app[0] throughput:vector:max 0
scalar MediumActivityDisplayingSignalsTransmissionsReceptionsShowcase.host1.app[0] throughput:vector:starttime 0.1
scalar MediumActivityDisplayingSignalsTransmissionsReceptionsShowcase.host1.app[0] throughput:vector:endtime 1000
scalar MediumActivityDisplayingSignalsTransmissionsReceptionsShowcase.host1.app[0] packetSent:vector(packetBytes):count 100
scalar MediumActivityDisplayingSignalsTransmissionsReceptionsShowcase.host1.app[0] packetSent:vector(packetBytes):sum 100000
scalar MediumActivityDisplayingSignalsTransmissionsReceptionsShowcase.host1.app[0] packetSent:vector(packetBytes):sumweights 100
scalar MediumActivityDisplayingSignalsTransmissionsReceptionsShowcase.host1.app[0] packetSent:vector(packetBytes):mean 1000
scalar MediumActivityDisplayingSignalsTransmissionsReceptionsShowcase.host1.app[0] packetSent:vector(packetBytes):stddev 0
scalar MediumActivityDisplayingSignalsTransmissionsReceptionsShowcase.host1.app[0] packetSent:vector(packetBytes):min 1000
scalar MediumActivityDisplayingSignalsTransmissionsReceptionsShowcase.host1.app[0] packetSent:vector(packetBytes):max 1000
scalar MediumActivityDisplayingSignalsTransmissionsReceptionsShowcase.host1.app[0] packetSent:vector(packetBytes):starttime 10
scalar MediumActivityDisplayingSignalsTransmissionsReceptionsShowcase.host1.app[0] packetSent:vector(packetBytes):endtime 1000
scalar MediumActivityDisplayingSignalsTransmissionsReceptionsShowcase.host1.app[0] rcvdPkLifetime:vector:count 0
scalar MediumActivityDisplayingSignalsTransmissionsReceptionsShowcase.host1.app[0] rcvdPkLifetime:vector:sum 0
scalar MediumActivityDisplayingSignalsTransmissionsReceptionsShowcase.host1.app[0] rcvdPkLifetime:vector:sumweights 0
scalar MediumActivityDisplayingSignalsTransmissionsReceptionsShowcase.host1.app[0] rcvdPkLifetime:vector:mean -nan
scalar MediumActivityDisplayingSignalsTransmissionsReceptionsShowcase.host1.app[0] rcvdPkLifetime:vector:stddev nan
scalar MediumActivityDisplayingSignalsTransmissionsReceptionsShowcase.host1.app[0] rcvdPkLifetime:vector:min inf
scalar MediumActivityDisplayingSignalsTransmissionsReceptionsShowcase.host1.app[0] rcvdPkLifetime:vector:max -inf
scalar MediumActivityDisplayingSignalsTransmissionsReceptionsShowcase.host1.app[0] rcvdPkLifetime:vector:starttime nan
scalar MediumActivityDisplayingSignalsTransmissionsReceptionsShowcase.host1.app[0] rcvdPkLifetime:vector:endtime nan
scalar MediumActivityDisplayingSignalsTransmissionsReceptionsShowcase.host1.app[0] rcvdPkSeqNo:vector:count 0
scalar MediumActivityDisplayingSignalsTransmissionsReceptionsShowcase.host1.app[0] rcvdPkSeqNo:vector:sum 0
scalar MediumActivityDisplayingSignalsTransmissionsReceptionsShowcase.host1.app[0] rcvdPkSeqNo:vector:sumweights 0
scalar MediumActivityDisplayingSignalsTransmissionsReceptionsShowcase.host1.app[0] rcvdPkSeqNo:vector:mean -nan
scalar MediumActivityDisplayingSignalsTransmissionsReceptionsShowcase.host1.app[0] rcvdPkSeqNo:vector:stddev nan
scalar MediumActivityDisplayingSignalsTransmissionsReceptionsShowcase.host1.app[0] rcvdPkSeqNo:vector:min inf
scalar MediumActivityDisplayingSignalsTransmissionsReceptionsShowcase.host1.app[0] rcvdPkSeqNo:vector:max -inf
scalar MediumActivityDisplayingSignalsTransmissionsReceptionsShowcase.host1.app[0] rcvdPkSeqNo:vector:starttime nan
scalar MediumActivityDisplayingSignalsTransmissionsReceptionsShowcase.host1.app[0] rcvdPkSeqNo:vector:endtime nan

