version 3
run dynamic2-0-20250108-11:29:07-11921
attr configname dynamic2
attr datetime 20250108-11:29:07
attr datetimef 20250108-112907
attr experiment dynamic2
attr inifile omnetpp.ini
attr iterationvars ""
attr iterationvarsd ""
attr iterationvarsf ""
attr measurement ""
attr network DynamicTest
attr processid 11921
attr repetition 0
attr replication #0
attr resultdir results
attr runnumber 0
attr seedset 0
config **.param-recording false
config image-path /home/levy/workspace/inet/images
config output-scalar-file results/omnetpp.ini-dynamic2-#0.sca
config output-vector-file results/omnetpp.ini-dynamic2-#0.vec
config sim-time-limit 600s
config description "shutdown/startup node (dynamic topology)"
config **.hasStatus true
config *.scenarioManager.script "xmldoc(\"scenario2.xml\")"
config description "Dynamic test"
config network DynamicTest
config sim-time-limit 600s
config **.ospf.ospfConfig "xmldoc(\"ASConfig.xml\")"
config **.H*.numApps 2
config **.app[0].typename UdpBasicApp
config **.app[0].destPort 1234
config **.app[0].messageLength "32 bytes"
config **.app[0].sendInterval 0.1s
config **.app[0].startTime 100s
config **.app[0].stopTime "this.startTime + 400s"
config **.H2.app[0].destAddresses "\"H1\""
config **.H1.app[0].destAddresses "\"H2\""
config **.app[1].typename UdpEchoApp
config **.app[1].localPort 1234
config **.arp.cacheTimeout 1s
config *.configurator.addStaticRoutes false
config *.configurator.addSubnetRoutes false
config *.configurator.addDefaultRoutes false

scalar DynamicTest.H1.ethernet pauseSent:count 0
scalar DynamicTest.H1.ethernet pauseSent:sum 0
scalar DynamicTest.H1.ethernet decapPk:count 7746
scalar DynamicTest.H1.ethernet decapPk:sum(packetBytes) 459568
scalar DynamicTest.H1.ethernet encapPk:count 8037
scalar DynamicTest.H1.ethernet encapPk:sum(packetBytes) 469804
scalar DynamicTest.H1.lo[0].lo rcvdPkFromHl:count 0
scalar DynamicTest.H1.lo[0].lo rcvdPkFromHl:sum(packetBytes) 0
scalar DynamicTest.H1.lo[0].lo passedUpPk:count 0
scalar DynamicTest.H1.lo[0].lo passedUpPk:sum(packetBytes) 0
scalar DynamicTest.H1.lo[0] packetDropInterfaceDown:count 0
scalar DynamicTest.H1.lo[0] packetDropInterfaceDown:sum(packetBytes) 0
scalar DynamicTest.H1.lo[0] packetDropNoCarrier:count 0
scalar DynamicTest.H1.lo[0] packetDropNoCarrier:sum(packetBytes) 0
scalar DynamicTest.H1.eth[0].queue queueLength:last 0
scalar DynamicTest.H1.eth[0].queue queueLength:max 0
scalar DynamicTest.H1.eth[0].queue queueLength:timeavg 0
scalar DynamicTest.H1.eth[0].queue queueBitLength:last 0
scalar DynamicTest.H1.eth[0].queue queueBitLength:max 0
scalar DynamicTest.H1.eth[0].queue queueBitLength:timeavg 0
scalar DynamicTest.H1.eth[0].queue outgoingPackets:count 8037
scalar DynamicTest.H1.eth[0].queue outgoingPacketLengths:sum 4915760
scalar DynamicTest.H1.eth[0].queue incomingPackets:count 8037
scalar DynamicTest.H1.eth[0].queue incomingPacketLengths:sum 4915760
scalar DynamicTest.H1.eth[0].queue droppedPacketsQueueOverflow:count 0
scalar DynamicTest.H1.eth[0].queue droppedPacketLengthsQueueOverflow:sum 0
scalar DynamicTest.H1.eth[0].mac "simulated time" 600
scalar DynamicTest.H1.eth[0].mac full-duplex 1
scalar DynamicTest.H1.eth[0].mac "frames/sec sent" 13.395
scalar DynamicTest.H1.eth[0].mac "frames/sec rcvd" 12.91
scalar DynamicTest.H1.eth[0].mac "bits/sec sent" 8286.0533333333
scalar DynamicTest.H1.eth[0].mac "bits/sec rcvd" 7986.6133333333
scalar DynamicTest.H1.eth[0].mac "rx channel idle (%)" 99.991187146667
scalar DynamicTest.H1.eth[0].mac "rx channel utilization (%)" 0.0088128533333333
scalar DynamicTest.H1.eth[0].mac rxPausePkUnits:count 0
scalar DynamicTest.H1.eth[0].mac rxPausePkUnits:sum 0
scalar DynamicTest.H1.eth[0].mac txPausePkUnits:count 0
scalar DynamicTest.H1.eth[0].mac txPausePkUnits:sum 0
scalar DynamicTest.H1.eth[0].mac rxPkOk:count 7746
scalar DynamicTest.H1.eth[0].mac rxPkOk:sum(packetBytes) 598996
scalar DynamicTest.H1.eth[0].mac txPk:count 8037
scalar DynamicTest.H1.eth[0].mac txPk:sum(packetBytes) 621454
scalar DynamicTest.H1.eth[0].mac packetReceivedFromUpper:count 8037
scalar DynamicTest.H1.eth[0].mac packetReceivedFromUpper:sum(packetBytes) 614470
scalar DynamicTest.H1.eth[0].mac passedUpPk:count 7746
scalar DynamicTest.H1.eth[0].mac passedUpPk:sum(packetBytes) 598996
scalar DynamicTest.H1.eth[0].mac packetDropIncorrectlyReceived:count 0
scalar DynamicTest.H1.eth[0].mac packetDropIncorrectlyReceived:sum(packetBytes) 0
scalar DynamicTest.H1.eth[0].mac packetDropInterfaceDown:count 0
scalar DynamicTest.H1.eth[0].mac packetDropInterfaceDown:sum(packetBytes) 0
scalar DynamicTest.H1.eth[0].mac packetDropNotAddressedToUs:count 0
scalar DynamicTest.H1.eth[0].mac packetDropNotAddressedToUs:sum(packetBytes) 0
scalar DynamicTest.H1.eth[0] packetDropInterfaceDown:count 0
scalar DynamicTest.H1.eth[0] packetDropInterfaceDown:sum(packetBytes) 0
scalar DynamicTest.H1.eth[0] packetDropNoCarrier:count 0
scalar DynamicTest.H1.eth[0] packetDropNoCarrier:sum(packetBytes) 0
scalar DynamicTest.H1.ipv4.ip packetDropAddressResolutionFailed:count 0
scalar DynamicTest.H1.ipv4.ip packetDropAddressResolutionFailed:sum(packetBytes) 0
scalar DynamicTest.H1.ipv4.ip packetDropHopLimitReached:count 0
scalar DynamicTest.H1.ipv4.ip packetDropHopLimitReached:sum(packetBytes) 0
scalar DynamicTest.H1.ipv4.ip packetDropForwardingDisabled:count 0
scalar DynamicTest.H1.ipv4.ip packetDropForwardingDisabled:sum(packetBytes) 0
scalar DynamicTest.H1.ipv4.ip packetDropLifetimeExpired:count 0
scalar DynamicTest.H1.ipv4.ip packetDropLifetimeExpired:sum(packetBytes) 0
scalar DynamicTest.H1.ipv4.ip packetDropNoInterfaceFound:count 0
scalar DynamicTest.H1.ipv4.ip packetDropNoInterfaceFound:sum(packetBytes) 0
scalar DynamicTest.H1.ipv4.ip packetDropNoRouteFound:count 0
scalar DynamicTest.H1.ipv4.ip packetDropNoRouteFound:sum(packetBytes) 0
scalar DynamicTest.H1.ipv4.ip packetDropUndefined:count 0
scalar DynamicTest.H1.ipv4.ip packetDropUndefined:sum(packetBytes) 0
scalar DynamicTest.H1.ipv4.arp arpResolutionFailed:count 0
scalar DynamicTest.H1.ipv4.arp arpResolutionCompleted:count 388
scalar DynamicTest.H1.ipv4.arp arpResolutionInitiated:count 210
scalar DynamicTest.H1.ipv4.arp arpReplySent:count 178
scalar DynamicTest.H1.ipv4.arp arpReplySent:sum(packetBytes) 4984
scalar DynamicTest.H1.ipv4.arp arpRequestSent:count 210
scalar DynamicTest.H1.ipv4.arp arpRequestSent:sum(packetBytes) 5880
scalar DynamicTest.H1.udp packetReceived:count 7298
scalar DynamicTest.H1.udp packetReceived:sum(packetBytes) 291920
scalar DynamicTest.H1.udp packetSent:count 7649
scalar DynamicTest.H1.udp packetSent:sum(packetBytes) 305960
scalar DynamicTest.H1.udp passedUpPk:count 7298
scalar DynamicTest.H1.udp droppedPkWrongPort:count 0
scalar DynamicTest.H1.udp droppedPkBadChecksum:count 0
scalar DynamicTest.H1.app[0] "packets sent" 4000
scalar DynamicTest.H1.app[0] "packets received" 3649
scalar DynamicTest.H1.app[0] packetReceived:count 3649
scalar DynamicTest.H1.app[0] packetReceived:sum(packetBytes) 116768
scalar DynamicTest.H1.app[0] packetSent:count 4000
scalar DynamicTest.H1.app[0] packetSent:sum(packetBytes) 128000
scalar DynamicTest.H1.app[1] echoedPk:count 3649
scalar DynamicTest.H1.app[1] echoedPk:sum(packetBytes) 116768
scalar DynamicTest.R1.ethernet pauseSent:count 0
scalar DynamicTest.R1.ethernet pauseSent:sum 0
scalar DynamicTest.R1.ethernet decapPk:count 15838
scalar DynamicTest.R1.ethernet decapPk:sum(packetBytes) 941720
scalar DynamicTest.R1.ethernet encapPk:count 15650
scalar DynamicTest.R1.ethernet encapPk:sum(packetBytes) 916436
scalar DynamicTest.R1.lo[0].lo rcvdPkFromHl:count 0
scalar DynamicTest.R1.lo[0].lo rcvdPkFromHl:sum(packetBytes) 0
scalar DynamicTest.R1.lo[0].lo passedUpPk:count 0
scalar DynamicTest.R1.lo[0].lo passedUpPk:sum(packetBytes) 0
scalar DynamicTest.R1.lo[0] packetDropInterfaceDown:count 0
scalar DynamicTest.R1.lo[0] packetDropInterfaceDown:sum(packetBytes) 0
scalar DynamicTest.R1.lo[0] packetDropNoCarrier:count 0
scalar DynamicTest.R1.lo[0] packetDropNoCarrier:sum(packetBytes) 0
scalar DynamicTest.R1.eth[0].queue queueLength:last 0
scalar DynamicTest.R1.eth[0].queue queueLength:max 0
scalar DynamicTest.R1.eth[0].queue queueLength:timeavg 0
scalar DynamicTest.R1.eth[0].queue queueBitLength:last 0
scalar DynamicTest.R1.eth[0].queue queueBitLength:max 0
scalar DynamicTest.R1.eth[0].queue queueBitLength:timeavg 0
scalar DynamicTest.R1.eth[0].queue outgoingPackets:count 7746
scalar DynamicTest.R1.eth[0].queue outgoingPacketLengths:sum 4736096
scalar DynamicTest.R1.eth[0].queue incomingPackets:count 7746
scalar DynamicTest.R1.eth[0].queue incomingPacketLengths:sum 4736096
scalar DynamicTest.R1.eth[0].queue droppedPacketsQueueOverflow:count 0
scalar DynamicTest.R1.eth[0].queue droppedPacketLengthsQueueOverflow:sum 0
scalar DynamicTest.R1.eth[0].mac "simulated time" 600
scalar DynamicTest.R1.eth[0].mac full-duplex 1
scalar DynamicTest.R1.eth[0].mac "frames/sec sent" 12.91
scalar DynamicTest.R1.eth[0].mac "frames/sec rcvd" 13.395
scalar DynamicTest.R1.eth[0].mac "bits/sec sent" 7986.6133333333
scalar DynamicTest.R1.eth[0].mac "bits/sec rcvd" 8286.0533333333
scalar DynamicTest.R1.eth[0].mac "rx channel idle (%)" 99.990856666667
scalar DynamicTest.R1.eth[0].mac "rx channel utilization (%)" 0.0091433333333333
scalar DynamicTest.R1.eth[0].mac rxPausePkUnits:count 0
scalar DynamicTest.R1.eth[0].mac rxPausePkUnits:sum 0
scalar DynamicTest.R1.eth[0].mac txPausePkUnits:count 0
scalar DynamicTest.R1.eth[0].mac txPausePkUnits:sum 0
scalar DynamicTest.R1.eth[0].mac rxPkOk:count 8037
scalar DynamicTest.R1.eth[0].mac rxPkOk:sum(packetBytes) 621454
scalar DynamicTest.R1.eth[0].mac txPk:count 7746
scalar DynamicTest.R1.eth[0].mac txPk:sum(packetBytes) 598996
scalar DynamicTest.R1.eth[0].mac packetReceivedFromUpper:count 7746
scalar DynamicTest.R1.eth[0].mac packetReceivedFromUpper:sum(packetBytes) 592012
scalar DynamicTest.R1.eth[0].mac passedUpPk:count 8037
scalar DynamicTest.R1.eth[0].mac passedUpPk:sum(packetBytes) 621454
scalar DynamicTest.R1.eth[0].mac packetDropIncorrectlyReceived:count 0
scalar DynamicTest.R1.eth[0].mac packetDropIncorrectlyReceived:sum(packetBytes) 0
scalar DynamicTest.R1.eth[0].mac packetDropInterfaceDown:count 0
scalar DynamicTest.R1.eth[0].mac packetDropInterfaceDown:sum(packetBytes) 0
scalar DynamicTest.R1.eth[0].mac packetDropNotAddressedToUs:count 0
scalar DynamicTest.R1.eth[0].mac packetDropNotAddressedToUs:sum(packetBytes) 0
scalar DynamicTest.R1.eth[0] packetDropInterfaceDown:count 0
scalar DynamicTest.R1.eth[0] packetDropInterfaceDown:sum(packetBytes) 0
scalar DynamicTest.R1.eth[0] packetDropNoCarrier:count 0
scalar DynamicTest.R1.eth[0] packetDropNoCarrier:sum(packetBytes) 0
scalar DynamicTest.R1.eth[1].queue queueLength:last 0
scalar DynamicTest.R1.eth[1].queue queueLength:max 2
scalar DynamicTest.R1.eth[1].queue queueLength:timeavg 9.53e-08
scalar DynamicTest.R1.eth[1].queue queueBitLength:last 0
scalar DynamicTest.R1.eth[1].queue queueBitLength:max 1824
scalar DynamicTest.R1.eth[1].queue queueBitLength:timeavg 7.90256e-05
scalar DynamicTest.R1.eth[1].queue outgoingPackets:count 4256
scalar DynamicTest.R1.eth[1].queue outgoingPacketLengths:sum 2606592
scalar DynamicTest.R1.eth[1].queue incomingPackets:count 4256
scalar DynamicTest.R1.eth[1].queue incomingPacketLengths:sum 2606592
scalar DynamicTest.R1.eth[1].queue droppedPacketsQueueOverflow:count 0
scalar DynamicTest.R1.eth[1].queue droppedPacketLengthsQueueOverflow:sum 0
scalar DynamicTest.R1.eth[1].mac "simulated time" 600
scalar DynamicTest.R1.eth[1].mac full-duplex 1
scalar DynamicTest.R1.eth[1].mac "frames/sec sent" 7.0933333333333
scalar DynamicTest.R1.eth[1].mac "frames/sec rcvd" 6.9183333333333
scalar DynamicTest.R1.eth[1].mac "bits/sec sent" 4398.8
scalar DynamicTest.R1.eth[1].mac "bits/sec rcvd" 4293.2266666667
scalar DynamicTest.R1.eth[1].mac "rx channel idle (%)" 99.995264
scalar DynamicTest.R1.eth[1].mac "rx channel utilization (%)" 0.004736
scalar DynamicTest.R1.eth[1].mac rxPausePkUnits:count 0
scalar DynamicTest.R1.eth[1].mac rxPausePkUnits:sum 0
scalar DynamicTest.R1.eth[1].mac txPausePkUnits:count 0
scalar DynamicTest.R1.eth[1].mac txPausePkUnits:sum 0
scalar DynamicTest.R1.eth[1].mac rxPkOk:count 4151
scalar DynamicTest.R1.eth[1].mac rxPkOk:sum(packetBytes) 321992
scalar DynamicTest.R1.eth[1].mac txPk:count 4256
scalar DynamicTest.R1.eth[1].mac txPk:sum(packetBytes) 329910
scalar DynamicTest.R1.eth[1].mac packetReceivedFromUpper:count 4256
scalar DynamicTest.R1.eth[1].mac packetReceivedFromUpper:sum(packetBytes) 325824
scalar DynamicTest.R1.eth[1].mac passedUpPk:count 4151
scalar DynamicTest.R1.eth[1].mac passedUpPk:sum(packetBytes) 321992
scalar DynamicTest.R1.eth[1].mac packetDropIncorrectlyReceived:count 0
scalar DynamicTest.R1.eth[1].mac packetDropIncorrectlyReceived:sum(packetBytes) 0
scalar DynamicTest.R1.eth[1].mac packetDropInterfaceDown:count 0
scalar DynamicTest.R1.eth[1].mac packetDropInterfaceDown:sum(packetBytes) 0
scalar DynamicTest.R1.eth[1].mac packetDropNotAddressedToUs:count 0
scalar DynamicTest.R1.eth[1].mac packetDropNotAddressedToUs:sum(packetBytes) 0
scalar DynamicTest.R1.eth[1] packetDropInterfaceDown:count 0
scalar DynamicTest.R1.eth[1] packetDropInterfaceDown:sum(packetBytes) 0
scalar DynamicTest.R1.eth[1] packetDropNoCarrier:count 0
scalar DynamicTest.R1.eth[1] packetDropNoCarrier:sum(packetBytes) 0
scalar DynamicTest.R1.eth[2].queue queueLength:last 0
scalar DynamicTest.R1.eth[2].queue queueLength:max 1
scalar DynamicTest.R1.eth[2].queue queueLength:timeavg 7.23e-08
scalar DynamicTest.R1.eth[2].queue queueBitLength:last 0
scalar DynamicTest.R1.eth[2].queue queueBitLength:max 1104
scalar DynamicTest.R1.eth[2].queue queueBitLength:timeavg 6.1497066666667e-05
scalar DynamicTest.R1.eth[2].queue outgoingPackets:count 3648
scalar DynamicTest.R1.eth[2].queue outgoingPacketLengths:sum 2242400
scalar DynamicTest.R1.eth[2].queue incomingPackets:count 3648
scalar DynamicTest.R1.eth[2].queue incomingPacketLengths:sum 2242400
scalar DynamicTest.R1.eth[2].queue droppedPacketsQueueOverflow:count 0
scalar DynamicTest.R1.eth[2].queue droppedPacketLengthsQueueOverflow:sum 0
scalar DynamicTest.R1.eth[2].mac "simulated time" 600
scalar DynamicTest.R1.eth[2].mac full-duplex 1
scalar DynamicTest.R1.eth[2].mac "frames/sec sent" 6.08
scalar DynamicTest.R1.eth[2].mac "frames/sec rcvd" 6.0833333333333
scalar DynamicTest.R1.eth[2].mac "bits/sec sent" 3777.4133333333
scalar DynamicTest.R1.eth[2].mac "bits/sec rcvd" 3778.1066666667
scalar DynamicTest.R1.eth[2].mac "rx channel idle (%)" 99.99583256
scalar DynamicTest.R1.eth[2].mac "rx channel utilization (%)" 0.00416744
scalar DynamicTest.R1.eth[2].mac rxPausePkUnits:count 0
scalar DynamicTest.R1.eth[2].mac rxPausePkUnits:sum 0
scalar DynamicTest.R1.eth[2].mac txPausePkUnits:count 0
scalar DynamicTest.R1.eth[2].mac txPausePkUnits:sum 0
scalar DynamicTest.R1.eth[2].mac rxPkOk:count 3650
scalar DynamicTest.R1.eth[2].mac rxPkOk:sum(packetBytes) 283358
scalar DynamicTest.R1.eth[2].mac txPk:count 3648
scalar DynamicTest.R1.eth[2].mac txPk:sum(packetBytes) 283306
scalar DynamicTest.R1.eth[2].mac packetReceivedFromUpper:count 3648
scalar DynamicTest.R1.eth[2].mac packetReceivedFromUpper:sum(packetBytes) 280300
scalar DynamicTest.R1.eth[2].mac passedUpPk:count 3650
scalar DynamicTest.R1.eth[2].mac passedUpPk:sum(packetBytes) 283358
scalar DynamicTest.R1.eth[2].mac packetDropIncorrectlyReceived:count 0
scalar DynamicTest.R1.eth[2].mac packetDropIncorrectlyReceived:sum(packetBytes) 0
scalar DynamicTest.R1.eth[2].mac packetDropInterfaceDown:count 0
scalar DynamicTest.R1.eth[2].mac packetDropInterfaceDown:sum(packetBytes) 0
scalar DynamicTest.R1.eth[2].mac packetDropNotAddressedToUs:count 0
scalar DynamicTest.R1.eth[2].mac packetDropNotAddressedToUs:sum(packetBytes) 0
scalar DynamicTest.R1.eth[2] packetDropInterfaceDown:count 0
scalar DynamicTest.R1.eth[2] packetDropInterfaceDown:sum(packetBytes) 0
scalar DynamicTest.R1.eth[2] packetDropNoCarrier:count 0
scalar DynamicTest.R1.eth[2] packetDropNoCarrier:sum(packetBytes) 0
scalar DynamicTest.R1.ipv4.ip packetDropAddressResolutionFailed:count 296
scalar DynamicTest.R1.ipv4.ip packetDropAddressResolutionFailed:sum(packetBytes) 17760
scalar DynamicTest.R1.ipv4.ip packetDropHopLimitReached:count 0
scalar DynamicTest.R1.ipv4.ip packetDropHopLimitReached:sum(packetBytes) 0
scalar DynamicTest.R1.ipv4.ip packetDropForwardingDisabled:count 0
scalar DynamicTest.R1.ipv4.ip packetDropForwardingDisabled:sum(packetBytes) 0
scalar DynamicTest.R1.ipv4.ip packetDropLifetimeExpired:count 0
scalar DynamicTest.R1.ipv4.ip packetDropLifetimeExpired:sum(packetBytes) 0
scalar DynamicTest.R1.ipv4.ip packetDropNoInterfaceFound:count 0
scalar DynamicTest.R1.ipv4.ip packetDropNoInterfaceFound:sum(packetBytes) 0
scalar DynamicTest.R1.ipv4.ip packetDropNoRouteFound:count 0
scalar DynamicTest.R1.ipv4.ip packetDropNoRouteFound:sum(packetBytes) 0
scalar DynamicTest.R1.ipv4.ip packetDropUndefined:count 0
scalar DynamicTest.R1.ipv4.ip packetDropUndefined:sum(packetBytes) 0
scalar DynamicTest.R1.ipv4.arp arpResolutionFailed:count 10
scalar DynamicTest.R1.ipv4.arp arpResolutionCompleted:count 752
scalar DynamicTest.R1.ipv4.arp arpResolutionInitiated:count 372
scalar DynamicTest.R1.ipv4.arp arpReplySent:count 390
scalar DynamicTest.R1.ipv4.arp arpReplySent:sum(packetBytes) 10920
scalar DynamicTest.R1.ipv4.arp arpRequestSent:count 392
scalar DynamicTest.R1.ipv4.arp arpRequestSent:sum(packetBytes) 10976
scalar DynamicTest.RA.ethernet pauseSent:count 0
scalar DynamicTest.RA.ethernet pauseSent:sum 0
scalar DynamicTest.RA.ethernet decapPk:count 8444
scalar DynamicTest.RA.ethernet decapPk:sum(packetBytes) 503362
scalar DynamicTest.RA.ethernet encapPk:count 8342
scalar DynamicTest.RA.ethernet encapPk:sum(packetBytes) 489696
scalar DynamicTest.RA.lo[0].lo rcvdPkFromHl:count 0
scalar DynamicTest.RA.lo[0].lo rcvdPkFromHl:sum(packetBytes) 0
scalar DynamicTest.RA.lo[0].lo passedUpPk:count 0
scalar DynamicTest.RA.lo[0].lo passedUpPk:sum(packetBytes) 0
scalar DynamicTest.RA.lo[0] packetDropInterfaceDown:count 0
scalar DynamicTest.RA.lo[0] packetDropInterfaceDown:sum(packetBytes) 0
scalar DynamicTest.RA.lo[0] packetDropNoCarrier:count 0
scalar DynamicTest.RA.lo[0] packetDropNoCarrier:sum(packetBytes) 0
scalar DynamicTest.RA.eth[0].queue queueLength:last 0
scalar DynamicTest.RA.eth[0].queue queueLength:max 2
scalar DynamicTest.RA.eth[0].queue queueLength:timeavg 1.2026666666667e-07
scalar DynamicTest.RA.eth[0].queue queueBitLength:last 0
scalar DynamicTest.RA.eth[0].queue queueBitLength:max 2208
scalar DynamicTest.RA.eth[0].queue queueBitLength:timeavg 0.000119872
scalar DynamicTest.RA.eth[0].queue outgoingPackets:count 4151
scalar DynamicTest.RA.eth[0].queue outgoingPacketLengths:sum 2547568
scalar DynamicTest.RA.eth[0].queue incomingPackets:count 4151
scalar DynamicTest.RA.eth[0].queue incomingPacketLengths:sum 2547568
scalar DynamicTest.RA.eth[0].queue droppedPacketsQueueOverflow:count 0
scalar DynamicTest.RA.eth[0].queue droppedPacketLengthsQueueOverflow:sum 0
scalar DynamicTest.RA.eth[0].mac "simulated time" 600
scalar DynamicTest.RA.eth[0].mac full-duplex 1
scalar DynamicTest.RA.eth[0].mac "frames/sec sent" 6.9183333333333
scalar DynamicTest.RA.eth[0].mac "frames/sec rcvd" 7
scalar DynamicTest.RA.eth[0].mac "bits/sec sent" 4293.2266666667
scalar DynamicTest.RA.eth[0].mac "bits/sec rcvd" 4344.2933333333
scalar DynamicTest.RA.eth[0].mac "rx channel idle (%)" 99.995207706667
scalar DynamicTest.RA.eth[0].mac "rx channel utilization (%)" 0.0047922933333333
scalar DynamicTest.RA.eth[0].mac rxPausePkUnits:count 0
scalar DynamicTest.RA.eth[0].mac rxPausePkUnits:sum 0
scalar DynamicTest.RA.eth[0].mac txPausePkUnits:count 0
scalar DynamicTest.RA.eth[0].mac txPausePkUnits:sum 0
scalar DynamicTest.RA.eth[0].mac rxPkOk:count 4200
scalar DynamicTest.RA.eth[0].mac rxPkOk:sum(packetBytes) 325822
scalar DynamicTest.RA.eth[0].mac txPk:count 4151
scalar DynamicTest.RA.eth[0].mac txPk:sum(packetBytes) 321992
scalar DynamicTest.RA.eth[0].mac packetReceivedFromUpper:count 4151
scalar DynamicTest.RA.eth[0].mac packetReceivedFromUpper:sum(packetBytes) 318446
scalar DynamicTest.RA.eth[0].mac passedUpPk:count 4200
scalar DynamicTest.RA.eth[0].mac passedUpPk:sum(packetBytes) 325822
scalar DynamicTest.RA.eth[0].mac packetDropIncorrectlyReceived:count 0
scalar DynamicTest.RA.eth[0].mac packetDropIncorrectlyReceived:sum(packetBytes) 0
scalar DynamicTest.RA.eth[0].mac packetDropInterfaceDown:count 0
scalar DynamicTest.RA.eth[0].mac packetDropInterfaceDown:sum(packetBytes) 0
scalar DynamicTest.RA.eth[0].mac packetDropNotAddressedToUs:count 0
scalar DynamicTest.RA.eth[0].mac packetDropNotAddressedToUs:sum(packetBytes) 0
scalar DynamicTest.RA.eth[0] packetDropInterfaceDown:count 0
scalar DynamicTest.RA.eth[0] packetDropInterfaceDown:sum(packetBytes) 0
scalar DynamicTest.RA.eth[0] packetDropNoCarrier:count 0
scalar DynamicTest.RA.eth[0] packetDropNoCarrier:sum(packetBytes) 0
scalar DynamicTest.RA.eth[1].queue queueLength:last 0
scalar DynamicTest.RA.eth[1].queue queueLength:max 2
scalar DynamicTest.RA.eth[1].queue queueLength:timeavg 1.1993333333333e-07
scalar DynamicTest.RA.eth[1].queue queueBitLength:last 0
scalar DynamicTest.RA.eth[1].queue queueBitLength:max 1312
scalar DynamicTest.RA.eth[1].queue queueBitLength:timeavg 9.58752e-05
scalar DynamicTest.RA.eth[1].queue outgoingPackets:count 4191
scalar DynamicTest.RA.eth[1].queue outgoingPacketLengths:sum 2571248
scalar DynamicTest.RA.eth[1].queue incomingPackets:count 4191
scalar DynamicTest.RA.eth[1].queue incomingPacketLengths:sum 2571248
scalar DynamicTest.RA.eth[1].queue droppedPacketsQueueOverflow:count 0
scalar DynamicTest.RA.eth[1].queue droppedPacketLengthsQueueOverflow:sum 0
scalar DynamicTest.RA.eth[1].mac "simulated time" 600
scalar DynamicTest.RA.eth[1].mac full-duplex 1
scalar DynamicTest.RA.eth[1].mac "frames/sec sent" 6.985
scalar DynamicTest.RA.eth[1].mac "frames/sec rcvd" 7.0733333333333
scalar DynamicTest.RA.eth[1].mac "bits/sec sent" 4332.9333333333
scalar DynamicTest.RA.eth[1].mac "bits/sec rcvd" 4393.76
scalar DynamicTest.RA.eth[1].mac "rx channel idle (%)" 99.995153546667
scalar DynamicTest.RA.eth[1].mac "rx channel utilization (%)" 0.0048464533333333
scalar DynamicTest.RA.eth[1].mac rxPausePkUnits:count 0
scalar DynamicTest.RA.eth[1].mac rxPausePkUnits:sum 0
scalar DynamicTest.RA.eth[1].mac txPausePkUnits:count 0
scalar DynamicTest.RA.eth[1].mac txPausePkUnits:sum 0
scalar DynamicTest.RA.eth[1].mac rxPkOk:count 4244
scalar DynamicTest.RA.eth[1].mac rxPkOk:sum(packetBytes) 329532
scalar DynamicTest.RA.eth[1].mac txPk:count 4191
scalar DynamicTest.RA.eth[1].mac txPk:sum(packetBytes) 324970
scalar DynamicTest.RA.eth[1].mac packetReceivedFromUpper:count 4191
scalar DynamicTest.RA.eth[1].mac packetReceivedFromUpper:sum(packetBytes) 321406
scalar DynamicTest.RA.eth[1].mac passedUpPk:count 4244
scalar DynamicTest.RA.eth[1].mac passedUpPk:sum(packetBytes) 329532
scalar DynamicTest.RA.eth[1].mac packetDropIncorrectlyReceived:count 0
scalar DynamicTest.RA.eth[1].mac packetDropIncorrectlyReceived:sum(packetBytes) 0
scalar DynamicTest.RA.eth[1].mac packetDropInterfaceDown:count 0
scalar DynamicTest.RA.eth[1].mac packetDropInterfaceDown:sum(packetBytes) 0
scalar DynamicTest.RA.eth[1].mac packetDropNotAddressedToUs:count 0
scalar DynamicTest.RA.eth[1].mac packetDropNotAddressedToUs:sum(packetBytes) 0
scalar DynamicTest.RA.eth[1] packetDropInterfaceDown:count 0
scalar DynamicTest.RA.eth[1] packetDropInterfaceDown:sum(packetBytes) 0
scalar DynamicTest.RA.eth[1] packetDropNoCarrier:count 0
scalar DynamicTest.RA.eth[1] packetDropNoCarrier:sum(packetBytes) 0
scalar DynamicTest.RA.ipv4.ip packetDropAddressResolutionFailed:count 0
scalar DynamicTest.RA.ipv4.ip packetDropAddressResolutionFailed:sum(packetBytes) 0
scalar DynamicTest.RA.ipv4.ip packetDropHopLimitReached:count 2
scalar DynamicTest.RA.ipv4.ip packetDropHopLimitReached:sum(packetBytes) 120
scalar DynamicTest.RA.ipv4.ip packetDropForwardingDisabled:count 0
scalar DynamicTest.RA.ipv4.ip packetDropForwardingDisabled:sum(packetBytes) 0
scalar DynamicTest.RA.ipv4.ip packetDropLifetimeExpired:count 0
scalar DynamicTest.RA.ipv4.ip packetDropLifetimeExpired:sum(packetBytes) 0
scalar DynamicTest.RA.ipv4.ip packetDropNoInterfaceFound:count 0
scalar DynamicTest.RA.ipv4.ip packetDropNoInterfaceFound:sum(packetBytes) 0
scalar DynamicTest.RA.ipv4.ip packetDropNoRouteFound:count 196
scalar DynamicTest.RA.ipv4.ip packetDropNoRouteFound:sum(packetBytes) 11368
scalar DynamicTest.RA.ipv4.ip packetDropUndefined:count 0
scalar DynamicTest.RA.ipv4.ip packetDropUndefined:sum(packetBytes) 0
scalar DynamicTest.RA.ipv4.arp arpResolutionFailed:count 0
scalar DynamicTest.RA.ipv4.arp arpResolutionCompleted:count 395
scalar DynamicTest.RA.ipv4.arp arpResolutionInitiated:count 192
scalar DynamicTest.RA.ipv4.arp arpReplySent:count 203
scalar DynamicTest.RA.ipv4.arp arpReplySent:sum(packetBytes) 5684
scalar DynamicTest.RA.ipv4.arp arpRequestSent:count 192
scalar DynamicTest.RA.ipv4.arp arpRequestSent:sum(packetBytes) 5376
scalar DynamicTest.RB.ethernet pauseSent:count 0
scalar DynamicTest.RB.ethernet pauseSent:sum 0
scalar DynamicTest.RB.ethernet decapPk:count 7296
scalar DynamicTest.RB.ethernet decapPk:sum(packetBytes) 435160
scalar DynamicTest.RB.ethernet encapPk:count 7299
scalar DynamicTest.RB.ethernet encapPk:sum(packetBytes) 429220
scalar DynamicTest.RB.lo[0].lo rcvdPkFromHl:count 0
scalar DynamicTest.RB.lo[0].lo rcvdPkFromHl:sum(packetBytes) 0
scalar DynamicTest.RB.lo[0].lo passedUpPk:count 0
scalar DynamicTest.RB.lo[0].lo passedUpPk:sum(packetBytes) 0
scalar DynamicTest.RB.lo[0] packetDropInterfaceDown:count 0
scalar DynamicTest.RB.lo[0] packetDropInterfaceDown:sum(packetBytes) 0
scalar DynamicTest.RB.lo[0] packetDropNoCarrier:count 0
scalar DynamicTest.RB.lo[0] packetDropNoCarrier:sum(packetBytes) 0
scalar DynamicTest.RB.eth[0].queue queueLength:last 0
scalar DynamicTest.RB.eth[0].queue queueLength:max 4
scalar DynamicTest.RB.eth[0].queue queueLength:timeavg 1.914e-07
scalar DynamicTest.RB.eth[0].queue queueBitLength:last 0
scalar DynamicTest.RB.eth[0].queue queueBitLength:max 3296
scalar DynamicTest.RB.eth[0].queue queueBitLength:timeavg 0.000160848
scalar DynamicTest.RB.eth[0].queue outgoingPackets:count 3650
scalar DynamicTest.RB.eth[0].queue outgoingPacketLengths:sum 2242816
scalar DynamicTest.RB.eth[0].queue incomingPackets:count 3650
scalar DynamicTest.RB.eth[0].queue incomingPacketLengths:sum 2242816
scalar DynamicTest.RB.eth[0].queue droppedPacketsQueueOverflow:count 0
scalar DynamicTest.RB.eth[0].queue droppedPacketLengthsQueueOverflow:sum 0
scalar DynamicTest.RB.eth[0].mac "simulated time" 600
scalar DynamicTest.RB.eth[0].mac full-duplex 1
scalar DynamicTest.RB.eth[0].mac "frames/sec sent" 6.0833333333333
scalar DynamicTest.RB.eth[0].mac "frames/sec rcvd" 6.08
scalar DynamicTest.RB.eth[0].mac "bits/sec sent" 3778.1066666667
scalar DynamicTest.RB.eth[0].mac "bits/sec rcvd" 3777.4133333333
scalar DynamicTest.RB.eth[0].mac "rx channel idle (%)" 99.995833466667
scalar DynamicTest.RB.eth[0].mac "rx channel utilization (%)" 0.0041665333333333
scalar DynamicTest.RB.eth[0].mac rxPausePkUnits:count 0
scalar DynamicTest.RB.eth[0].mac rxPausePkUnits:sum 0
scalar DynamicTest.RB.eth[0].mac txPausePkUnits:count 0
scalar DynamicTest.RB.eth[0].mac txPausePkUnits:sum 0
scalar DynamicTest.RB.eth[0].mac rxPkOk:count 3648
scalar DynamicTest.RB.eth[0].mac rxPkOk:sum(packetBytes) 283306
scalar DynamicTest.RB.eth[0].mac txPk:count 3650
scalar DynamicTest.RB.eth[0].mac txPk:sum(packetBytes) 283358
scalar DynamicTest.RB.eth[0].mac packetReceivedFromUpper:count 3650
scalar DynamicTest.RB.eth[0].mac packetReceivedFromUpper:sum(packetBytes) 280352
scalar DynamicTest.RB.eth[0].mac passedUpPk:count 3648
scalar DynamicTest.RB.eth[0].mac passedUpPk:sum(packetBytes) 283306
scalar DynamicTest.RB.eth[0].mac packetDropIncorrectlyReceived:count 0
scalar DynamicTest.RB.eth[0].mac packetDropIncorrectlyReceived:sum(packetBytes) 0
scalar DynamicTest.RB.eth[0].mac packetDropInterfaceDown:count 0
scalar DynamicTest.RB.eth[0].mac packetDropInterfaceDown:sum(packetBytes) 0
scalar DynamicTest.RB.eth[0].mac packetDropNotAddressedToUs:count 0
scalar DynamicTest.RB.eth[0].mac packetDropNotAddressedToUs:sum(packetBytes) 0
scalar DynamicTest.RB.eth[0] packetDropInterfaceDown:count 0
scalar DynamicTest.RB.eth[0] packetDropInterfaceDown:sum(packetBytes) 0
scalar DynamicTest.RB.eth[0] packetDropNoCarrier:count 0
scalar DynamicTest.RB.eth[0] packetDropNoCarrier:sum(packetBytes) 0
scalar DynamicTest.RB.eth[1].queue queueLength:last 0
scalar DynamicTest.RB.eth[1].queue queueLength:max 1
scalar DynamicTest.RB.eth[1].queue queueLength:timeavg 4.96e-08
scalar DynamicTest.RB.eth[1].queue queueBitLength:last 0
scalar DynamicTest.RB.eth[1].queue queueBitLength:max 784
scalar DynamicTest.RB.eth[1].queue queueBitLength:timeavg 3.70688e-05
scalar DynamicTest.RB.eth[1].queue outgoingPackets:count 3649
scalar DynamicTest.RB.eth[1].queue outgoingPacketLengths:sum 2242000
scalar DynamicTest.RB.eth[1].queue incomingPackets:count 3649
scalar DynamicTest.RB.eth[1].queue incomingPacketLengths:sum 2242000
scalar DynamicTest.RB.eth[1].queue droppedPacketsQueueOverflow:count 0
scalar DynamicTest.RB.eth[1].queue droppedPacketLengthsQueueOverflow:sum 0
scalar DynamicTest.RB.eth[1].mac "simulated time" 600
scalar DynamicTest.RB.eth[1].mac full-duplex 1
scalar DynamicTest.RB.eth[1].mac "frames/sec sent" 6.0816666666667
scalar DynamicTest.RB.eth[1].mac "frames/sec rcvd" 6.08
scalar DynamicTest.RB.eth[1].mac "bits/sec sent" 3776.7466666667
scalar DynamicTest.RB.eth[1].mac "bits/sec rcvd" 3775.76
scalar DynamicTest.RB.eth[1].mac "rx channel idle (%)" 99.99583512
scalar DynamicTest.RB.eth[1].mac "rx channel utilization (%)" 0.00416488
scalar DynamicTest.RB.eth[1].mac rxPausePkUnits:count 0
scalar DynamicTest.RB.eth[1].mac rxPausePkUnits:sum 0
scalar DynamicTest.RB.eth[1].mac txPausePkUnits:count 0
scalar DynamicTest.RB.eth[1].mac txPausePkUnits:sum 0
scalar DynamicTest.RB.eth[1].mac rxPkOk:count 3648
scalar DynamicTest.RB.eth[1].mac rxPkOk:sum(packetBytes) 283182
scalar DynamicTest.RB.eth[1].mac txPk:count 3649
scalar DynamicTest.RB.eth[1].mac txPk:sum(packetBytes) 283256
scalar DynamicTest.RB.eth[1].mac packetReceivedFromUpper:count 3649
scalar DynamicTest.RB.eth[1].mac packetReceivedFromUpper:sum(packetBytes) 280250
scalar DynamicTest.RB.eth[1].mac passedUpPk:count 3648
scalar DynamicTest.RB.eth[1].mac passedUpPk:sum(packetBytes) 283182
scalar DynamicTest.RB.eth[1].mac packetDropIncorrectlyReceived:count 0
scalar DynamicTest.RB.eth[1].mac packetDropIncorrectlyReceived:sum(packetBytes) 0
scalar DynamicTest.RB.eth[1].mac packetDropInterfaceDown:count 0
scalar DynamicTest.RB.eth[1].mac packetDropInterfaceDown:sum(packetBytes) 0
scalar DynamicTest.RB.eth[1].mac packetDropNotAddressedToUs:count 0
scalar DynamicTest.RB.eth[1].mac packetDropNotAddressedToUs:sum(packetBytes) 0
scalar DynamicTest.RB.eth[1] packetDropInterfaceDown:count 0
scalar DynamicTest.RB.eth[1] packetDropInterfaceDown:sum(packetBytes) 0
scalar DynamicTest.RB.eth[1] packetDropNoCarrier:count 0
scalar DynamicTest.RB.eth[1] packetDropNoCarrier:sum(packetBytes) 0
scalar DynamicTest.RB.ipv4.ip packetDropAddressResolutionFailed:count 0
scalar DynamicTest.RB.ipv4.ip packetDropAddressResolutionFailed:sum(packetBytes) 0
scalar DynamicTest.RB.ipv4.ip packetDropHopLimitReached:count 0
scalar DynamicTest.RB.ipv4.ip packetDropHopLimitReached:sum(packetBytes) 0
scalar DynamicTest.RB.ipv4.ip packetDropForwardingDisabled:count 0
scalar DynamicTest.RB.ipv4.ip packetDropForwardingDisabled:sum(packetBytes) 0
scalar DynamicTest.RB.ipv4.ip packetDropLifetimeExpired:count 0
scalar DynamicTest.RB.ipv4.ip packetDropLifetimeExpired:sum(packetBytes) 0
scalar DynamicTest.RB.ipv4.ip packetDropNoInterfaceFound:count 0
scalar DynamicTest.RB.ipv4.ip packetDropNoInterfaceFound:sum(packetBytes) 0
scalar DynamicTest.RB.ipv4.ip packetDropNoRouteFound:count 0
scalar DynamicTest.RB.ipv4.ip packetDropNoRouteFound:sum(packetBytes) 0
scalar DynamicTest.RB.ipv4.ip packetDropUndefined:count 0
scalar DynamicTest.RB.ipv4.ip packetDropUndefined:sum(packetBytes) 0
scalar DynamicTest.RB.ipv4.arp arpResolutionFailed:count 0
scalar DynamicTest.RB.ipv4.arp arpResolutionCompleted:count 334
scalar DynamicTest.RB.ipv4.arp arpResolutionInitiated:count 168
scalar DynamicTest.RB.ipv4.arp arpReplySent:count 166
scalar DynamicTest.RB.ipv4.arp arpReplySent:sum(packetBytes) 4648
scalar DynamicTest.RB.ipv4.arp arpRequestSent:count 168
scalar DynamicTest.RB.ipv4.arp arpRequestSent:sum(packetBytes) 4704
scalar DynamicTest.R2.ethernet pauseSent:count 0
scalar DynamicTest.R2.ethernet pauseSent:sum 0
scalar DynamicTest.R2.ethernet decapPk:count 15878
scalar DynamicTest.R2.ethernet decapPk:sum(packetBytes) 943954
scalar DynamicTest.R2.ethernet encapPk:count 15696
scalar DynamicTest.R2.ethernet encapPk:sum(packetBytes) 919276
scalar DynamicTest.R2.lo[0].lo rcvdPkFromHl:count 0
scalar DynamicTest.R2.lo[0].lo rcvdPkFromHl:sum(packetBytes) 0
scalar DynamicTest.R2.lo[0].lo passedUpPk:count 0
scalar DynamicTest.R2.lo[0].lo passedUpPk:sum(packetBytes) 0
scalar DynamicTest.R2.lo[0] packetDropInterfaceDown:count 0
scalar DynamicTest.R2.lo[0] packetDropInterfaceDown:sum(packetBytes) 0
scalar DynamicTest.R2.lo[0] packetDropNoCarrier:count 0
scalar DynamicTest.R2.lo[0] packetDropNoCarrier:sum(packetBytes) 0
scalar DynamicTest.R2.eth[0].queue queueLength:last 0
scalar DynamicTest.R2.eth[0].queue queueLength:max 0
scalar DynamicTest.R2.eth[0].queue queueLength:timeavg 0
scalar DynamicTest.R2.eth[0].queue queueBitLength:last 0
scalar DynamicTest.R2.eth[0].queue queueBitLength:max 0
scalar DynamicTest.R2.eth[0].queue queueBitLength:timeavg 0
scalar DynamicTest.R2.eth[0].queue outgoingPackets:count 7749
scalar DynamicTest.R2.eth[0].queue outgoingPacketLengths:sum 4737904
scalar DynamicTest.R2.eth[0].queue incomingPackets:count 7749
scalar DynamicTest.R2.eth[0].queue incomingPacketLengths:sum 4737904
scalar DynamicTest.R2.eth[0].queue droppedPacketsQueueOverflow:count 0
scalar DynamicTest.R2.eth[0].queue droppedPacketLengthsQueueOverflow:sum 0
scalar DynamicTest.R2.eth[0].mac "simulated time" 600
scalar DynamicTest.R2.eth[0].mac full-duplex 1
scalar DynamicTest.R2.eth[0].mac "frames/sec sent" 12.915
scalar DynamicTest.R2.eth[0].mac "frames/sec rcvd" 13.396666666667
scalar DynamicTest.R2.eth[0].mac "bits/sec sent" 7989.6266666667
scalar DynamicTest.R2.eth[0].mac "bits/sec rcvd" 8287.0933333333
scalar DynamicTest.R2.eth[0].mac "rx channel idle (%)" 99.99085552
scalar DynamicTest.R2.eth[0].mac "rx channel utilization (%)" 0.00914448
scalar DynamicTest.R2.eth[0].mac rxPausePkUnits:count 0
scalar DynamicTest.R2.eth[0].mac rxPausePkUnits:sum 0
scalar DynamicTest.R2.eth[0].mac txPausePkUnits:count 0
scalar DynamicTest.R2.eth[0].mac txPausePkUnits:sum 0
scalar DynamicTest.R2.eth[0].mac rxPkOk:count 8038
scalar DynamicTest.R2.eth[0].mac rxPkOk:sum(packetBytes) 621532
scalar DynamicTest.R2.eth[0].mac txPk:count 7749
scalar DynamicTest.R2.eth[0].mac txPk:sum(packetBytes) 599222
scalar DynamicTest.R2.eth[0].mac packetReceivedFromUpper:count 7749
scalar DynamicTest.R2.eth[0].mac packetReceivedFromUpper:sum(packetBytes) 592238
scalar DynamicTest.R2.eth[0].mac passedUpPk:count 8038
scalar DynamicTest.R2.eth[0].mac passedUpPk:sum(packetBytes) 621532
scalar DynamicTest.R2.eth[0].mac packetDropIncorrectlyReceived:count 0
scalar DynamicTest.R2.eth[0].mac packetDropIncorrectlyReceived:sum(packetBytes) 0
scalar DynamicTest.R2.eth[0].mac packetDropInterfaceDown:count 0
scalar DynamicTest.R2.eth[0].mac packetDropInterfaceDown:sum(packetBytes) 0
scalar DynamicTest.R2.eth[0].mac packetDropNotAddressedToUs:count 0
scalar DynamicTest.R2.eth[0].mac packetDropNotAddressedToUs:sum(packetBytes) 0
scalar DynamicTest.R2.eth[0] packetDropInterfaceDown:count 0
scalar DynamicTest.R2.eth[0] packetDropInterfaceDown:sum(packetBytes) 0
scalar DynamicTest.R2.eth[0] packetDropNoCarrier:count 0
scalar DynamicTest.R2.eth[0] packetDropNoCarrier:sum(packetBytes) 0
scalar DynamicTest.R2.eth[1].queue queueLength:last 0
scalar DynamicTest.R2.eth[1].queue queueLength:max 6
scalar DynamicTest.R2.eth[1].queue queueLength:timeavg 4.6856666666667e-07
scalar DynamicTest.R2.eth[1].queue queueBitLength:last 0
scalar DynamicTest.R2.eth[1].queue queueBitLength:max 5824
scalar DynamicTest.R2.eth[1].queue queueBitLength:timeavg 0.0003843152
scalar DynamicTest.R2.eth[1].queue outgoingPackets:count 4299
scalar DynamicTest.R2.eth[1].queue outgoingPacketLengths:sum 2635120
scalar DynamicTest.R2.eth[1].queue incomingPackets:count 4299
scalar DynamicTest.R2.eth[1].queue incomingPacketLengths:sum 2635120
scalar DynamicTest.R2.eth[1].queue droppedPacketsQueueOverflow:count 0
scalar DynamicTest.R2.eth[1].queue droppedPacketLengthsQueueOverflow:sum 0
scalar DynamicTest.R2.eth[1].mac "simulated time" 600
scalar DynamicTest.R2.eth[1].mac full-duplex 1
scalar DynamicTest.R2.eth[1].mac "frames/sec sent" 7.165
scalar DynamicTest.R2.eth[1].mac "frames/sec rcvd" 6.985
scalar DynamicTest.R2.eth[1].mac "bits/sec sent" 4446.5866666667
scalar DynamicTest.R2.eth[1].mac "bits/sec rcvd" 4332.9333333333
scalar DynamicTest.R2.eth[1].mac "rx channel idle (%)" 99.995220026667
scalar DynamicTest.R2.eth[1].mac "rx channel utilization (%)" 0.0047799733333333
scalar DynamicTest.R2.eth[1].mac rxPausePkUnits:count 0
scalar DynamicTest.R2.eth[1].mac rxPausePkUnits:sum 0
scalar DynamicTest.R2.eth[1].mac txPausePkUnits:count 0
scalar DynamicTest.R2.eth[1].mac txPausePkUnits:sum 0
scalar DynamicTest.R2.eth[1].mac rxPkOk:count 4191
scalar DynamicTest.R2.eth[1].mac rxPkOk:sum(packetBytes) 324970
scalar DynamicTest.R2.eth[1].mac txPk:count 4299
scalar DynamicTest.R2.eth[1].mac txPk:sum(packetBytes) 333494
scalar DynamicTest.R2.eth[1].mac packetReceivedFromUpper:count 4299
scalar DynamicTest.R2.eth[1].mac packetReceivedFromUpper:sum(packetBytes) 329390
scalar DynamicTest.R2.eth[1].mac passedUpPk:count 4191
scalar DynamicTest.R2.eth[1].mac passedUpPk:sum(packetBytes) 324970
scalar DynamicTest.R2.eth[1].mac packetDropIncorrectlyReceived:count 0
scalar DynamicTest.R2.eth[1].mac packetDropIncorrectlyReceived:sum(packetBytes) 0
scalar DynamicTest.R2.eth[1].mac packetDropInterfaceDown:count 0
scalar DynamicTest.R2.eth[1].mac packetDropInterfaceDown:sum(packetBytes) 0
scalar DynamicTest.R2.eth[1].mac packetDropNotAddressedToUs:count 0
scalar DynamicTest.R2.eth[1].mac packetDropNotAddressedToUs:sum(packetBytes) 0
scalar DynamicTest.R2.eth[1] packetDropInterfaceDown:count 0
scalar DynamicTest.R2.eth[1] packetDropInterfaceDown:sum(packetBytes) 0
scalar DynamicTest.R2.eth[1] packetDropNoCarrier:count 0
scalar DynamicTest.R2.eth[1] packetDropNoCarrier:sum(packetBytes) 0
scalar DynamicTest.R2.eth[2].queue queueLength:last 0
scalar DynamicTest.R2.eth[2].queue queueLength:max 3
scalar DynamicTest.R2.eth[2].queue queueLength:timeavg 1.0696666666667e-07
scalar DynamicTest.R2.eth[2].queue queueBitLength:last 0
scalar DynamicTest.R2.eth[2].queue queueBitLength:max 2576
scalar DynamicTest.R2.eth[2].queue queueBitLength:timeavg 8.7907733333333e-05
scalar DynamicTest.R2.eth[2].queue outgoingPackets:count 3648
scalar DynamicTest.R2.eth[2].queue outgoingPacketLengths:sum 2241408
scalar DynamicTest.R2.eth[2].queue incomingPackets:count 3648
scalar DynamicTest.R2.eth[2].queue incomingPacketLengths:sum 2241408
scalar DynamicTest.R2.eth[2].queue droppedPacketsQueueOverflow:count 0
scalar DynamicTest.R2.eth[2].queue droppedPacketLengthsQueueOverflow:sum 0
scalar DynamicTest.R2.eth[2].mac "simulated time" 600
scalar DynamicTest.R2.eth[2].mac full-duplex 1
scalar DynamicTest.R2.eth[2].mac "frames/sec sent" 6.08
scalar DynamicTest.R2.eth[2].mac "frames/sec rcvd" 6.0816666666667
scalar DynamicTest.R2.eth[2].mac "bits/sec sent" 3775.76
scalar DynamicTest.R2.eth[2].mac "bits/sec rcvd" 3776.7466666667
scalar DynamicTest.R2.eth[2].mac "rx channel idle (%)" 99.995834026667
scalar DynamicTest.R2.eth[2].mac "rx channel utilization (%)" 0.0041659733333333
scalar DynamicTest.R2.eth[2].mac rxPausePkUnits:count 0
scalar DynamicTest.R2.eth[2].mac rxPausePkUnits:sum 0
scalar DynamicTest.R2.eth[2].mac txPausePkUnits:count 0
scalar DynamicTest.R2.eth[2].mac txPausePkUnits:sum 0
scalar DynamicTest.R2.eth[2].mac rxPkOk:count 3649
scalar DynamicTest.R2.eth[2].mac rxPkOk:sum(packetBytes) 283256
scalar DynamicTest.R2.eth[2].mac txPk:count 3648
scalar DynamicTest.R2.eth[2].mac txPk:sum(packetBytes) 283182
scalar DynamicTest.R2.eth[2].mac packetReceivedFromUpper:count 3648
scalar DynamicTest.R2.eth[2].mac packetReceivedFromUpper:sum(packetBytes) 280176
scalar DynamicTest.R2.eth[2].mac passedUpPk:count 3649
scalar DynamicTest.R2.eth[2].mac passedUpPk:sum(packetBytes) 283256
scalar DynamicTest.R2.eth[2].mac packetDropIncorrectlyReceived:count 0
scalar DynamicTest.R2.eth[2].mac packetDropIncorrectlyReceived:sum(packetBytes) 0
scalar DynamicTest.R2.eth[2].mac packetDropInterfaceDown:count 0
scalar DynamicTest.R2.eth[2].mac packetDropInterfaceDown:sum(packetBytes) 0
scalar DynamicTest.R2.eth[2].mac packetDropNotAddressedToUs:count 0
scalar DynamicTest.R2.eth[2].mac packetDropNotAddressedToUs:sum(packetBytes) 0
scalar DynamicTest.R2.eth[2] packetDropInterfaceDown:count 0
scalar DynamicTest.R2.eth[2] packetDropInterfaceDown:sum(packetBytes) 0
scalar DynamicTest.R2.eth[2] packetDropNoCarrier:count 0
scalar DynamicTest.R2.eth[2] packetDropNoCarrier:sum(packetBytes) 0
scalar DynamicTest.R2.ipv4.ip packetDropAddressResolutionFailed:count 296
scalar DynamicTest.R2.ipv4.ip packetDropAddressResolutionFailed:sum(packetBytes) 17760
scalar DynamicTest.R2.ipv4.ip packetDropHopLimitReached:count 0
scalar DynamicTest.R2.ipv4.ip packetDropHopLimitReached:sum(packetBytes) 0
scalar DynamicTest.R2.ipv4.ip packetDropForwardingDisabled:count 0
scalar DynamicTest.R2.ipv4.ip packetDropForwardingDisabled:sum(packetBytes) 0
scalar DynamicTest.R2.ipv4.ip packetDropLifetimeExpired:count 0
scalar DynamicTest.R2.ipv4.ip packetDropLifetimeExpired:sum(packetBytes) 0
scalar DynamicTest.R2.ipv4.ip packetDropNoInterfaceFound:count 0
scalar DynamicTest.R2.ipv4.ip packetDropNoInterfaceFound:sum(packetBytes) 0
scalar DynamicTest.R2.ipv4.ip packetDropNoRouteFound:count 0
scalar DynamicTest.R2.ipv4.ip packetDropNoRouteFound:sum(packetBytes) 0
scalar DynamicTest.R2.ipv4.ip packetDropUndefined:count 0
scalar DynamicTest.R2.ipv4.ip packetDropUndefined:sum(packetBytes) 0
scalar DynamicTest.R2.ipv4.arp arpResolutionFailed:count 10
scalar DynamicTest.R2.ipv4.arp arpResolutionCompleted:count 753
scalar DynamicTest.R2.ipv4.arp arpResolutionInitiated:count 373
scalar DynamicTest.R2.ipv4.arp arpReplySent:count 390
scalar DynamicTest.R2.ipv4.arp arpReplySent:sum(packetBytes) 10920
scalar DynamicTest.R2.ipv4.arp arpRequestSent:count 393
scalar DynamicTest.R2.ipv4.arp arpRequestSent:sum(packetBytes) 11004
scalar DynamicTest.H2.ethernet pauseSent:count 0
scalar DynamicTest.H2.ethernet pauseSent:sum 0
scalar DynamicTest.H2.ethernet decapPk:count 7749
scalar DynamicTest.H2.ethernet decapPk:sum(packetBytes) 459740
scalar DynamicTest.H2.ethernet encapPk:count 8038
scalar DynamicTest.H2.ethernet encapPk:sum(packetBytes) 469864
scalar DynamicTest.H2.lo[0].lo rcvdPkFromHl:count 0
scalar DynamicTest.H2.lo[0].lo rcvdPkFromHl:sum(packetBytes) 0
scalar DynamicTest.H2.lo[0].lo passedUpPk:count 0
scalar DynamicTest.H2.lo[0].lo passedUpPk:sum(packetBytes) 0
scalar DynamicTest.H2.lo[0] packetDropInterfaceDown:count 0
scalar DynamicTest.H2.lo[0] packetDropInterfaceDown:sum(packetBytes) 0
scalar DynamicTest.H2.lo[0] packetDropNoCarrier:count 0
scalar DynamicTest.H2.lo[0] packetDropNoCarrier:sum(packetBytes) 0
scalar DynamicTest.H2.eth[0].queue queueLength:last 0
scalar DynamicTest.H2.eth[0].queue queueLength:max 0
scalar DynamicTest.H2.eth[0].queue queueLength:timeavg 0
scalar DynamicTest.H2.eth[0].queue queueBitLength:last 0
scalar DynamicTest.H2.eth[0].queue queueBitLength:max 0
scalar DynamicTest.H2.eth[0].queue queueBitLength:timeavg 0
scalar DynamicTest.H2.eth[0].queue outgoingPackets:count 8038
scalar DynamicTest.H2.eth[0].queue outgoingPacketLengths:sum 4916384
scalar DynamicTest.H2.eth[0].queue incomingPackets:count 8038
scalar DynamicTest.H2.eth[0].queue incomingPacketLengths:sum 4916384
scalar DynamicTest.H2.eth[0].queue droppedPacketsQueueOverflow:count 0
scalar DynamicTest.H2.eth[0].queue droppedPacketLengthsQueueOverflow:sum 0
scalar DynamicTest.H2.eth[0].mac "simulated time" 600
scalar DynamicTest.H2.eth[0].mac full-duplex 1
scalar DynamicTest.H2.eth[0].mac "frames/sec sent" 13.396666666667
scalar DynamicTest.H2.eth[0].mac "frames/sec rcvd" 12.915
scalar DynamicTest.H2.eth[0].mac "bits/sec sent" 8287.0933333333
scalar DynamicTest.H2.eth[0].mac "bits/sec rcvd" 7989.6266666667
scalar DynamicTest.H2.eth[0].mac "rx channel idle (%)" 99.991183813333
scalar DynamicTest.H2.eth[0].mac "rx channel utilization (%)" 0.0088161866666667
scalar DynamicTest.H2.eth[0].mac rxPausePkUnits:count 0
scalar DynamicTest.H2.eth[0].mac rxPausePkUnits:sum 0
scalar DynamicTest.H2.eth[0].mac txPausePkUnits:count 0
scalar DynamicTest.H2.eth[0].mac txPausePkUnits:sum 0
scalar DynamicTest.H2.eth[0].mac rxPkOk:count 7749
scalar DynamicTest.H2.eth[0].mac rxPkOk:sum(packetBytes) 599222
scalar DynamicTest.H2.eth[0].mac txPk:count 8038
scalar DynamicTest.H2.eth[0].mac txPk:sum(packetBytes) 621532
scalar DynamicTest.H2.eth[0].mac packetReceivedFromUpper:count 8038
scalar DynamicTest.H2.eth[0].mac packetReceivedFromUpper:sum(packetBytes) 614548
scalar DynamicTest.H2.eth[0].mac passedUpPk:count 7749
scalar DynamicTest.H2.eth[0].mac passedUpPk:sum(packetBytes) 599222
scalar DynamicTest.H2.eth[0].mac packetDropIncorrectlyReceived:count 0
scalar DynamicTest.H2.eth[0].mac packetDropIncorrectlyReceived:sum(packetBytes) 0
scalar DynamicTest.H2.eth[0].mac packetDropInterfaceDown:count 0
scalar DynamicTest.H2.eth[0].mac packetDropInterfaceDown:sum(packetBytes) 0
scalar DynamicTest.H2.eth[0].mac packetDropNotAddressedToUs:count 0
scalar DynamicTest.H2.eth[0].mac packetDropNotAddressedToUs:sum(packetBytes) 0
scalar DynamicTest.H2.eth[0] packetDropInterfaceDown:count 0
scalar DynamicTest.H2.eth[0] packetDropInterfaceDown:sum(packetBytes) 0
scalar DynamicTest.H2.eth[0] packetDropNoCarrier:count 0
scalar DynamicTest.H2.eth[0] packetDropNoCarrier:sum(packetBytes) 0
scalar DynamicTest.H2.ipv4.ip packetDropAddressResolutionFailed:count 0
scalar DynamicTest.H2.ipv4.ip packetDropAddressResolutionFailed:sum(packetBytes) 0
scalar DynamicTest.H2.ipv4.ip packetDropHopLimitReached:count 0
scalar DynamicTest.H2.ipv4.ip packetDropHopLimitReached:sum(packetBytes) 0
scalar DynamicTest.H2.ipv4.ip packetDropForwardingDisabled:count 0
scalar DynamicTest.H2.ipv4.ip packetDropForwardingDisabled:sum(packetBytes) 0
scalar DynamicTest.H2.ipv4.ip packetDropLifetimeExpired:count 0
scalar DynamicTest.H2.ipv4.ip packetDropLifetimeExpired:sum(packetBytes) 0
scalar DynamicTest.H2.ipv4.ip packetDropNoInterfaceFound:count 0
scalar DynamicTest.H2.ipv4.ip packetDropNoInterfaceFound:sum(packetBytes) 0
scalar DynamicTest.H2.ipv4.ip packetDropNoRouteFound:count 0
scalar DynamicTest.H2.ipv4.ip packetDropNoRouteFound:sum(packetBytes) 0
scalar DynamicTest.H2.ipv4.ip packetDropUndefined:count 0
scalar DynamicTest.H2.ipv4.ip packetDropUndefined:sum(packetBytes) 0
scalar DynamicTest.H2.ipv4.arp arpResolutionFailed:count 0
scalar DynamicTest.H2.ipv4.arp arpResolutionCompleted:count 388
scalar DynamicTest.H2.ipv4.arp arpResolutionInitiated:count 210
scalar DynamicTest.H2.ipv4.arp arpReplySent:count 178
scalar DynamicTest.H2.ipv4.arp arpReplySent:sum(packetBytes) 4984
scalar DynamicTest.H2.ipv4.arp arpRequestSent:count 210
scalar DynamicTest.H2.ipv4.arp arpRequestSent:sum(packetBytes) 5880
scalar DynamicTest.H2.udp packetReceived:count 7299
scalar DynamicTest.H2.udp packetReceived:sum(packetBytes) 291960
scalar DynamicTest.H2.udp packetSent:count 7650
scalar DynamicTest.H2.udp packetSent:sum(packetBytes) 306000
scalar DynamicTest.H2.udp passedUpPk:count 7299
scalar DynamicTest.H2.udp droppedPkWrongPort:count 0
scalar DynamicTest.H2.udp droppedPkBadChecksum:count 0
scalar DynamicTest.H2.app[0] "packets sent" 4000
scalar DynamicTest.H2.app[0] "packets received" 3649
scalar DynamicTest.H2.app[0] packetReceived:count 3649
scalar DynamicTest.H2.app[0] packetReceived:sum(packetBytes) 116768
scalar DynamicTest.H2.app[0] packetSent:count 4000
scalar DynamicTest.H2.app[0] packetSent:sum(packetBytes) 128000
scalar DynamicTest.H2.app[1] echoedPk:count 3650
scalar DynamicTest.H2.app[1] echoedPk:sum(packetBytes) 116800
scalar DynamicTest.H1.app[0] rcvdPkLifetime:stats:count 3649
scalar DynamicTest.H1.app[0] rcvdPkLifetime:stats:sumweights 3649
scalar DynamicTest.H1.app[0] rcvdPkLifetime:stats:mean 5.8130687859688e-05
scalar DynamicTest.H1.app[0] rcvdPkLifetime:stats:stddev 6.0485233801686e-06
scalar DynamicTest.H1.app[0] rcvdPkLifetime:stats:min 5.584e-05
scalar DynamicTest.H1.app[0] rcvdPkLifetime:stats:max 7.928e-05
scalar DynamicTest.H1.app[0] rcvdPkLifetime:stats:numbins 0
scalar DynamicTest.H2.app[0] rcvdPkLifetime:stats:count 3649
scalar DynamicTest.H2.app[0] rcvdPkLifetime:stats:sumweights 3649
scalar DynamicTest.H2.app[0] rcvdPkLifetime:stats:mean 5.8130687859688e-05
scalar DynamicTest.H2.app[0] rcvdPkLifetime:stats:stddev 6.0485233801686e-06
scalar DynamicTest.H2.app[0] rcvdPkLifetime:stats:min 5.584e-05
scalar DynamicTest.H2.app[0] rcvdPkLifetime:stats:max 7.928e-05
scalar DynamicTest.H2.app[0] rcvdPkLifetime:stats:numbins 0
scalar DynamicTest.H1.eth[0].queue queueingTime:histogram:count 8037
scalar DynamicTest.H1.eth[0].queue queueingTime:histogram:sumweights 8037
scalar DynamicTest.H1.eth[0].queue queueingTime:histogram:mean 0
scalar DynamicTest.H1.eth[0].queue queueingTime:histogram:stddev 0
scalar DynamicTest.H1.eth[0].queue queueingTime:histogram:min 0
scalar DynamicTest.H1.eth[0].queue queueingTime:histogram:max 0
scalar DynamicTest.H1.eth[0].queue queueingTime:histogram:numbins 50
scalar DynamicTest.H1.eth[0].queue queueingTime:histogram:rangemin -0.5
scalar DynamicTest.H1.eth[0].queue queueingTime:histogram:rangemax 0.5
scalar DynamicTest.H1.eth[0].queue queueingTime:histogram:underflows 0
scalar DynamicTest.H1.eth[0].queue queueingTime:histogram:overflows 0
scalar DynamicTest.H1.eth[0].queue outgoingPacketLengths:histogram:count 8037
scalar DynamicTest.H1.eth[0].queue outgoingPacketLengths:histogram:sumweights 8037
scalar DynamicTest.H1.eth[0].queue outgoingPacketLengths:histogram:mean 611.64115963668
scalar DynamicTest.H1.eth[0].queue outgoingPacketLengths:histogram:stddev 54.877107266966
scalar DynamicTest.H1.eth[0].queue outgoingPacketLengths:histogram:min 368
scalar DynamicTest.H1.eth[0].queue outgoingPacketLengths:histogram:max 624
scalar DynamicTest.H1.eth[0].queue outgoingPacketLengths:histogram:numbins 78
scalar DynamicTest.H1.eth[0].queue outgoingPacketLengths:histogram:rangemin 300
scalar DynamicTest.H1.eth[0].queue outgoingPacketLengths:histogram:rangemax 690
scalar DynamicTest.H1.eth[0].queue outgoingPacketLengths:histogram:underflows 0
scalar DynamicTest.H1.eth[0].queue outgoingPacketLengths:histogram:overflows 0
scalar DynamicTest.H1.eth[0].queue flowQueueingTime:histogram:count 0
scalar DynamicTest.H1.eth[0].queue flowQueueingTime:histogram:sumweights 0
scalar DynamicTest.H1.eth[0].queue flowQueueingTime:histogram:mean -nan
scalar DynamicTest.H1.eth[0].queue flowQueueingTime:histogram:stddev nan
scalar DynamicTest.H1.eth[0].queue flowQueueingTime:histogram:min nan
scalar DynamicTest.H1.eth[0].queue flowQueueingTime:histogram:max nan
scalar DynamicTest.H1.eth[0].queue flowQueueingTime:histogram:numbins 1
scalar DynamicTest.H1.eth[0].queue flowQueueingTime:histogram:rangemin 0
scalar DynamicTest.H1.eth[0].queue flowQueueingTime:histogram:rangemax 1
scalar DynamicTest.H1.eth[0].queue flowQueueingTime:histogram:underflows 0
scalar DynamicTest.H1.eth[0].queue flowQueueingTime:histogram:overflows 0
scalar DynamicTest.H1.eth[0].queue incomingPacketLengths:histogram:count 8037
scalar DynamicTest.H1.eth[0].queue incomingPacketLengths:histogram:sumweights 8037
scalar DynamicTest.H1.eth[0].queue incomingPacketLengths:histogram:mean 611.64115963668
scalar DynamicTest.H1.eth[0].queue incomingPacketLengths:histogram:stddev 54.877107266966
scalar DynamicTest.H1.eth[0].queue incomingPacketLengths:histogram:min 368
scalar DynamicTest.H1.eth[0].queue incomingPacketLengths:histogram:max 624
scalar DynamicTest.H1.eth[0].queue incomingPacketLengths:histogram:numbins 78
scalar DynamicTest.H1.eth[0].queue incomingPacketLengths:histogram:rangemin 300
scalar DynamicTest.H1.eth[0].queue incomingPacketLengths:histogram:rangemax 690
scalar DynamicTest.H1.eth[0].queue incomingPacketLengths:histogram:underflows 0
scalar DynamicTest.H1.eth[0].queue incomingPacketLengths:histogram:overflows 0
scalar DynamicTest.H1.eth[0].mac throughput:histogram:count 6000
scalar DynamicTest.H1.eth[0].mac throughput:histogram:sumweights 6000
scalar DynamicTest.H1.eth[0].mac throughput:histogram:mean 9143.3333333333
scalar DynamicTest.H1.eth[0].mac throughput:histogram:stddev 6804.2985410201
scalar DynamicTest.H1.eth[0].mac throughput:histogram:min 0
scalar DynamicTest.H1.eth[0].mac throughput:histogram:max 19520
scalar DynamicTest.H1.eth[0].mac throughput:histogram:numbins 50
scalar DynamicTest.H1.eth[0].mac throughput:histogram:rangemin -200
scalar DynamicTest.H1.eth[0].mac throughput:histogram:rangemax 19800
scalar DynamicTest.H1.eth[0].mac throughput:histogram:underflows 0
scalar DynamicTest.H1.eth[0].mac throughput:histogram:overflows 0
scalar DynamicTest.H1.eth[0].mac utilization:histogram:count 6000
scalar DynamicTest.H1.eth[0].mac utilization:histogram:sumweights 6000
scalar DynamicTest.H1.eth[0].mac utilization:histogram:mean 0.009143333333333
scalar DynamicTest.H1.eth[0].mac utilization:histogram:stddev 0.0068042985410199
scalar DynamicTest.H1.eth[0].mac utilization:histogram:min 0
scalar DynamicTest.H1.eth[0].mac utilization:histogram:max 0.01952
scalar DynamicTest.H1.eth[0].mac utilization:histogram:numbins 50
scalar DynamicTest.H1.eth[0].mac utilization:histogram:rangemin -0.5
scalar DynamicTest.H1.eth[0].mac utilization:histogram:rangemax 0.5
scalar DynamicTest.H1.eth[0].mac utilization:histogram:underflows 0
scalar DynamicTest.H1.eth[0].mac utilization:histogram:overflows 0
scalar DynamicTest.R1.eth[0].queue queueingTime:histogram:count 7746
scalar DynamicTest.R1.eth[0].queue queueingTime:histogram:sumweights 7746
scalar DynamicTest.R1.eth[0].queue queueingTime:histogram:mean 0
scalar DynamicTest.R1.eth[0].queue queueingTime:histogram:stddev 0
scalar DynamicTest.R1.eth[0].queue queueingTime:histogram:min 0
scalar DynamicTest.R1.eth[0].queue queueingTime:histogram:max 0
scalar DynamicTest.R1.eth[0].queue queueingTime:histogram:numbins 50
scalar DynamicTest.R1.eth[0].queue queueingTime:histogram:rangemin -0.5
scalar DynamicTest.R1.eth[0].queue queueingTime:histogram:rangemax 0.5
scalar DynamicTest.R1.eth[0].queue queueingTime:histogram:underflows 0
scalar DynamicTest.R1.eth[0].queue queueingTime:histogram:overflows 0
scalar DynamicTest.R1.eth[0].queue outgoingPacketLengths:histogram:count 7746
scalar DynamicTest.R1.eth[0].queue outgoingPacketLengths:histogram:sumweights 7746
scalar DynamicTest.R1.eth[0].queue outgoingPacketLengths:histogram:mean 611.42473534728
scalar DynamicTest.R1.eth[0].queue outgoingPacketLengths:histogram:stddev 55.972506186233
scalar DynamicTest.R1.eth[0].queue outgoingPacketLengths:histogram:min 368
scalar DynamicTest.R1.eth[0].queue outgoingPacketLengths:histogram:max 656
scalar DynamicTest.R1.eth[0].queue outgoingPacketLengths:histogram:numbins 87
scalar DynamicTest.R1.eth[0].queue outgoingPacketLengths:histogram:rangemin 295
scalar DynamicTest.R1.eth[0].queue outgoingPacketLengths:histogram:rangemax 730
scalar DynamicTest.R1.eth[0].queue outgoingPacketLengths:histogram:underflows 0
scalar DynamicTest.R1.eth[0].queue outgoingPacketLengths:histogram:overflows 0
scalar DynamicTest.R1.eth[0].queue flowQueueingTime:histogram:count 0
scalar DynamicTest.R1.eth[0].queue flowQueueingTime:histogram:sumweights 0
scalar DynamicTest.R1.eth[0].queue flowQueueingTime:histogram:mean -nan
scalar DynamicTest.R1.eth[0].queue flowQueueingTime:histogram:stddev nan
scalar DynamicTest.R1.eth[0].queue flowQueueingTime:histogram:min nan
scalar DynamicTest.R1.eth[0].queue flowQueueingTime:histogram:max nan
scalar DynamicTest.R1.eth[0].queue flowQueueingTime:histogram:numbins 1
scalar DynamicTest.R1.eth[0].queue flowQueueingTime:histogram:rangemin 0
scalar DynamicTest.R1.eth[0].queue flowQueueingTime:histogram:rangemax 1
scalar DynamicTest.R1.eth[0].queue flowQueueingTime:histogram:underflows 0
scalar DynamicTest.R1.eth[0].queue flowQueueingTime:histogram:overflows 0
scalar DynamicTest.R1.eth[0].queue incomingPacketLengths:histogram:count 7746
scalar DynamicTest.R1.eth[0].queue incomingPacketLengths:histogram:sumweights 7746
scalar DynamicTest.R1.eth[0].queue incomingPacketLengths:histogram:mean 611.42473534728
scalar DynamicTest.R1.eth[0].queue incomingPacketLengths:histogram:stddev 55.972506186233
scalar DynamicTest.R1.eth[0].queue incomingPacketLengths:histogram:min 368
scalar DynamicTest.R1.eth[0].queue incomingPacketLengths:histogram:max 656
scalar DynamicTest.R1.eth[0].queue incomingPacketLengths:histogram:numbins 87
scalar DynamicTest.R1.eth[0].queue incomingPacketLengths:histogram:rangemin 295
scalar DynamicTest.R1.eth[0].queue incomingPacketLengths:histogram:rangemax 730
scalar DynamicTest.R1.eth[0].queue incomingPacketLengths:histogram:underflows 0
scalar DynamicTest.R1.eth[0].queue incomingPacketLengths:histogram:overflows 0
scalar DynamicTest.R1.eth[0].mac throughput:histogram:count 6000
scalar DynamicTest.R1.eth[0].mac throughput:histogram:sumweights 6000
scalar DynamicTest.R1.eth[0].mac throughput:histogram:mean 8812.8533333333
scalar DynamicTest.R1.eth[0].mac throughput:histogram:stddev 7129.6446730546
scalar DynamicTest.R1.eth[0].mac throughput:histogram:min 0
scalar DynamicTest.R1.eth[0].mac throughput:histogram:max 26720
scalar DynamicTest.R1.eth[0].mac throughput:histogram:numbins 45
scalar DynamicTest.R1.eth[0].mac throughput:histogram:rangemin 0
scalar DynamicTest.R1.eth[0].mac throughput:histogram:rangemax 27000
scalar DynamicTest.R1.eth[0].mac throughput:histogram:underflows 0
scalar DynamicTest.R1.eth[0].mac throughput:histogram:overflows 0
scalar DynamicTest.R1.eth[0].mac utilization:histogram:count 6000
scalar DynamicTest.R1.eth[0].mac utilization:histogram:sumweights 6000
scalar DynamicTest.R1.eth[0].mac utilization:histogram:mean 0.008812853333333
scalar DynamicTest.R1.eth[0].mac utilization:histogram:stddev 0.0071296446730546
scalar DynamicTest.R1.eth[0].mac utilization:histogram:min 0
scalar DynamicTest.R1.eth[0].mac utilization:histogram:max 0.02672
scalar DynamicTest.R1.eth[0].mac utilization:histogram:numbins 45
scalar DynamicTest.R1.eth[0].mac utilization:histogram:rangemin 0
scalar DynamicTest.R1.eth[0].mac utilization:histogram:rangemax 0.027
scalar DynamicTest.R1.eth[0].mac utilization:histogram:underflows 0
scalar DynamicTest.R1.eth[0].mac utilization:histogram:overflows 0
scalar DynamicTest.R1.eth[1].queue queueingTime:histogram:count 4256
scalar DynamicTest.R1.eth[1].queue queueingTime:histogram:sumweights 4256
scalar DynamicTest.R1.eth[1].queue queueingTime:histogram:mean 1.343515037594e-08
scalar DynamicTest.R1.eth[1].queue queueingTime:histogram:stddev 4.7182944649613e-07
scalar DynamicTest.R1.eth[1].queue queueingTime:histogram:min 0
scalar DynamicTest.R1.eth[1].queue queueingTime:histogram:max 2.24e-05
scalar DynamicTest.R1.eth[1].queue queueingTime:histogram:numbins 56
scalar DynamicTest.R1.eth[1].queue queueingTime:histogram:rangemin 0
scalar DynamicTest.R1.eth[1].queue queueingTime:histogram:rangemax 2.8e-05
scalar DynamicTest.R1.eth[1].queue queueingTime:histogram:underflows 0
scalar DynamicTest.R1.eth[1].queue queueingTime:histogram:overflows 0
scalar DynamicTest.R1.eth[1].queue outgoingPacketLengths:histogram:count 4256
scalar DynamicTest.R1.eth[1].queue outgoingPacketLengths:histogram:sumweights 4256
scalar DynamicTest.R1.eth[1].queue outgoingPacketLengths:histogram:mean 612.45112781955
scalar DynamicTest.R1.eth[1].queue outgoingPacketLengths:histogram:stddev 64.624272168971
scalar DynamicTest.R1.eth[1].queue outgoingPacketLengths:histogram:min 368
scalar DynamicTest.R1.eth[1].queue outgoingPacketLengths:histogram:max 1520
scalar DynamicTest.R1.eth[1].queue outgoingPacketLengths:histogram:numbins 87
scalar DynamicTest.R1.eth[1].queue outgoingPacketLengths:histogram:rangemin 80
scalar DynamicTest.R1.eth[1].queue outgoingPacketLengths:histogram:rangemax 1820
scalar DynamicTest.R1.eth[1].queue outgoingPacketLengths:histogram:underflows 0
scalar DynamicTest.R1.eth[1].queue outgoingPacketLengths:histogram:overflows 0
scalar DynamicTest.R1.eth[1].queue flowQueueingTime:histogram:count 0
scalar DynamicTest.R1.eth[1].queue flowQueueingTime:histogram:sumweights 0
scalar DynamicTest.R1.eth[1].queue flowQueueingTime:histogram:mean -nan
scalar DynamicTest.R1.eth[1].queue flowQueueingTime:histogram:stddev nan
scalar DynamicTest.R1.eth[1].queue flowQueueingTime:histogram:min nan
scalar DynamicTest.R1.eth[1].queue flowQueueingTime:histogram:max nan
scalar DynamicTest.R1.eth[1].queue flowQueueingTime:histogram:numbins 1
scalar DynamicTest.R1.eth[1].queue flowQueueingTime:histogram:rangemin 0
scalar DynamicTest.R1.eth[1].queue flowQueueingTime:histogram:rangemax 1
scalar DynamicTest.R1.eth[1].queue flowQueueingTime:histogram:underflows 0
scalar DynamicTest.R1.eth[1].queue flowQueueingTime:histogram:overflows 0
scalar DynamicTest.R1.eth[1].queue incomingPacketLengths:histogram:count 4256
scalar DynamicTest.R1.eth[1].queue incomingPacketLengths:histogram:sumweights 4256
scalar DynamicTest.R1.eth[1].queue incomingPacketLengths:histogram:mean 612.45112781955
scalar DynamicTest.R1.eth[1].queue incomingPacketLengths:histogram:stddev 64.624272168971
scalar DynamicTest.R1.eth[1].queue incomingPacketLengths:histogram:min 368
scalar DynamicTest.R1.eth[1].queue incomingPacketLengths:histogram:max 1520
scalar DynamicTest.R1.eth[1].queue incomingPacketLengths:histogram:numbins 87
scalar DynamicTest.R1.eth[1].queue incomingPacketLengths:histogram:rangemin 80
scalar DynamicTest.R1.eth[1].queue incomingPacketLengths:histogram:rangemax 1820
scalar DynamicTest.R1.eth[1].queue incomingPacketLengths:histogram:underflows 0
scalar DynamicTest.R1.eth[1].queue incomingPacketLengths:histogram:overflows 0
scalar DynamicTest.R1.eth[1].mac throughput:histogram:count 6000
scalar DynamicTest.R1.eth[1].mac throughput:histogram:sumweights 6000
scalar DynamicTest.R1.eth[1].mac throughput:histogram:mean 4852.7733333333
scalar DynamicTest.R1.eth[1].mac throughput:histogram:stddev 6884.5367055136
scalar DynamicTest.R1.eth[1].mac throughput:histogram:min 0
scalar DynamicTest.R1.eth[1].mac throughput:histogram:max 66400
scalar DynamicTest.R1.eth[1].mac throughput:histogram:numbins 83
scalar DynamicTest.R1.eth[1].mac throughput:histogram:rangemin 0
scalar DynamicTest.R1.eth[1].mac throughput:histogram:rangemax 83000
scalar DynamicTest.R1.eth[1].mac throughput:histogram:underflows 0
scalar DynamicTest.R1.eth[1].mac throughput:histogram:overflows 0
scalar DynamicTest.R1.eth[1].mac utilization:histogram:count 6000
scalar DynamicTest.R1.eth[1].mac utilization:histogram:sumweights 6000
scalar DynamicTest.R1.eth[1].mac utilization:histogram:mean 0.0048527733333335
scalar DynamicTest.R1.eth[1].mac utilization:histogram:stddev 0.0068845367055136
scalar DynamicTest.R1.eth[1].mac utilization:histogram:min 0
scalar DynamicTest.R1.eth[1].mac utilization:histogram:max 0.0664
scalar DynamicTest.R1.eth[1].mac utilization:histogram:numbins 84
scalar DynamicTest.R1.eth[1].mac utilization:histogram:rangemin 0
scalar DynamicTest.R1.eth[1].mac utilization:histogram:rangemax 0.084
scalar DynamicTest.R1.eth[1].mac utilization:histogram:underflows 0
scalar DynamicTest.R1.eth[1].mac utilization:histogram:overflows 0
scalar DynamicTest.R1.eth[2].queue queueingTime:histogram:count 3648
scalar DynamicTest.R1.eth[2].queue queueingTime:histogram:sumweights 3648
scalar DynamicTest.R1.eth[2].queue queueingTime:histogram:mean 1.1891447368421e-08
scalar DynamicTest.R1.eth[2].queue queueingTime:histogram:stddev 3.4552239829716e-07
scalar DynamicTest.R1.eth[2].queue queueingTime:histogram:min 0
scalar DynamicTest.R1.eth[2].queue queueingTime:histogram:max 1.184e-05
scalar DynamicTest.R1.eth[2].queue queueingTime:histogram:numbins 74
scalar DynamicTest.R1.eth[2].queue queueingTime:histogram:rangemin 0
scalar DynamicTest.R1.eth[2].queue queueingTime:histogram:rangemax 1.48e-05
scalar DynamicTest.R1.eth[2].queue queueingTime:histogram:underflows 0
scalar DynamicTest.R1.eth[2].queue queueingTime:histogram:overflows 0
scalar DynamicTest.R1.eth[2].queue outgoingPacketLengths:histogram:count 3648
scalar DynamicTest.R1.eth[2].queue outgoingPacketLengths:histogram:sumweights 3648
scalar DynamicTest.R1.eth[2].queue outgoingPacketLengths:histogram:mean 614.69298245614
scalar DynamicTest.R1.eth[2].queue outgoingPacketLengths:histogram:stddev 59.58424676367
scalar DynamicTest.R1.eth[2].queue outgoingPacketLengths:histogram:min 368
scalar DynamicTest.R1.eth[2].queue outgoingPacketLengths:histogram:max 1104
scalar DynamicTest.R1.eth[2].queue outgoingPacketLengths:histogram:numbins 56
scalar DynamicTest.R1.eth[2].queue outgoingPacketLengths:histogram:rangemin 180
scalar DynamicTest.R1.eth[2].queue outgoingPacketLengths:histogram:rangemax 1300
scalar DynamicTest.R1.eth[2].queue outgoingPacketLengths:histogram:underflows 0
scalar DynamicTest.R1.eth[2].queue outgoingPacketLengths:histogram:overflows 0
scalar DynamicTest.R1.eth[2].queue flowQueueingTime:histogram:count 0
scalar DynamicTest.R1.eth[2].queue flowQueueingTime:histogram:sumweights 0
scalar DynamicTest.R1.eth[2].queue flowQueueingTime:histogram:mean -nan
scalar DynamicTest.R1.eth[2].queue flowQueueingTime:histogram:stddev nan
scalar DynamicTest.R1.eth[2].queue flowQueueingTime:histogram:min nan
scalar DynamicTest.R1.eth[2].queue flowQueueingTime:histogram:max nan
scalar DynamicTest.R1.eth[2].queue flowQueueingTime:histogram:numbins 1
scalar DynamicTest.R1.eth[2].queue flowQueueingTime:histogram:rangemin 0
scalar DynamicTest.R1.eth[2].queue flowQueueingTime:histogram:rangemax 1
scalar DynamicTest.R1.eth[2].queue flowQueueingTime:histogram:underflows 0
scalar DynamicTest.R1.eth[2].queue flowQueueingTime:histogram:overflows 0
scalar DynamicTest.R1.eth[2].queue incomingPacketLengths:histogram:count 3648
scalar DynamicTest.R1.eth[2].queue incomingPacketLengths:histogram:sumweights 3648
scalar DynamicTest.R1.eth[2].queue incomingPacketLengths:histogram:mean 614.69298245614
scalar DynamicTest.R1.eth[2].queue incomingPacketLengths:histogram:stddev 59.58424676367
scalar DynamicTest.R1.eth[2].queue incomingPacketLengths:histogram:min 368
scalar DynamicTest.R1.eth[2].queue incomingPacketLengths:histogram:max 1104
scalar DynamicTest.R1.eth[2].queue incomingPacketLengths:histogram:numbins 56
scalar DynamicTest.R1.eth[2].queue incomingPacketLengths:histogram:rangemin 180
scalar DynamicTest.R1.eth[2].queue incomingPacketLengths:histogram:rangemax 1300
scalar DynamicTest.R1.eth[2].queue incomingPacketLengths:histogram:underflows 0
scalar DynamicTest.R1.eth[2].queue incomingPacketLengths:histogram:overflows 0
scalar DynamicTest.R1.eth[2].mac throughput:histogram:count 6000
scalar DynamicTest.R1.eth[2].mac throughput:histogram:sumweights 6000
scalar DynamicTest.R1.eth[2].mac throughput:histogram:mean 4166.5333333333
scalar DynamicTest.R1.eth[2].mac throughput:histogram:stddev 6637.8567253198
scalar DynamicTest.R1.eth[2].mac throughput:histogram:min 0
scalar DynamicTest.R1.eth[2].mac throughput:histogram:max 59360
scalar DynamicTest.R1.eth[2].mac throughput:histogram:numbins 75
scalar DynamicTest.R1.eth[2].mac throughput:histogram:rangemin 0
scalar DynamicTest.R1.eth[2].mac throughput:histogram:rangemax 75000
scalar DynamicTest.R1.eth[2].mac throughput:histogram:underflows 0
scalar DynamicTest.R1.eth[2].mac throughput:histogram:overflows 0
scalar DynamicTest.R1.eth[2].mac utilization:histogram:count 6000
scalar DynamicTest.R1.eth[2].mac utilization:histogram:sumweights 6000
scalar DynamicTest.R1.eth[2].mac utilization:histogram:mean 0.0041665333333335
scalar DynamicTest.R1.eth[2].mac utilization:histogram:stddev 0.0066378567253198
scalar DynamicTest.R1.eth[2].mac utilization:histogram:min 0
scalar DynamicTest.R1.eth[2].mac utilization:histogram:max 0.05936
scalar DynamicTest.R1.eth[2].mac utilization:histogram:numbins 75
scalar DynamicTest.R1.eth[2].mac utilization:histogram:rangemin 0
scalar DynamicTest.R1.eth[2].mac utilization:histogram:rangemax 0.075
scalar DynamicTest.R1.eth[2].mac utilization:histogram:underflows 0
scalar DynamicTest.R1.eth[2].mac utilization:histogram:overflows 0
scalar DynamicTest.RA.eth[0].queue queueingTime:histogram:count 4151
scalar DynamicTest.RA.eth[0].queue queueingTime:histogram:sumweights 4151
scalar DynamicTest.RA.eth[0].queue queueingTime:histogram:mean 1.7383762948687e-08
scalar DynamicTest.RA.eth[0].queue queueingTime:histogram:stddev 5.0854254010864e-07
scalar DynamicTest.RA.eth[0].queue queueingTime:histogram:min 0
scalar DynamicTest.RA.eth[0].queue queueingTime:histogram:max 2.432e-05
scalar DynamicTest.RA.eth[0].queue queueingTime:histogram:numbins 41
scalar DynamicTest.RA.eth[0].queue queueingTime:histogram:rangemin 0
scalar DynamicTest.RA.eth[0].queue queueingTime:histogram:rangemax 2.46e-05
scalar DynamicTest.RA.eth[0].queue queueingTime:histogram:underflows 0
scalar DynamicTest.RA.eth[0].queue queueingTime:histogram:overflows 0
scalar DynamicTest.RA.eth[0].queue outgoingPacketLengths:histogram:count 4151
scalar DynamicTest.RA.eth[0].queue outgoingPacketLengths:histogram:sumweights 4151
scalar DynamicTest.RA.eth[0].queue outgoingPacketLengths:histogram:mean 613.72392194652
scalar DynamicTest.RA.eth[0].queue outgoingPacketLengths:histogram:stddev 61.884929388616
scalar DynamicTest.RA.eth[0].queue outgoingPacketLengths:histogram:min 368
scalar DynamicTest.RA.eth[0].queue outgoingPacketLengths:histogram:max 1520
scalar DynamicTest.RA.eth[0].queue outgoingPacketLengths:histogram:numbins 87
scalar DynamicTest.RA.eth[0].queue outgoingPacketLengths:histogram:rangemin 80
scalar DynamicTest.RA.eth[0].queue outgoingPacketLengths:histogram:rangemax 1820
scalar DynamicTest.RA.eth[0].queue outgoingPacketLengths:histogram:underflows 0
scalar DynamicTest.RA.eth[0].queue outgoingPacketLengths:histogram:overflows 0
scalar DynamicTest.RA.eth[0].queue flowQueueingTime:histogram:count 0
scalar DynamicTest.RA.eth[0].queue flowQueueingTime:histogram:sumweights 0
scalar DynamicTest.RA.eth[0].queue flowQueueingTime:histogram:mean -nan
scalar DynamicTest.RA.eth[0].queue flowQueueingTime:histogram:stddev nan
scalar DynamicTest.RA.eth[0].queue flowQueueingTime:histogram:min nan
scalar DynamicTest.RA.eth[0].queue flowQueueingTime:histogram:max nan
scalar DynamicTest.RA.eth[0].queue flowQueueingTime:histogram:numbins 1
scalar DynamicTest.RA.eth[0].queue flowQueueingTime:histogram:rangemin 0
scalar DynamicTest.RA.eth[0].queue flowQueueingTime:histogram:rangemax 1
scalar DynamicTest.RA.eth[0].queue flowQueueingTime:histogram:underflows 0
scalar DynamicTest.RA.eth[0].queue flowQueueingTime:histogram:overflows 0
scalar DynamicTest.RA.eth[0].queue incomingPacketLengths:histogram:count 4151
scalar DynamicTest.RA.eth[0].queue incomingPacketLengths:histogram:sumweights 4151
scalar DynamicTest.RA.eth[0].queue incomingPacketLengths:histogram:mean 613.72392194652
scalar DynamicTest.RA.eth[0].queue incomingPacketLengths:histogram:stddev 61.884929388616
scalar DynamicTest.RA.eth[0].queue incomingPacketLengths:histogram:min 368
scalar DynamicTest.RA.eth[0].queue incomingPacketLengths:histogram:max 1520
scalar DynamicTest.RA.eth[0].queue incomingPacketLengths:histogram:numbins 87
scalar DynamicTest.RA.eth[0].queue incomingPacketLengths:histogram:rangemin 80
scalar DynamicTest.RA.eth[0].queue incomingPacketLengths:histogram:rangemax 1820
scalar DynamicTest.RA.eth[0].queue incomingPacketLengths:histogram:underflows 0
scalar DynamicTest.RA.eth[0].queue incomingPacketLengths:histogram:overflows 0
scalar DynamicTest.RA.eth[0].mac throughput:histogram:count 6000
scalar DynamicTest.RA.eth[0].mac throughput:histogram:sumweights 6000
scalar DynamicTest.RA.eth[0].mac throughput:histogram:mean 4736
scalar DynamicTest.RA.eth[0].mac throughput:histogram:stddev 6889.7897065416
scalar DynamicTest.RA.eth[0].mac throughput:histogram:min 0
scalar DynamicTest.RA.eth[0].mac throughput:histogram:max 53760
scalar DynamicTest.RA.eth[0].mac throughput:histogram:numbins 68
scalar DynamicTest.RA.eth[0].mac throughput:histogram:rangemin 0
scalar DynamicTest.RA.eth[0].mac throughput:histogram:rangemax 68000
scalar DynamicTest.RA.eth[0].mac throughput:histogram:underflows 0
scalar DynamicTest.RA.eth[0].mac throughput:histogram:overflows 0
scalar DynamicTest.RA.eth[0].mac utilization:histogram:count 6000
scalar DynamicTest.RA.eth[0].mac utilization:histogram:sumweights 6000
scalar DynamicTest.RA.eth[0].mac utilization:histogram:mean 0.0047360000000002
scalar DynamicTest.RA.eth[0].mac utilization:histogram:stddev 0.0068897897065416
scalar DynamicTest.RA.eth[0].mac utilization:histogram:min 0
scalar DynamicTest.RA.eth[0].mac utilization:histogram:max 0.05376
scalar DynamicTest.RA.eth[0].mac utilization:histogram:numbins 68
scalar DynamicTest.RA.eth[0].mac utilization:histogram:rangemin 0
scalar DynamicTest.RA.eth[0].mac utilization:histogram:rangemax 0.068
scalar DynamicTest.RA.eth[0].mac utilization:histogram:underflows 0
scalar DynamicTest.RA.eth[0].mac utilization:histogram:overflows 0
scalar DynamicTest.RA.eth[1].queue queueingTime:histogram:count 4191
scalar DynamicTest.RA.eth[1].queue queueingTime:histogram:sumweights 4191
scalar DynamicTest.RA.eth[1].queue queueingTime:histogram:mean 1.7170126461465e-08
scalar DynamicTest.RA.eth[1].queue queueingTime:histogram:stddev 4.2078175843761e-07
scalar DynamicTest.RA.eth[1].queue queueingTime:histogram:min 0
scalar DynamicTest.RA.eth[1].queue queueingTime:histogram:max 1.632e-05
scalar DynamicTest.RA.eth[1].queue queueingTime:histogram:numbins 102
scalar DynamicTest.RA.eth[1].queue queueingTime:histogram:rangemin 0
scalar DynamicTest.RA.eth[1].queue queueingTime:histogram:rangemax 2.04e-05
scalar DynamicTest.RA.eth[1].queue queueingTime:histogram:underflows 0
scalar DynamicTest.RA.eth[1].queue queueingTime:histogram:overflows 0
scalar DynamicTest.RA.eth[1].queue outgoingPacketLengths:histogram:count 4191
scalar DynamicTest.RA.eth[1].queue outgoingPacketLengths:histogram:sumweights 4191
scalar DynamicTest.RA.eth[1].queue outgoingPacketLengths:histogram:mean 613.51658315438
scalar DynamicTest.RA.eth[1].queue outgoingPacketLengths:histogram:stddev 58.858271171648
scalar DynamicTest.RA.eth[1].queue outgoingPacketLengths:histogram:min 368
scalar DynamicTest.RA.eth[1].queue outgoingPacketLengths:histogram:max 1104
scalar DynamicTest.RA.eth[1].queue outgoingPacketLengths:histogram:numbins 56
scalar DynamicTest.RA.eth[1].queue outgoingPacketLengths:histogram:rangemin 180
scalar DynamicTest.RA.eth[1].queue outgoingPacketLengths:histogram:rangemax 1300
scalar DynamicTest.RA.eth[1].queue outgoingPacketLengths:histogram:underflows 0
scalar DynamicTest.RA.eth[1].queue outgoingPacketLengths:histogram:overflows 0
scalar DynamicTest.RA.eth[1].queue flowQueueingTime:histogram:count 0
scalar DynamicTest.RA.eth[1].queue flowQueueingTime:histogram:sumweights 0
scalar DynamicTest.RA.eth[1].queue flowQueueingTime:histogram:mean -nan
scalar DynamicTest.RA.eth[1].queue flowQueueingTime:histogram:stddev nan
scalar DynamicTest.RA.eth[1].queue flowQueueingTime:histogram:min nan
scalar DynamicTest.RA.eth[1].queue flowQueueingTime:histogram:max nan
scalar DynamicTest.RA.eth[1].queue flowQueueingTime:histogram:numbins 1
scalar DynamicTest.RA.eth[1].queue flowQueueingTime:histogram:rangemin 0
scalar DynamicTest.RA.eth[1].queue flowQueueingTime:histogram:rangemax 1
scalar DynamicTest.RA.eth[1].queue flowQueueingTime:histogram:underflows 0
scalar DynamicTest.RA.eth[1].queue flowQueueingTime:histogram:overflows 0
scalar DynamicTest.RA.eth[1].queue incomingPacketLengths:histogram:count 4191
scalar DynamicTest.RA.eth[1].queue incomingPacketLengths:histogram:sumweights 4191
scalar DynamicTest.RA.eth[1].queue incomingPacketLengths:histogram:mean 613.51658315438
scalar DynamicTest.RA.eth[1].queue incomingPacketLengths:histogram:stddev 58.858271171648
scalar DynamicTest.RA.eth[1].queue incomingPacketLengths:histogram:min 368
scalar DynamicTest.RA.eth[1].queue incomingPacketLengths:histogram:max 1104
scalar DynamicTest.RA.eth[1].queue incomingPacketLengths:histogram:numbins 56
scalar DynamicTest.RA.eth[1].queue incomingPacketLengths:histogram:rangemin 180
scalar DynamicTest.RA.eth[1].queue incomingPacketLengths:histogram:rangemax 1300
scalar DynamicTest.RA.eth[1].queue incomingPacketLengths:histogram:underflows 0
scalar DynamicTest.RA.eth[1].queue incomingPacketLengths:histogram:overflows 0
scalar DynamicTest.RA.eth[1].mac throughput:histogram:count 6000
scalar DynamicTest.RA.eth[1].mac throughput:histogram:sumweights 6000
scalar DynamicTest.RA.eth[1].mac throughput:histogram:mean 4779.9733333333
scalar DynamicTest.RA.eth[1].mac throughput:histogram:stddev 7548.2286106398
scalar DynamicTest.RA.eth[1].mac throughput:histogram:min 0
scalar DynamicTest.RA.eth[1].mac throughput:histogram:max 238080
scalar DynamicTest.RA.eth[1].mac throughput:histogram:numbins 60
scalar DynamicTest.RA.eth[1].mac throughput:histogram:rangemin 0
scalar DynamicTest.RA.eth[1].mac throughput:histogram:rangemax 240000
scalar DynamicTest.RA.eth[1].mac throughput:histogram:underflows 0
scalar DynamicTest.RA.eth[1].mac throughput:histogram:overflows 0
scalar DynamicTest.RA.eth[1].mac utilization:histogram:count 6000
scalar DynamicTest.RA.eth[1].mac utilization:histogram:sumweights 6000
scalar DynamicTest.RA.eth[1].mac utilization:histogram:mean 0.0047799733333335
scalar DynamicTest.RA.eth[1].mac utilization:histogram:stddev 0.0075482286106399
scalar DynamicTest.RA.eth[1].mac utilization:histogram:min 0
scalar DynamicTest.RA.eth[1].mac utilization:histogram:max 0.23808
scalar DynamicTest.RA.eth[1].mac utilization:histogram:numbins 60
scalar DynamicTest.RA.eth[1].mac utilization:histogram:rangemin 0
scalar DynamicTest.RA.eth[1].mac utilization:histogram:rangemax 0.24
scalar DynamicTest.RA.eth[1].mac utilization:histogram:underflows 0
scalar DynamicTest.RA.eth[1].mac utilization:histogram:overflows 0
scalar DynamicTest.RB.eth[0].queue queueingTime:histogram:count 3650
scalar DynamicTest.RB.eth[0].queue queueingTime:histogram:sumweights 3650
scalar DynamicTest.RB.eth[0].queue queueingTime:histogram:mean 3.146301369863e-08
scalar DynamicTest.RB.eth[0].queue queueingTime:histogram:stddev 8.8299317617184e-07
scalar DynamicTest.RB.eth[0].queue queueingTime:histogram:min 0
scalar DynamicTest.RB.eth[0].queue queueingTime:histogram:max 3.552e-05
scalar DynamicTest.RB.eth[0].queue queueingTime:histogram:numbins 89
scalar DynamicTest.RB.eth[0].queue queueingTime:histogram:rangemin 0
scalar DynamicTest.RB.eth[0].queue queueingTime:histogram:rangemax 4.45e-05
scalar DynamicTest.RB.eth[0].queue queueingTime:histogram:underflows 0
scalar DynamicTest.RB.eth[0].queue queueingTime:histogram:overflows 0
scalar DynamicTest.RB.eth[0].queue outgoingPacketLengths:histogram:count 3650
scalar DynamicTest.RB.eth[0].queue outgoingPacketLengths:histogram:sumweights 3650
scalar DynamicTest.RB.eth[0].queue outgoingPacketLengths:histogram:mean 614.4701369863
scalar DynamicTest.RB.eth[0].queue outgoingPacketLengths:histogram:stddev 58.749332211808
scalar DynamicTest.RB.eth[0].queue outgoingPacketLengths:histogram:min 368
[...]
scalar DynamicTest.H2.eth[0].mac passedUpPk:vector(packetBytes):stddev 3.0810451340385
scalar DynamicTest.H2.eth[0].mac passedUpPk:vector(packetBytes):min 64
scalar DynamicTest.H2.eth[0].mac passedUpPk:vector(packetBytes):max 82
scalar DynamicTest.H2.eth[0].mac passedUpPk:vector(packetBytes):starttime 0.119770588281
scalar DynamicTest.H2.eth[0].mac passedUpPk:vector(packetBytes):endtime 590.11977058828
scalar DynamicTest.H2.eth[0].mac txPausePkUnits:vector:count 0
scalar DynamicTest.H2.eth[0].mac txPausePkUnits:vector:sum 0
scalar DynamicTest.H2.eth[0].mac txPausePkUnits:vector:sumweights 0
scalar DynamicTest.H2.eth[0].mac txPausePkUnits:vector:mean -nan
scalar DynamicTest.H2.eth[0].mac txPausePkUnits:vector:stddev nan
scalar DynamicTest.H2.eth[0].mac txPausePkUnits:vector:min inf
scalar DynamicTest.H2.eth[0].mac txPausePkUnits:vector:max -inf
scalar DynamicTest.H2.eth[0].mac txPausePkUnits:vector:starttime nan
scalar DynamicTest.H2.eth[0].mac txPausePkUnits:vector:endtime nan
scalar DynamicTest.H2.eth[0].mac rxPausePkUnits:vector:count 0
scalar DynamicTest.H2.eth[0].mac rxPausePkUnits:vector:sum 0
scalar DynamicTest.H2.eth[0].mac rxPausePkUnits:vector:sumweights 0
scalar DynamicTest.H2.eth[0].mac rxPausePkUnits:vector:mean -nan
scalar DynamicTest.H2.eth[0].mac rxPausePkUnits:vector:stddev nan
scalar DynamicTest.H2.eth[0].mac rxPausePkUnits:vector:min inf
scalar DynamicTest.H2.eth[0].mac rxPausePkUnits:vector:max -inf
scalar DynamicTest.H2.eth[0].mac rxPausePkUnits:vector:starttime nan
scalar DynamicTest.H2.eth[0].mac rxPausePkUnits:vector:endtime nan
scalar DynamicTest.H2.eth[0].mac packetReceivedFromUpper:vector(packetBytes):count 8038
scalar DynamicTest.H2.eth[0].mac packetReceivedFromUpper:vector(packetBytes):sum 614548
scalar DynamicTest.H2.eth[0].mac packetReceivedFromUpper:vector(packetBytes):sumweights 8038
scalar DynamicTest.H2.eth[0].mac packetReceivedFromUpper:vector(packetBytes):mean 76.455337148544
scalar DynamicTest.H2.eth[0].mac packetReceivedFromUpper:vector(packetBytes):stddev 6.8592332846859
scalar DynamicTest.H2.eth[0].mac packetReceivedFromUpper:vector(packetBytes):min 46
scalar DynamicTest.H2.eth[0].mac packetReceivedFromUpper:vector(packetBytes):max 78
scalar DynamicTest.H2.eth[0].mac packetReceivedFromUpper:vector(packetBytes):starttime 100
scalar DynamicTest.H2.eth[0].mac packetReceivedFromUpper:vector(packetBytes):endtime 499.90003964
scalar DynamicTest.H2.eth[0].mac packetDropIncorrectlyReceived:vector(packetBytes):count 0
scalar DynamicTest.H2.eth[0].mac packetDropIncorrectlyReceived:vector(packetBytes):sum 0
scalar DynamicTest.H2.eth[0].mac packetDropIncorrectlyReceived:vector(packetBytes):sumweights 0
scalar DynamicTest.H2.eth[0].mac packetDropIncorrectlyReceived:vector(packetBytes):mean -nan
scalar DynamicTest.H2.eth[0].mac packetDropIncorrectlyReceived:vector(packetBytes):stddev nan
scalar DynamicTest.H2.eth[0].mac packetDropIncorrectlyReceived:vector(packetBytes):min inf
scalar DynamicTest.H2.eth[0].mac packetDropIncorrectlyReceived:vector(packetBytes):max -inf
scalar DynamicTest.H2.eth[0].mac packetDropIncorrectlyReceived:vector(packetBytes):starttime nan
scalar DynamicTest.H2.eth[0].mac packetDropIncorrectlyReceived:vector(packetBytes):endtime nan
scalar DynamicTest.H2.eth[0].mac packetDropInterfaceDown:vector(packetBytes):count 0
scalar DynamicTest.H2.eth[0].mac packetDropInterfaceDown:vector(packetBytes):sum 0
scalar DynamicTest.H2.eth[0].mac packetDropInterfaceDown:vector(packetBytes):sumweights 0
scalar DynamicTest.H2.eth[0].mac packetDropInterfaceDown:vector(packetBytes):mean -nan
scalar DynamicTest.H2.eth[0].mac packetDropInterfaceDown:vector(packetBytes):stddev nan
scalar DynamicTest.H2.eth[0].mac packetDropInterfaceDown:vector(packetBytes):min inf
scalar DynamicTest.H2.eth[0].mac packetDropInterfaceDown:vector(packetBytes):max -inf
scalar DynamicTest.H2.eth[0].mac packetDropInterfaceDown:vector(packetBytes):starttime nan
scalar DynamicTest.H2.eth[0].mac packetDropInterfaceDown:vector(packetBytes):endtime nan
scalar DynamicTest.H2.eth[0].mac packetDropNotAddressedToUs:vector(packetBytes):count 0
scalar DynamicTest.H2.eth[0].mac packetDropNotAddressedToUs:vector(packetBytes):sum 0
scalar DynamicTest.H2.eth[0].mac packetDropNotAddressedToUs:vector(packetBytes):sumweights 0
scalar DynamicTest.H2.eth[0].mac packetDropNotAddressedToUs:vector(packetBytes):mean -nan
scalar DynamicTest.H2.eth[0].mac packetDropNotAddressedToUs:vector(packetBytes):stddev nan
scalar DynamicTest.H2.eth[0].mac packetDropNotAddressedToUs:vector(packetBytes):min inf
scalar DynamicTest.H2.eth[0].mac packetDropNotAddressedToUs:vector(packetBytes):max -inf
scalar DynamicTest.H2.eth[0].mac packetDropNotAddressedToUs:vector(packetBytes):starttime nan
scalar DynamicTest.H2.eth[0].mac packetDropNotAddressedToUs:vector(packetBytes):endtime nan
scalar DynamicTest.H2.eth[0] packetDropInterfaceDown:vector(packetBytes):count 0
scalar DynamicTest.H2.eth[0] packetDropInterfaceDown:vector(packetBytes):sum 0
scalar DynamicTest.H2.eth[0] packetDropInterfaceDown:vector(packetBytes):sumweights 0
scalar DynamicTest.H2.eth[0] packetDropInterfaceDown:vector(packetBytes):mean -nan
scalar DynamicTest.H2.eth[0] packetDropInterfaceDown:vector(packetBytes):stddev nan
scalar DynamicTest.H2.eth[0] packetDropInterfaceDown:vector(packetBytes):min inf
scalar DynamicTest.H2.eth[0] packetDropInterfaceDown:vector(packetBytes):max -inf
scalar DynamicTest.H2.eth[0] packetDropInterfaceDown:vector(packetBytes):starttime nan
scalar DynamicTest.H2.eth[0] packetDropInterfaceDown:vector(packetBytes):endtime nan
scalar DynamicTest.H2.eth[0] packetDropNoCarrier:vector(packetBytes):count 0
scalar DynamicTest.H2.eth[0] packetDropNoCarrier:vector(packetBytes):sum 0
scalar DynamicTest.H2.eth[0] packetDropNoCarrier:vector(packetBytes):sumweights 0
scalar DynamicTest.H2.eth[0] packetDropNoCarrier:vector(packetBytes):mean -nan
scalar DynamicTest.H2.eth[0] packetDropNoCarrier:vector(packetBytes):stddev nan
scalar DynamicTest.H2.eth[0] packetDropNoCarrier:vector(packetBytes):min inf
scalar DynamicTest.H2.eth[0] packetDropNoCarrier:vector(packetBytes):max -inf
scalar DynamicTest.H2.eth[0] packetDropNoCarrier:vector(packetBytes):starttime nan
scalar DynamicTest.H2.eth[0] packetDropNoCarrier:vector(packetBytes):endtime nan
scalar DynamicTest.H2.ipv4.ip packetDropAddressResolutionFailed:vector(packetBytes):count 0
scalar DynamicTest.H2.ipv4.ip packetDropAddressResolutionFailed:vector(packetBytes):sum 0
scalar DynamicTest.H2.ipv4.ip packetDropAddressResolutionFailed:vector(packetBytes):sumweights 0
scalar DynamicTest.H2.ipv4.ip packetDropAddressResolutionFailed:vector(packetBytes):mean -nan
scalar DynamicTest.H2.ipv4.ip packetDropAddressResolutionFailed:vector(packetBytes):stddev nan
scalar DynamicTest.H2.ipv4.ip packetDropAddressResolutionFailed:vector(packetBytes):min inf
scalar DynamicTest.H2.ipv4.ip packetDropAddressResolutionFailed:vector(packetBytes):max -inf
scalar DynamicTest.H2.ipv4.ip packetDropAddressResolutionFailed:vector(packetBytes):starttime nan
scalar DynamicTest.H2.ipv4.ip packetDropAddressResolutionFailed:vector(packetBytes):endtime nan
scalar DynamicTest.H2.ipv4.ip packetDropHopLimitReached:vector(packetBytes):count 0
scalar DynamicTest.H2.ipv4.ip packetDropHopLimitReached:vector(packetBytes):sum 0
scalar DynamicTest.H2.ipv4.ip packetDropHopLimitReached:vector(packetBytes):sumweights 0
scalar DynamicTest.H2.ipv4.ip packetDropHopLimitReached:vector(packetBytes):mean -nan
scalar DynamicTest.H2.ipv4.ip packetDropHopLimitReached:vector(packetBytes):stddev nan
scalar DynamicTest.H2.ipv4.ip packetDropHopLimitReached:vector(packetBytes):min inf
scalar DynamicTest.H2.ipv4.ip packetDropHopLimitReached:vector(packetBytes):max -inf
scalar DynamicTest.H2.ipv4.ip packetDropHopLimitReached:vector(packetBytes):starttime nan
scalar DynamicTest.H2.ipv4.ip packetDropHopLimitReached:vector(packetBytes):endtime nan
scalar DynamicTest.H2.ipv4.ip packetDropForwardingDisabled:vector(packetBytes):count 0
scalar DynamicTest.H2.ipv4.ip packetDropForwardingDisabled:vector(packetBytes):sum 0
scalar DynamicTest.H2.ipv4.ip packetDropForwardingDisabled:vector(packetBytes):sumweights 0
scalar DynamicTest.H2.ipv4.ip packetDropForwardingDisabled:vector(packetBytes):mean -nan
scalar DynamicTest.H2.ipv4.ip packetDropForwardingDisabled:vector(packetBytes):stddev nan
scalar DynamicTest.H2.ipv4.ip packetDropForwardingDisabled:vector(packetBytes):min inf
scalar DynamicTest.H2.ipv4.ip packetDropForwardingDisabled:vector(packetBytes):max -inf
scalar DynamicTest.H2.ipv4.ip packetDropForwardingDisabled:vector(packetBytes):starttime nan
scalar DynamicTest.H2.ipv4.ip packetDropForwardingDisabled:vector(packetBytes):endtime nan
scalar DynamicTest.H2.ipv4.ip packetDropLifetimeExpired:vector(packetBytes):count 0
scalar DynamicTest.H2.ipv4.ip packetDropLifetimeExpired:vector(packetBytes):sum 0
scalar DynamicTest.H2.ipv4.ip packetDropLifetimeExpired:vector(packetBytes):sumweights 0
scalar DynamicTest.H2.ipv4.ip packetDropLifetimeExpired:vector(packetBytes):mean -nan
scalar DynamicTest.H2.ipv4.ip packetDropLifetimeExpired:vector(packetBytes):stddev nan
scalar DynamicTest.H2.ipv4.ip packetDropLifetimeExpired:vector(packetBytes):min inf
scalar DynamicTest.H2.ipv4.ip packetDropLifetimeExpired:vector(packetBytes):max -inf
scalar DynamicTest.H2.ipv4.ip packetDropLifetimeExpired:vector(packetBytes):starttime nan
scalar DynamicTest.H2.ipv4.ip packetDropLifetimeExpired:vector(packetBytes):endtime nan
scalar DynamicTest.H2.ipv4.ip packetDropNoInterfaceFound:vector(packetBytes):count 0
scalar DynamicTest.H2.ipv4.ip packetDropNoInterfaceFound:vector(packetBytes):sum 0
scalar DynamicTest.H2.ipv4.ip packetDropNoInterfaceFound:vector(packetBytes):sumweights 0
scalar DynamicTest.H2.ipv4.ip packetDropNoInterfaceFound:vector(packetBytes):mean -nan
scalar DynamicTest.H2.ipv4.ip packetDropNoInterfaceFound:vector(packetBytes):stddev nan
scalar DynamicTest.H2.ipv4.ip packetDropNoInterfaceFound:vector(packetBytes):min inf
scalar DynamicTest.H2.ipv4.ip packetDropNoInterfaceFound:vector(packetBytes):max -inf
scalar DynamicTest.H2.ipv4.ip packetDropNoInterfaceFound:vector(packetBytes):starttime nan
scalar DynamicTest.H2.ipv4.ip packetDropNoInterfaceFound:vector(packetBytes):endtime nan
scalar DynamicTest.H2.ipv4.ip packetDropNoRouteFound:vector(packetBytes):count 0
scalar DynamicTest.H2.ipv4.ip packetDropNoRouteFound:vector(packetBytes):sum 0
scalar DynamicTest.H2.ipv4.ip packetDropNoRouteFound:vector(packetBytes):sumweights 0
scalar DynamicTest.H2.ipv4.ip packetDropNoRouteFound:vector(packetBytes):mean -nan
scalar DynamicTest.H2.ipv4.ip packetDropNoRouteFound:vector(packetBytes):stddev nan
scalar DynamicTest.H2.ipv4.ip packetDropNoRouteFound:vector(packetBytes):min inf
scalar DynamicTest.H2.ipv4.ip packetDropNoRouteFound:vector(packetBytes):max -inf
scalar DynamicTest.H2.ipv4.ip packetDropNoRouteFound:vector(packetBytes):starttime nan
scalar DynamicTest.H2.ipv4.ip packetDropNoRouteFound:vector(packetBytes):endtime nan
scalar DynamicTest.H2.ipv4.ip packetDropUndefined:vector(packetBytes):count 0
scalar DynamicTest.H2.ipv4.ip packetDropUndefined:vector(packetBytes):sum 0
scalar DynamicTest.H2.ipv4.ip packetDropUndefined:vector(packetBytes):sumweights 0
scalar DynamicTest.H2.ipv4.ip packetDropUndefined:vector(packetBytes):mean -nan
scalar DynamicTest.H2.ipv4.ip packetDropUndefined:vector(packetBytes):stddev nan
scalar DynamicTest.H2.ipv4.ip packetDropUndefined:vector(packetBytes):min inf
scalar DynamicTest.H2.ipv4.ip packetDropUndefined:vector(packetBytes):max -inf
scalar DynamicTest.H2.ipv4.ip packetDropUndefined:vector(packetBytes):starttime nan
scalar DynamicTest.H2.ipv4.ip packetDropUndefined:vector(packetBytes):endtime nan
scalar DynamicTest.H2.ipv4.arp arpRequestSent:vector(packetBytes):count 210
scalar DynamicTest.H2.ipv4.arp arpRequestSent:vector(packetBytes):sum 5880
scalar DynamicTest.H2.ipv4.arp arpRequestSent:vector(packetBytes):sumweights 210
scalar DynamicTest.H2.ipv4.arp arpRequestSent:vector(packetBytes):mean 28
scalar DynamicTest.H2.ipv4.arp arpRequestSent:vector(packetBytes):stddev 0
scalar DynamicTest.H2.ipv4.arp arpRequestSent:vector(packetBytes):min 28
scalar DynamicTest.H2.ipv4.arp arpRequestSent:vector(packetBytes):max 28
scalar DynamicTest.H2.ipv4.arp arpRequestSent:vector(packetBytes):starttime 100
scalar DynamicTest.H2.ipv4.arp arpRequestSent:vector(packetBytes):endtime 499
scalar DynamicTest.H2.ipv4.arp arpReplySent:vector(packetBytes):count 178
scalar DynamicTest.H2.ipv4.arp arpReplySent:vector(packetBytes):sum 4984
scalar DynamicTest.H2.ipv4.arp arpReplySent:vector(packetBytes):sumweights 178
scalar DynamicTest.H2.ipv4.arp arpReplySent:vector(packetBytes):mean 28
scalar DynamicTest.H2.ipv4.arp arpReplySent:vector(packetBytes):stddev 0
scalar DynamicTest.H2.ipv4.arp arpReplySent:vector(packetBytes):min 28
scalar DynamicTest.H2.ipv4.arp arpReplySent:vector(packetBytes):max 28
scalar DynamicTest.H2.ipv4.arp arpReplySent:vector(packetBytes):starttime 101.0000268
scalar DynamicTest.H2.ipv4.arp arpReplySent:vector(packetBytes):endtime 497.90005472
scalar DynamicTest.H2.udp packetSent:vector(packetBytes):count 7650
scalar DynamicTest.H2.udp packetSent:vector(packetBytes):sum 306000
scalar DynamicTest.H2.udp packetSent:vector(packetBytes):sumweights 7650
scalar DynamicTest.H2.udp packetSent:vector(packetBytes):mean 40
scalar DynamicTest.H2.udp packetSent:vector(packetBytes):stddev 0
scalar DynamicTest.H2.udp packetSent:vector(packetBytes):min 40
scalar DynamicTest.H2.udp packetSent:vector(packetBytes):max 40
scalar DynamicTest.H2.udp packetSent:vector(packetBytes):starttime 100
scalar DynamicTest.H2.udp packetSent:vector(packetBytes):endtime 499.90003964
scalar DynamicTest.H2.udp packetReceived:vector(packetBytes):count 7299
scalar DynamicTest.H2.udp packetReceived:vector(packetBytes):sum 291960
scalar DynamicTest.H2.udp packetReceived:vector(packetBytes):sumweights 7299
scalar DynamicTest.H2.udp packetReceived:vector(packetBytes):mean 40
scalar DynamicTest.H2.udp packetReceived:vector(packetBytes):stddev 0
scalar DynamicTest.H2.udp packetReceived:vector(packetBytes):min 40
scalar DynamicTest.H2.udp packetReceived:vector(packetBytes):max 40
scalar DynamicTest.H2.udp packetReceived:vector(packetBytes):starttime 100.00005136
scalar DynamicTest.H2.udp packetReceived:vector(packetBytes):endtime 499.90006756
scalar DynamicTest.H2.udp passedUpPk:vector(count):count 7300
scalar DynamicTest.H2.udp passedUpPk:vector(count):sum 26641350
scalar DynamicTest.H2.udp passedUpPk:vector(count):sumweights 7300
scalar DynamicTest.H2.udp passedUpPk:vector(count):mean 3649.5
scalar DynamicTest.H2.udp passedUpPk:vector(count):stddev 2107.4728151667
scalar DynamicTest.H2.udp passedUpPk:vector(count):min 0
scalar DynamicTest.H2.udp passedUpPk:vector(count):max 7299
scalar DynamicTest.H2.udp passedUpPk:vector(count):starttime 0
scalar DynamicTest.H2.udp passedUpPk:vector(count):endtime 499.90006756
scalar DynamicTest.H2.udp droppedPkWrongPort:vector(count):count 1
scalar DynamicTest.H2.udp droppedPkWrongPort:vector(count):sum 0
scalar DynamicTest.H2.udp droppedPkWrongPort:vector(count):sumweights 1
scalar DynamicTest.H2.udp droppedPkWrongPort:vector(count):mean 0
scalar DynamicTest.H2.udp droppedPkWrongPort:vector(count):stddev nan
scalar DynamicTest.H2.udp droppedPkWrongPort:vector(count):min 0
scalar DynamicTest.H2.udp droppedPkWrongPort:vector(count):max 0
scalar DynamicTest.H2.udp droppedPkWrongPort:vector(count):starttime 0
scalar DynamicTest.H2.udp droppedPkWrongPort:vector(count):endtime 0
scalar DynamicTest.H2.udp droppedPkBadChecksum:vector(count):count 1
scalar DynamicTest.H2.udp droppedPkBadChecksum:vector(count):sum 0
scalar DynamicTest.H2.udp droppedPkBadChecksum:vector(count):sumweights 1
scalar DynamicTest.H2.udp droppedPkBadChecksum:vector(count):mean 0
scalar DynamicTest.H2.udp droppedPkBadChecksum:vector(count):stddev nan
scalar DynamicTest.H2.udp droppedPkBadChecksum:vector(count):min 0
scalar DynamicTest.H2.udp droppedPkBadChecksum:vector(count):max 0
scalar DynamicTest.H2.udp droppedPkBadChecksum:vector(count):starttime 0
scalar DynamicTest.H2.udp droppedPkBadChecksum:vector(count):endtime 0
scalar DynamicTest.H2.app[0] packetReceived:vector(packetBytes):count 3649
scalar DynamicTest.H2.app[0] packetReceived:vector(packetBytes):sum 116768
scalar DynamicTest.H2.app[0] packetReceived:vector(packetBytes):sumweights 3649
scalar DynamicTest.H2.app[0] packetReceived:vector(packetBytes):mean 32
scalar DynamicTest.H2.app[0] packetReceived:vector(packetBytes):stddev 0
scalar DynamicTest.H2.app[0] packetReceived:vector(packetBytes):min 32
scalar DynamicTest.H2.app[0] packetReceived:vector(packetBytes):max 32
scalar DynamicTest.H2.app[0] packetReceived:vector(packetBytes):starttime 100.00007928
scalar DynamicTest.H2.app[0] packetReceived:vector(packetBytes):endtime 499.90006756
scalar DynamicTest.H2.app[0] throughput:vector:count 6000
scalar DynamicTest.H2.app[0] throughput:vector:sum 9341440
scalar DynamicTest.H2.app[0] throughput:vector:sumweights 6000
scalar DynamicTest.H2.app[0] throughput:vector:mean 1556.9066666667
scalar DynamicTest.H2.app[0] throughput:vector:stddev 1249.7931942767
scalar DynamicTest.H2.app[0] throughput:vector:min 0
scalar DynamicTest.H2.app[0] throughput:vector:max 2560
scalar DynamicTest.H2.app[0] throughput:vector:starttime 0.1
scalar DynamicTest.H2.app[0] throughput:vector:endtime 600
scalar DynamicTest.H2.app[0] packetSent:vector(packetBytes):count 4000
scalar DynamicTest.H2.app[0] packetSent:vector(packetBytes):sum 128000
scalar DynamicTest.H2.app[0] packetSent:vector(packetBytes):sumweights 4000
scalar DynamicTest.H2.app[0] packetSent:vector(packetBytes):mean 32
scalar DynamicTest.H2.app[0] packetSent:vector(packetBytes):stddev 0
scalar DynamicTest.H2.app[0] packetSent:vector(packetBytes):min 32
scalar DynamicTest.H2.app[0] packetSent:vector(packetBytes):max 32
scalar DynamicTest.H2.app[0] packetSent:vector(packetBytes):starttime 100
scalar DynamicTest.H2.app[0] packetSent:vector(packetBytes):endtime 499.9
scalar DynamicTest.H2.app[0] rcvdPkLifetime:vector:count 3649
scalar DynamicTest.H2.app[0] rcvdPkLifetime:vector:sum 0.21211888
scalar DynamicTest.H2.app[0] rcvdPkLifetime:vector:sumweights 3649
scalar DynamicTest.H2.app[0] rcvdPkLifetime:vector:mean 5.8130687859688e-05
scalar DynamicTest.H2.app[0] rcvdPkLifetime:vector:stddev 6.0485233801611e-06
scalar DynamicTest.H2.app[0] rcvdPkLifetime:vector:min 5.584e-05
scalar DynamicTest.H2.app[0] rcvdPkLifetime:vector:max 7.928e-05
scalar DynamicTest.H2.app[0] rcvdPkLifetime:vector:starttime 100.00007928
scalar DynamicTest.H2.app[0] rcvdPkLifetime:vector:endtime 499.90006756
scalar DynamicTest.H2.app[0] rcvdPkSeqNo:vector:count 3649
scalar DynamicTest.H2.app[0] rcvdPkSeqNo:vector:sum 7500525
scalar DynamicTest.H2.app[0] rcvdPkSeqNo:vector:sumweights 3649
scalar DynamicTest.H2.app[0] rcvdPkSeqNo:vector:mean 2055.5015072623
scalar DynamicTest.H2.app[0] rcvdPkSeqNo:vector:stddev 1176.5309388013
scalar DynamicTest.H2.app[0] rcvdPkSeqNo:vector:min 0
scalar DynamicTest.H2.app[0] rcvdPkSeqNo:vector:max 3999
scalar DynamicTest.H2.app[0] rcvdPkSeqNo:vector:starttime 100.00007928
scalar DynamicTest.H2.app[0] rcvdPkSeqNo:vector:endtime 499.90006756
scalar DynamicTest.H2.app[1] echoedPk:vector(packetBytes):count 3650
scalar DynamicTest.H2.app[1] echoedPk:vector(packetBytes):sum 116800
scalar DynamicTest.H2.app[1] echoedPk:vector(packetBytes):sumweights 3650
scalar DynamicTest.H2.app[1] echoedPk:vector(packetBytes):mean 32
scalar DynamicTest.H2.app[1] echoedPk:vector(packetBytes):stddev 0
scalar DynamicTest.H2.app[1] echoedPk:vector(packetBytes):min 32
scalar DynamicTest.H2.app[1] echoedPk:vector(packetBytes):max 32
scalar DynamicTest.H2.app[1] echoedPk:vector(packetBytes):starttime 100.00005136
scalar DynamicTest.H2.app[1] echoedPk:vector(packetBytes):endtime 499.90003964

