version 3
run General-0-20251118-11:41:14-110023
attr configname General
attr datetime 20251118-11:41:14
attr datetimef 20251118-114114
attr experiment General
attr inifile omnetpp.ini
attr iterationvars ""
attr iterationvarsd ""
attr iterationvarsf ""
attr measurement ""
attr network inet.networks.ethernet.LinearNetwork
attr processid 110023
attr repetition 0
attr replication #0
attr resultdir results
attr runnumber 0
attr seedset 0
config **.param-recording false
config image-path /home/zoli/Projects/OMNET/inet/images
config output-scalar-file results/omnetpp.ini-General-#0.sca
config output-scalar-precision 17
config output-vector-file results/omnetpp.ini-General-#0.vec
config output-vector-precision 17
config record-eventlog false
config sim-time-limit 10s
config network inet.networks.ethernet.LinearNetwork
config sim-time-limit 10s
config *.visualizer.typename ""
config *.configurator.typename ""
config *.macForwardingTableConfigurator.typename ""
config *.*.hasIpv4 false
config *.*.hasTcp false
config *.*.hasUdp false
config *.*.numLoInterfaces 0
config *.*.ethg$o[*].channel.datarate 100Mbps
config *.client.numApps 1
config *.client.app[0].typename EthernetSourceApp
config *.client.app[0].source.packetLength 1000B
config *.client.app[0].source.productionInterval exponential(1ms)
config *.client.app[0].io.remoteAddress "\"server\""
config *.client.app[0].io.interface "\"eth0\""
config *.server.numApps 1
config *.server.app[0].typename EthernetSinkApp
config *.server.app[0].io.localAddress "\"0A:AA:00:00:00:04\""
config *.server.app[0].io.interface "\"eth0\""

scalar LinearNetwork.client.ethernet pauseSent:count 0
scalar LinearNetwork.client.ethernet pauseSent:sum 0
scalar LinearNetwork.client.ethernet decapPk:count 0
scalar LinearNetwork.client.ethernet decapPk:sum(packetBytes) 0
scalar LinearNetwork.client.ethernet encapPk:count 9962
scalar LinearNetwork.client.ethernet encapPk:sum(packetBytes) 9962000
scalar LinearNetwork.client.eth[0].queue queueLength:last 0
scalar LinearNetwork.client.eth[0].queue queueLength:max 3
scalar LinearNetwork.client.eth[0].queue queueLength:timeavg 0.0038155016600000006
scalar LinearNetwork.client.eth[0].queue queueBitLength:last 0
scalar LinearNetwork.client.eth[0].queue queueBitLength:max 24432
scalar LinearNetwork.client.eth[0].queue queueBitLength:timeavg 31.073445519040025
scalar LinearNetwork.client.eth[0].queue outgoingPackets:count 9962
scalar LinearNetwork.client.eth[0].queue outgoingPacketLengths:sum 81130528
scalar LinearNetwork.client.eth[0].queue incomingPackets:count 9962
scalar LinearNetwork.client.eth[0].queue incomingPacketLengths:sum 81130528
scalar LinearNetwork.client.eth[0].queue droppedPacketsQueueOverflow:count 0
scalar LinearNetwork.client.eth[0].queue droppedPacketLengthsQueueOverflow:sum 0
scalar LinearNetwork.client.eth[0].mac "simulated time" 10
scalar LinearNetwork.client.eth[0].mac full-duplex 1
scalar LinearNetwork.client.eth[0].mac "frames/sec sent" 996.20000000000005
scalar LinearNetwork.client.eth[0].mac "frames/sec rcvd" 0
scalar LinearNetwork.client.eth[0].mac "bits/sec sent" 8113052.7999999998
scalar LinearNetwork.client.eth[0].mac "bits/sec rcvd" 0
scalar LinearNetwork.client.eth[0].mac "rx channel idle (%)" 100
scalar LinearNetwork.client.eth[0].mac "rx channel utilization (%)" 0
scalar LinearNetwork.client.eth[0].mac rxPausePkUnits:count 0
scalar LinearNetwork.client.eth[0].mac rxPausePkUnits:sum 0
scalar LinearNetwork.client.eth[0].mac txPausePkUnits:count 0
scalar LinearNetwork.client.eth[0].mac txPausePkUnits:sum 0
scalar LinearNetwork.client.eth[0].mac rxPkOk:count 0
scalar LinearNetwork.client.eth[0].mac rxPkOk:sum(packetBytes) 0
scalar LinearNetwork.client.eth[0].mac txPk:count 9962
scalar LinearNetwork.client.eth[0].mac txPk:sum(packetBytes) 10141316
scalar LinearNetwork.client.eth[0].mac packetReceivedFromUpper:count 9962
scalar LinearNetwork.client.eth[0].mac packetReceivedFromUpper:sum(packetBytes) 10141316
scalar LinearNetwork.client.eth[0].mac passedUpPk:count 0
scalar LinearNetwork.client.eth[0].mac passedUpPk:sum(packetBytes) 0
scalar LinearNetwork.client.eth[0].mac packetDropIncorrectlyReceived:count 0
scalar LinearNetwork.client.eth[0].mac packetDropIncorrectlyReceived:sum(packetBytes) 0
scalar LinearNetwork.client.eth[0].mac packetDropInterfaceDown:count 0
scalar LinearNetwork.client.eth[0].mac packetDropInterfaceDown:sum(packetBytes) 0
scalar LinearNetwork.client.eth[0].mac packetDropNotAddressedToUs:count 0
scalar LinearNetwork.client.eth[0].mac packetDropNotAddressedToUs:sum(packetBytes) 0
scalar LinearNetwork.client.eth[0] packetDropInterfaceDown:count 0
scalar LinearNetwork.client.eth[0] packetDropInterfaceDown:sum(packetBytes) 0
scalar LinearNetwork.client.eth[0] packetDropNoCarrier:count 0
scalar LinearNetwork.client.eth[0] packetDropNoCarrier:sum(packetBytes) 0
scalar LinearNetwork.client.app[0].source packets:count 9962
scalar LinearNetwork.client.app[0].source packetLengths:sum 79696000
scalar LinearNetwork.client.app[0].io "packets sent" 9962
scalar LinearNetwork.client.app[0].io "packets received" 0
scalar LinearNetwork.client.app[0].io packetReceived:count 0
scalar LinearNetwork.client.app[0].io packetReceived:sum(packetBytes) 0
scalar LinearNetwork.client.app[0].io packetSent:count 9962
scalar LinearNetwork.client.app[0].io packetSent:sum(packetBytes) 9962000
scalar LinearNetwork.switch.bridging "processed frames" 0
scalar LinearNetwork.switch.bridging "discarded frames" 0
scalar LinearNetwork.switch.bridging "number of received BPDUs from STP module" 0
scalar LinearNetwork.switch.bridging "number of received frames from network (including BPDUs)" 9962
scalar LinearNetwork.switch.bridging "number of dropped frames (including BPDUs)" 0
scalar LinearNetwork.switch.bridging "number of delivered BPDUs to the STP module" 0
scalar LinearNetwork.switch.bridging "number of dispatched BPDU frames to the network" 0
scalar LinearNetwork.switch.bridging "number of dispatched non-BDPU frames to the network" 0
scalar LinearNetwork.switch.bridging packetDropped:count 0
scalar LinearNetwork.switch.bridging packetDropped:sum(packetBytes) 0
scalar LinearNetwork.switch.ethernet pauseSent:count 0
scalar LinearNetwork.switch.ethernet pauseSent:sum 0
scalar LinearNetwork.switch.ethernet decapPk:count 9962
scalar LinearNetwork.switch.ethernet decapPk:sum(packetBytes) 9962000
scalar LinearNetwork.switch.ethernet encapPk:count 9962
scalar LinearNetwork.switch.ethernet encapPk:sum(packetBytes) 9962000
scalar LinearNetwork.switch.eth[0].queue queueLength:last 0
scalar LinearNetwork.switch.eth[0].queue queueLength:max 0
scalar LinearNetwork.switch.eth[0].queue queueLength:timeavg 0
scalar LinearNetwork.switch.eth[0].queue queueBitLength:last 0
scalar LinearNetwork.switch.eth[0].queue queueBitLength:max 0
scalar LinearNetwork.switch.eth[0].queue queueBitLength:timeavg 0
scalar LinearNetwork.switch.eth[0].queue outgoingPackets:count 0
scalar LinearNetwork.switch.eth[0].queue outgoingPacketLengths:sum 0
scalar LinearNetwork.switch.eth[0].queue incomingPackets:count 0
scalar LinearNetwork.switch.eth[0].queue incomingPacketLengths:sum 0
scalar LinearNetwork.switch.eth[0].queue droppedPacketsQueueOverflow:count 0
scalar LinearNetwork.switch.eth[0].queue droppedPacketLengthsQueueOverflow:sum 0
scalar LinearNetwork.switch.eth[0].mac "simulated time" 10
scalar LinearNetwork.switch.eth[0].mac full-duplex 1
scalar LinearNetwork.switch.eth[0].mac "frames/sec sent" 0
scalar LinearNetwork.switch.eth[0].mac "frames/sec rcvd" 996.20000000000005
scalar LinearNetwork.switch.eth[0].mac "bits/sec sent" 0
scalar LinearNetwork.switch.eth[0].mac "bits/sec rcvd" 8113052.7999999998
scalar LinearNetwork.switch.eth[0].mac "rx channel idle (%)" 91.823190400000001
scalar LinearNetwork.switch.eth[0].mac "rx channel utilization (%)" 8.1768096000000003
scalar LinearNetwork.switch.eth[0].mac rxPausePkUnits:count 0
scalar LinearNetwork.switch.eth[0].mac rxPausePkUnits:sum 0
scalar LinearNetwork.switch.eth[0].mac txPausePkUnits:count 0
scalar LinearNetwork.switch.eth[0].mac txPausePkUnits:sum 0
scalar LinearNetwork.switch.eth[0].mac rxPkOk:count 9962
scalar LinearNetwork.switch.eth[0].mac rxPkOk:sum(packetBytes) 10141316
scalar LinearNetwork.switch.eth[0].mac txPk:count 0
scalar LinearNetwork.switch.eth[0].mac txPk:sum(packetBytes) 0
scalar LinearNetwork.switch.eth[0].mac packetReceivedFromUpper:count 0
scalar LinearNetwork.switch.eth[0].mac packetReceivedFromUpper:sum(packetBytes) 0
scalar LinearNetwork.switch.eth[0].mac passedUpPk:count 9962
scalar LinearNetwork.switch.eth[0].mac passedUpPk:sum(packetBytes) 10141316
scalar LinearNetwork.switch.eth[0].mac packetDropIncorrectlyReceived:count 0
scalar LinearNetwork.switch.eth[0].mac packetDropIncorrectlyReceived:sum(packetBytes) 0
scalar LinearNetwork.switch.eth[0].mac packetDropInterfaceDown:count 0
scalar LinearNetwork.switch.eth[0].mac packetDropInterfaceDown:sum(packetBytes) 0
scalar LinearNetwork.switch.eth[0].mac packetDropNotAddressedToUs:count 0
scalar LinearNetwork.switch.eth[0].mac packetDropNotAddressedToUs:sum(packetBytes) 0
scalar LinearNetwork.switch.eth[0] packetDropInterfaceDown:count 0
scalar LinearNetwork.switch.eth[0] packetDropInterfaceDown:sum(packetBytes) 0
scalar LinearNetwork.switch.eth[0] packetDropNoCarrier:count 0
scalar LinearNetwork.switch.eth[0] packetDropNoCarrier:sum(packetBytes) 0
scalar LinearNetwork.switch.eth[1].queue queueLength:last 0
scalar LinearNetwork.switch.eth[1].queue queueLength:max 0
scalar LinearNetwork.switch.eth[1].queue queueLength:timeavg 0
scalar LinearNetwork.switch.eth[1].queue queueBitLength:last 0
scalar LinearNetwork.switch.eth[1].queue queueBitLength:max 0
scalar LinearNetwork.switch.eth[1].queue queueBitLength:timeavg 0
scalar LinearNetwork.switch.eth[1].queue outgoingPackets:count 9962
scalar LinearNetwork.switch.eth[1].queue outgoingPacketLengths:sum 81130528
scalar LinearNetwork.switch.eth[1].queue incomingPackets:count 9962
scalar LinearNetwork.switch.eth[1].queue incomingPacketLengths:sum 81130528
scalar LinearNetwork.switch.eth[1].queue droppedPacketsQueueOverflow:count 0
scalar LinearNetwork.switch.eth[1].queue droppedPacketLengthsQueueOverflow:sum 0
scalar LinearNetwork.switch.eth[1].mac "simulated time" 10
scalar LinearNetwork.switch.eth[1].mac full-duplex 1
scalar LinearNetwork.switch.eth[1].mac "frames/sec sent" 996.20000000000005
scalar LinearNetwork.switch.eth[1].mac "frames/sec rcvd" 0
scalar LinearNetwork.switch.eth[1].mac "bits/sec sent" 8113052.7999999998
scalar LinearNetwork.switch.eth[1].mac "bits/sec rcvd" 0
scalar LinearNetwork.switch.eth[1].mac "rx channel idle (%)" 100
scalar LinearNetwork.switch.eth[1].mac "rx channel utilization (%)" 0
scalar LinearNetwork.switch.eth[1].mac rxPausePkUnits:count 0
scalar LinearNetwork.switch.eth[1].mac rxPausePkUnits:sum 0
scalar LinearNetwork.switch.eth[1].mac txPausePkUnits:count 0
scalar LinearNetwork.switch.eth[1].mac txPausePkUnits:sum 0
scalar LinearNetwork.switch.eth[1].mac rxPkOk:count 0
scalar LinearNetwork.switch.eth[1].mac rxPkOk:sum(packetBytes) 0
scalar LinearNetwork.switch.eth[1].mac txPk:count 9962
scalar LinearNetwork.switch.eth[1].mac txPk:sum(packetBytes) 10141316
scalar LinearNetwork.switch.eth[1].mac packetReceivedFromUpper:count 9962
scalar LinearNetwork.switch.eth[1].mac packetReceivedFromUpper:sum(packetBytes) 10141316
scalar LinearNetwork.switch.eth[1].mac passedUpPk:count 0
scalar LinearNetwork.switch.eth[1].mac passedUpPk:sum(packetBytes) 0
scalar LinearNetwork.switch.eth[1].mac packetDropIncorrectlyReceived:count 0
scalar LinearNetwork.switch.eth[1].mac packetDropIncorrectlyReceived:sum(packetBytes) 0
scalar LinearNetwork.switch.eth[1].mac packetDropInterfaceDown:count 0
scalar LinearNetwork.switch.eth[1].mac packetDropInterfaceDown:sum(packetBytes) 0
scalar LinearNetwork.switch.eth[1].mac packetDropNotAddressedToUs:count 0
scalar LinearNetwork.switch.eth[1].mac packetDropNotAddressedToUs:sum(packetBytes) 0
scalar LinearNetwork.switch.eth[1] packetDropInterfaceDown:count 0
scalar LinearNetwork.switch.eth[1] packetDropInterfaceDown:sum(packetBytes) 0
scalar LinearNetwork.switch.eth[1] packetDropNoCarrier:count 0
scalar LinearNetwork.switch.eth[1] packetDropNoCarrier:sum(packetBytes) 0
scalar LinearNetwork.server.ethernet pauseSent:count 0
scalar LinearNetwork.server.ethernet pauseSent:sum 0
scalar LinearNetwork.server.ethernet decapPk:count 0
scalar LinearNetwork.server.ethernet decapPk:sum(packetBytes) 0
scalar LinearNetwork.server.ethernet encapPk:count 0
scalar LinearNetwork.server.ethernet encapPk:sum(packetBytes) 0
scalar LinearNetwork.server.eth[0].queue queueLength:last 0
scalar LinearNetwork.server.eth[0].queue queueLength:max 0
scalar LinearNetwork.server.eth[0].queue queueLength:timeavg 0
scalar LinearNetwork.server.eth[0].queue queueBitLength:last 0
scalar LinearNetwork.server.eth[0].queue queueBitLength:max 0
scalar LinearNetwork.server.eth[0].queue queueBitLength:timeavg 0
scalar LinearNetwork.server.eth[0].queue outgoingPackets:count 0
scalar LinearNetwork.server.eth[0].queue outgoingPacketLengths:sum 0
scalar LinearNetwork.server.eth[0].queue incomingPackets:count 0
scalar LinearNetwork.server.eth[0].queue incomingPacketLengths:sum 0
scalar LinearNetwork.server.eth[0].queue droppedPacketsQueueOverflow:count 0
scalar LinearNetwork.server.eth[0].queue droppedPacketLengthsQueueOverflow:sum 0
scalar LinearNetwork.server.eth[0].mac "simulated time" 10
scalar LinearNetwork.server.eth[0].mac full-duplex 1
scalar LinearNetwork.server.eth[0].mac "frames/sec sent" 0
scalar LinearNetwork.server.eth[0].mac "frames/sec rcvd" 996.20000000000005
scalar LinearNetwork.server.eth[0].mac "bits/sec sent" 0
scalar LinearNetwork.server.eth[0].mac "bits/sec rcvd" 8113052.7999999998
scalar LinearNetwork.server.eth[0].mac "rx channel idle (%)" 91.823190400000001
scalar LinearNetwork.server.eth[0].mac "rx channel utilization (%)" 8.1768096000000003
scalar LinearNetwork.server.eth[0].mac rxPausePkUnits:count 0
scalar LinearNetwork.server.eth[0].mac rxPausePkUnits:sum 0
scalar LinearNetwork.server.eth[0].mac txPausePkUnits:count 0
scalar LinearNetwork.server.eth[0].mac txPausePkUnits:sum 0
scalar LinearNetwork.server.eth[0].mac rxPkOk:count 9962
scalar LinearNetwork.server.eth[0].mac rxPkOk:sum(packetBytes) 10141316
scalar LinearNetwork.server.eth[0].mac txPk:count 0
scalar LinearNetwork.server.eth[0].mac txPk:sum(packetBytes) 0
scalar LinearNetwork.server.eth[0].mac packetReceivedFromUpper:count 0
scalar LinearNetwork.server.eth[0].mac packetReceivedFromUpper:sum(packetBytes) 0
scalar LinearNetwork.server.eth[0].mac passedUpPk:count 9962
scalar LinearNetwork.server.eth[0].mac passedUpPk:sum(packetBytes) 10141316
scalar LinearNetwork.server.eth[0].mac packetDropIncorrectlyReceived:count 0
scalar LinearNetwork.server.eth[0].mac packetDropIncorrectlyReceived:sum(packetBytes) 0
scalar LinearNetwork.server.eth[0].mac packetDropInterfaceDown:count 0
scalar LinearNetwork.server.eth[0].mac packetDropInterfaceDown:sum(packetBytes) 0
scalar LinearNetwork.server.eth[0].mac packetDropNotAddressedToUs:count 0
scalar LinearNetwork.server.eth[0].mac packetDropNotAddressedToUs:sum(packetBytes) 0
scalar LinearNetwork.server.eth[0] packetDropInterfaceDown:count 0
scalar LinearNetwork.server.eth[0] packetDropInterfaceDown:sum(packetBytes) 0
scalar LinearNetwork.server.eth[0] packetDropNoCarrier:count 0
scalar LinearNetwork.server.eth[0] packetDropNoCarrier:sum(packetBytes) 0
scalar LinearNetwork.server.app[0].sink packets:count 9962
scalar LinearNetwork.server.app[0].sink packetLengths:sum 79696000
scalar LinearNetwork.server.app[0].sink droppedPackets:count 9962
scalar LinearNetwork.server.app[0].sink droppedPacketLengths:sum 79696000
scalar LinearNetwork.server.app[0].io "packets sent" 0
scalar LinearNetwork.server.app[0].io "packets received" 9962
scalar LinearNetwork.server.app[0].io packetReceived:count 9962
scalar LinearNetwork.server.app[0].io packetReceived:sum(packetBytes) 9962000
scalar LinearNetwork.server.app[0].io packetSent:count 0
scalar LinearNetwork.server.app[0].io packetSent:sum(packetBytes) 0
scalar LinearNetwork.client.eth[0].queue queueingTime:histogram:count 9962
scalar LinearNetwork.client.eth[0].queue queueingTime:histogram:sumweights 9962
scalar LinearNetwork.client.eth[0].queue queueingTime:histogram:mean 3.8300558723147981e-06
scalar LinearNetwork.client.eth[0].queue queueingTime:histogram:stddev 1.5437864659417875e-05
scalar LinearNetwork.client.eth[0].queue queueingTime:histogram:min 0
scalar LinearNetwork.client.eth[0].queue queueingTime:histogram:max 0.00018215332400000001
scalar LinearNetwork.client.eth[0].queue queueingTime:histogram:numbins 46
scalar LinearNetwork.client.eth[0].queue queueingTime:histogram:rangemin 0
scalar LinearNetwork.client.eth[0].queue queueingTime:histogram:rangemax 0.00018400000000000005
scalar LinearNetwork.client.eth[0].queue queueingTime:histogram:underflows 0
scalar LinearNetwork.client.eth[0].queue queueingTime:histogram:overflows 0
scalar LinearNetwork.client.eth[0].queue outgoingPacketLengths:histogram:count 9962
scalar LinearNetwork.client.eth[0].queue outgoingPacketLengths:histogram:sumweights 9962
scalar LinearNetwork.client.eth[0].queue outgoingPacketLengths:histogram:mean 8144
scalar LinearNetwork.client.eth[0].queue outgoingPacketLengths:histogram:stddev 0
scalar LinearNetwork.client.eth[0].queue outgoingPacketLengths:histogram:min 8144
scalar LinearNetwork.client.eth[0].queue outgoingPacketLengths:histogram:max 8144
scalar LinearNetwork.client.eth[0].queue outgoingPacketLengths:histogram:numbins 2
scalar LinearNetwork.client.eth[0].queue outgoingPacketLengths:histogram:rangemin 8143
scalar LinearNetwork.client.eth[0].queue outgoingPacketLengths:histogram:rangemax 8145
scalar LinearNetwork.client.eth[0].queue outgoingPacketLengths:histogram:underflows 0
scalar LinearNetwork.client.eth[0].queue outgoingPacketLengths:histogram:overflows 0
scalar LinearNetwork.client.eth[0].queue flowQueueingTime:histogram:count 0
scalar LinearNetwork.client.eth[0].queue flowQueueingTime:histogram:sumweights 0
scalar LinearNetwork.client.eth[0].queue flowQueueingTime:histogram:mean -nan
scalar LinearNetwork.client.eth[0].queue flowQueueingTime:histogram:stddev nan
scalar LinearNetwork.client.eth[0].queue flowQueueingTime:histogram:min nan
scalar LinearNetwork.client.eth[0].queue flowQueueingTime:histogram:max nan
scalar LinearNetwork.client.eth[0].queue flowQueueingTime:histogram:numbins 1
scalar LinearNetwork.client.eth[0].queue flowQueueingTime:histogram:rangemin 0
scalar LinearNetwork.client.eth[0].queue flowQueueingTime:histogram:rangemax 1
scalar LinearNetwork.client.eth[0].queue flowQueueingTime:histogram:underflows 0
scalar LinearNetwork.client.eth[0].queue flowQueueingTime:histogram:overflows 0
scalar LinearNetwork.client.eth[0].queue incomingPacketLengths:histogram:count 9962
scalar LinearNetwork.client.eth[0].queue incomingPacketLengths:histogram:sumweights 9962
scalar LinearNetwork.client.eth[0].queue incomingPacketLengths:histogram:mean 8144
scalar LinearNetwork.client.eth[0].queue incomingPacketLengths:histogram:stddev 0
scalar LinearNetwork.client.eth[0].queue incomingPacketLengths:histogram:min 8144
scalar LinearNetwork.client.eth[0].queue incomingPacketLengths:histogram:max 8144
scalar LinearNetwork.client.eth[0].queue incomingPacketLengths:histogram:numbins 2
scalar LinearNetwork.client.eth[0].queue incomingPacketLengths:histogram:rangemin 8143
scalar LinearNetwork.client.eth[0].queue incomingPacketLengths:histogram:rangemax 8145
scalar LinearNetwork.client.eth[0].queue incomingPacketLengths:histogram:underflows 0
scalar LinearNetwork.client.eth[0].queue incomingPacketLengths:histogram:overflows 0
scalar LinearNetwork.client.eth[0].mac throughput:histogram:count 104
scalar LinearNetwork.client.eth[0].mac throughput:histogram:sumweights 104
scalar LinearNetwork.client.eth[0].mac throughput:histogram:mean 8203426.1707326574
scalar LinearNetwork.client.eth[0].mac throughput:histogram:stddev 839375.16448171658
scalar LinearNetwork.client.eth[0].mac throughput:histogram:min 6357334.9103781832
scalar LinearNetwork.client.eth[0].mac throughput:histogram:max 10541244.97610506
scalar LinearNetwork.client.eth[0].mac throughput:histogram:numbins 48
scalar LinearNetwork.client.eth[0].mac throughput:histogram:rangemin 5800000
scalar LinearNetwork.client.eth[0].mac throughput:histogram:rangemax 10600000
scalar LinearNetwork.client.eth[0].mac throughput:histogram:underflows 0
scalar LinearNetwork.client.eth[0].mac throughput:histogram:overflows 0
scalar LinearNetwork.client.eth[0].mac utilization:histogram:count 104
scalar LinearNetwork.client.eth[0].mac utilization:histogram:sumweights 104
scalar LinearNetwork.client.eth[0].mac utilization:histogram:mean 8.2068126378252195
scalar LinearNetwork.client.eth[0].mac utilization:histogram:stddev 0.80718884097707544
scalar LinearNetwork.client.eth[0].mac utilization:histogram:min 6.5663999999999998
scalar LinearNetwork.client.eth[0].mac utilization:histogram:max 10.541244976105061
scalar LinearNetwork.client.eth[0].mac utilization:histogram:numbins 61
scalar LinearNetwork.client.eth[0].mac utilization:histogram:rangemin 5.5
scalar LinearNetwork.client.eth[0].mac utilization:histogram:rangemax 11.600000000000001
scalar LinearNetwork.client.eth[0].mac utilization:histogram:underflows 0
scalar LinearNetwork.client.eth[0].mac utilization:histogram:overflows 0
scalar LinearNetwork.client.app[0].source packetLengths:histogram:count 9962
scalar LinearNetwork.client.app[0].source packetLengths:histogram:sumweights 9962
scalar LinearNetwork.client.app[0].source packetLengths:histogram:mean 8000
scalar LinearNetwork.client.app[0].source packetLengths:histogram:stddev 0
scalar LinearNetwork.client.app[0].source packetLengths:histogram:min 8000
scalar LinearNetwork.client.app[0].source packetLengths:histogram:max 8000
scalar LinearNetwork.client.app[0].source packetLengths:histogram:numbins 2
scalar LinearNetwork.client.app[0].source packetLengths:histogram:rangemin 7999
scalar LinearNetwork.client.app[0].source packetLengths:histogram:rangemax 8001
scalar LinearNetwork.client.app[0].source packetLengths:histogram:underflows 0
scalar LinearNetwork.client.app[0].source packetLengths:histogram:overflows 0
scalar LinearNetwork.switch.eth[0].queue queueingTime:histogram:count 0
scalar LinearNetwork.switch.eth[0].queue queueingTime:histogram:sumweights 0
scalar LinearNetwork.switch.eth[0].queue queueingTime:histogram:mean -nan
scalar LinearNetwork.switch.eth[0].queue queueingTime:histogram:stddev nan
scalar LinearNetwork.switch.eth[0].queue queueingTime:histogram:min nan
scalar LinearNetwork.switch.eth[0].queue queueingTime:histogram:max nan
scalar LinearNetwork.switch.eth[0].queue queueingTime:histogram:numbins 1
scalar LinearNetwork.switch.eth[0].queue queueingTime:histogram:rangemin 0
scalar LinearNetwork.switch.eth[0].queue queueingTime:histogram:rangemax 1
scalar LinearNetwork.switch.eth[0].queue queueingTime:histogram:underflows 0
scalar LinearNetwork.switch.eth[0].queue queueingTime:histogram:overflows 0
scalar LinearNetwork.switch.eth[0].queue outgoingPacketLengths:histogram:count 0
scalar LinearNetwork.switch.eth[0].queue outgoingPacketLengths:histogram:sumweights 0
scalar LinearNetwork.switch.eth[0].queue outgoingPacketLengths:histogram:mean -nan
scalar LinearNetwork.switch.eth[0].queue outgoingPacketLengths:histogram:stddev nan
scalar LinearNetwork.switch.eth[0].queue outgoingPacketLengths:histogram:min nan
scalar LinearNetwork.switch.eth[0].queue outgoingPacketLengths:histogram:max nan
scalar LinearNetwork.switch.eth[0].queue outgoingPacketLengths:histogram:numbins 1
scalar LinearNetwork.switch.eth[0].queue outgoingPacketLengths:histogram:rangemin 0
scalar LinearNetwork.switch.eth[0].queue outgoingPacketLengths:histogram:rangemax 1
scalar LinearNetwork.switch.eth[0].queue outgoingPacketLengths:histogram:underflows 0
scalar LinearNetwork.switch.eth[0].queue outgoingPacketLengths:histogram:overflows 0
scalar LinearNetwork.switch.eth[0].queue flowQueueingTime:histogram:count 0
scalar LinearNetwork.switch.eth[0].queue flowQueueingTime:histogram:sumweights 0
scalar LinearNetwork.switch.eth[0].queue flowQueueingTime:histogram:mean -nan
scalar LinearNetwork.switch.eth[0].queue flowQueueingTime:histogram:stddev nan
scalar LinearNetwork.switch.eth[0].queue flowQueueingTime:histogram:min nan
scalar LinearNetwork.switch.eth[0].queue flowQueueingTime:histogram:max nan
scalar LinearNetwork.switch.eth[0].queue flowQueueingTime:histogram:numbins 1
scalar LinearNetwork.switch.eth[0].queue flowQueueingTime:histogram:rangemin 0
scalar LinearNetwork.switch.eth[0].queue flowQueueingTime:histogram:rangemax 1
scalar LinearNetwork.switch.eth[0].queue flowQueueingTime:histogram:underflows 0
scalar LinearNetwork.switch.eth[0].queue flowQueueingTime:histogram:overflows 0
scalar LinearNetwork.switch.eth[0].queue incomingPacketLengths:histogram:count 0
scalar LinearNetwork.switch.eth[0].queue incomingPacketLengths:histogram:sumweights 0
scalar LinearNetwork.switch.eth[0].queue incomingPacketLengths:histogram:mean -nan
scalar LinearNetwork.switch.eth[0].queue incomingPacketLengths:histogram:stddev nan
scalar LinearNetwork.switch.eth[0].queue incomingPacketLengths:histogram:min nan
scalar LinearNetwork.switch.eth[0].queue incomingPacketLengths:histogram:max nan
scalar LinearNetwork.switch.eth[0].queue incomingPacketLengths:histogram:numbins 1
scalar LinearNetwork.switch.eth[0].queue incomingPacketLengths:histogram:rangemin 0
scalar LinearNetwork.switch.eth[0].queue incomingPacketLengths:histogram:rangemax 1
scalar LinearNetwork.switch.eth[0].queue incomingPacketLengths:histogram:underflows 0
scalar LinearNetwork.switch.eth[0].queue incomingPacketLengths:histogram:overflows 0
scalar LinearNetwork.switch.eth[0].mac throughput:histogram:count 100
scalar LinearNetwork.switch.eth[0].mac throughput:histogram:sumweights 100
scalar LinearNetwork.switch.eth[0].mac throughput:histogram:mean 0
scalar LinearNetwork.switch.eth[0].mac throughput:histogram:stddev 0
scalar LinearNetwork.switch.eth[0].mac throughput:histogram:min 0
scalar LinearNetwork.switch.eth[0].mac throughput:histogram:max 0
scalar LinearNetwork.switch.eth[0].mac throughput:histogram:numbins 50
scalar LinearNetwork.switch.eth[0].mac throughput:histogram:rangemin -0.5
scalar LinearNetwork.switch.eth[0].mac throughput:histogram:rangemax 0.5
scalar LinearNetwork.switch.eth[0].mac throughput:histogram:underflows 0
scalar LinearNetwork.switch.eth[0].mac throughput:histogram:overflows 0
scalar LinearNetwork.switch.eth[0].mac utilization:histogram:count 100
scalar LinearNetwork.switch.eth[0].mac utilization:histogram:sumweights 100
scalar LinearNetwork.switch.eth[0].mac utilization:histogram:mean 0
scalar LinearNetwork.switch.eth[0].mac utilization:histogram:stddev 0
scalar LinearNetwork.switch.eth[0].mac utilization:histogram:min 0
scalar LinearNetwork.switch.eth[0].mac utilization:histogram:max 0
scalar LinearNetwork.switch.eth[0].mac utilization:histogram:numbins 50
scalar LinearNetwork.switch.eth[0].mac utilization:histogram:rangemin -0.5
scalar LinearNetwork.switch.eth[0].mac utilization:histogram:rangemax 0.5
scalar LinearNetwork.switch.eth[0].mac utilization:histogram:underflows 0
scalar LinearNetwork.switch.eth[0].mac utilization:histogram:overflows 0
scalar LinearNetwork.switch.eth[1].queue queueingTime:histogram:count 9962
scalar LinearNetwork.switch.eth[1].queue queueingTime:histogram:sumweights 9962
scalar LinearNetwork.switch.eth[1].queue queueingTime:histogram:mean 0
scalar LinearNetwork.switch.eth[1].queue queueingTime:histogram:stddev 0
scalar LinearNetwork.switch.eth[1].queue queueingTime:histogram:min 0
scalar LinearNetwork.switch.eth[1].queue queueingTime:histogram:max 0
scalar LinearNetwork.switch.eth[1].queue queueingTime:histogram:numbins 50
scalar LinearNetwork.switch.eth[1].queue queueingTime:histogram:rangemin -0.5
scalar LinearNetwork.switch.eth[1].queue queueingTime:histogram:rangemax 0.5
scalar LinearNetwork.switch.eth[1].queue queueingTime:histogram:underflows 0
scalar LinearNetwork.switch.eth[1].queue queueingTime:histogram:overflows 0
scalar LinearNetwork.switch.eth[1].queue outgoingPacketLengths:histogram:count 9962
scalar LinearNetwork.switch.eth[1].queue outgoingPacketLengths:histogram:sumweights 9962
scalar LinearNetwork.switch.eth[1].queue outgoingPacketLengths:histogram:mean 8144
scalar LinearNetwork.switch.eth[1].queue outgoingPacketLengths:histogram:stddev 0
scalar LinearNetwork.switch.eth[1].queue outgoingPacketLengths:histogram:min 8144
scalar LinearNetwork.switch.eth[1].queue outgoingPacketLengths:histogram:max 8144
scalar LinearNetwork.switch.eth[1].queue outgoingPacketLengths:histogram:numbins 2
scalar LinearNetwork.switch.eth[1].queue outgoingPacketLengths:histogram:rangemin 8143
scalar LinearNetwork.switch.eth[1].queue outgoingPacketLengths:histogram:rangemax 8145
scalar LinearNetwork.switch.eth[1].queue outgoingPacketLengths:histogram:underflows 0
scalar LinearNetwork.switch.eth[1].queue outgoingPacketLengths:histogram:overflows 0
scalar LinearNetwork.switch.eth[1].queue flowQueueingTime:histogram:count 0
scalar LinearNetwork.switch.eth[1].queue flowQueueingTime:histogram:sumweights 0
scalar LinearNetwork.switch.eth[1].queue flowQueueingTime:histogram:mean -nan
scalar LinearNetwork.switch.eth[1].queue flowQueueingTime:histogram:stddev nan
scalar LinearNetwork.switch.eth[1].queue flowQueueingTime:histogram:min nan
scalar LinearNetwork.switch.eth[1].queue flowQueueingTime:histogram:max nan
scalar LinearNetwork.switch.eth[1].queue flowQueueingTime:histogram:numbins 1
scalar LinearNetwork.switch.eth[1].queue flowQueueingTime:histogram:rangemin 0
scalar LinearNetwork.switch.eth[1].queue flowQueueingTime:histogram:rangemax 1
scalar LinearNetwork.switch.eth[1].queue flowQueueingTime:histogram:underflows 0
scalar LinearNetwork.switch.eth[1].queue flowQueueingTime:histogram:overflows 0
scalar LinearNetwork.switch.eth[1].queue incomingPacketLengths:histogram:count 9962
scalar LinearNetwork.switch.eth[1].queue incomingPacketLengths:histogram:sumweights 9962
scalar LinearNetwork.switch.eth[1].queue incomingPacketLengths:histogram:mean 8144
scalar LinearNetwork.switch.eth[1].queue incomingPacketLengths:histogram:stddev 0
scalar LinearNetwork.switch.eth[1].queue incomingPacketLengths:histogram:min 8144
scalar LinearNetwork.switch.eth[1].queue incomingPacketLengths:histogram:max 8144
scalar LinearNetwork.switch.eth[1].queue incomingPacketLengths:histogram:numbins 2
scalar LinearNetwork.switch.eth[1].queue incomingPacketLengths:histogram:rangemin 8143
scalar LinearNetwork.switch.eth[1].queue incomingPacketLengths:histogram:rangemax 8145
scalar LinearNetwork.switch.eth[1].queue incomingPacketLengths:histogram:underflows 0
scalar LinearNetwork.switch.eth[1].queue incomingPacketLengths:histogram:overflows 0
scalar LinearNetwork.switch.eth[1].mac throughput:histogram:count 104
scalar LinearNetwork.switch.eth[1].mac throughput:histogram:sumweights 104
scalar LinearNetwork.switch.eth[1].mac throughput:histogram:mean 8203511.070132127
scalar LinearNetwork.switch.eth[1].mac throughput:histogram:stddev 839042.18707210303
scalar LinearNetwork.switch.eth[1].mac throughput:histogram:min 6372927.0302158343
scalar LinearNetwork.switch.eth[1].mac throughput:histogram:max 10541244.97610506
scalar LinearNetwork.switch.eth[1].mac throughput:histogram:numbins 48
scalar LinearNetwork.switch.eth[1].mac throughput:histogram:rangemin 5800000
scalar LinearNetwork.switch.eth[1].mac throughput:histogram:rangemax 10600000
scalar LinearNetwork.switch.eth[1].mac throughput:histogram:underflows 0
scalar LinearNetwork.switch.eth[1].mac throughput:histogram:overflows 0
scalar LinearNetwork.switch.eth[1].mac utilization:histogram:count 104
scalar LinearNetwork.switch.eth[1].mac utilization:histogram:sumweights 104
scalar LinearNetwork.switch.eth[1].mac utilization:histogram:mean 8.2069036438038232
scalar LinearNetwork.switch.eth[1].mac utilization:histogram:stddev 0.80695073909361681
scalar LinearNetwork.switch.eth[1].mac utilization:histogram:min 6.5663999999999998
scalar LinearNetwork.switch.eth[1].mac utilization:histogram:max 10.541244976105061
scalar LinearNetwork.switch.eth[1].mac utilization:histogram:numbins 61
scalar LinearNetwork.switch.eth[1].mac utilization:histogram:rangemin 5.5
scalar LinearNetwork.switch.eth[1].mac utilization:histogram:rangemax 11.600000000000001
scalar LinearNetwork.switch.eth[1].mac utilization:histogram:underflows 0
scalar LinearNetwork.switch.eth[1].mac utilization:histogram:overflows 0
scalar LinearNetwork.server.eth[0].queue queueingTime:histogram:count 0
scalar LinearNetwork.server.eth[0].queue queueingTime:histogram:sumweights 0
scalar LinearNetwork.server.eth[0].queue queueingTime:histogram:mean -nan
scalar LinearNetwork.server.eth[0].queue queueingTime:histogram:stddev nan
scalar LinearNetwork.server.eth[0].queue queueingTime:histogram:min nan
scalar LinearNetwork.server.eth[0].queue queueingTime:histogram:max nan
scalar LinearNetwork.server.eth[0].queue queueingTime:histogram:numbins 1
scalar LinearNetwork.server.eth[0].queue queueingTime:histogram:rangemin 0
scalar LinearNetwork.server.eth[0].queue queueingTime:histogram:rangemax 1
scalar LinearNetwork.server.eth[0].queue queueingTime:histogram:underflows 0
scalar LinearNetwork.server.eth[0].queue queueingTime:histogram:overflows 0
scalar LinearNetwork.server.eth[0].queue outgoingPacketLengths:histogram:count 0
scalar LinearNetwork.server.eth[0].queue outgoingPacketLengths:histogram:sumweights 0
scalar LinearNetwork.server.eth[0].queue outgoingPacketLengths:histogram:mean -nan
scalar LinearNetwork.server.eth[0].queue outgoingPacketLengths:histogram:stddev nan
scalar LinearNetwork.server.eth[0].queue outgoingPacketLengths:histogram:min nan
scalar LinearNetwork.server.eth[0].queue outgoingPacketLengths:histogram:max nan
scalar LinearNetwork.server.eth[0].queue outgoingPacketLengths:histogram:numbins 1
scalar LinearNetwork.server.eth[0].queue outgoingPacketLengths:histogram:rangemin 0
scalar LinearNetwork.server.eth[0].queue outgoingPacketLengths:histogram:rangemax 1
scalar LinearNetwork.server.eth[0].queue outgoingPacketLengths:histogram:underflows 0
scalar LinearNetwork.server.eth[0].queue outgoingPacketLengths:histogram:overflows 0
scalar LinearNetwork.server.eth[0].queue flowQueueingTime:histogram:count 0
scalar LinearNetwork.server.eth[0].queue flowQueueingTime:histogram:sumweights 0
scalar LinearNetwork.server.eth[0].queue flowQueueingTime:histogram:mean -nan
scalar LinearNetwork.server.eth[0].queue flowQueueingTime:histogram:stddev nan
scalar LinearNetwork.server.eth[0].queue flowQueueingTime:histogram:min nan
scalar LinearNetwork.server.eth[0].queue flowQueueingTime:histogram:max nan
scalar LinearNetwork.server.eth[0].queue flowQueueingTime:histogram:numbins 1
scalar LinearNetwork.server.eth[0].queue flowQueueingTime:histogram:rangemin 0
scalar LinearNetwork.server.eth[0].queue flowQueueingTime:histogram:rangemax 1
scalar LinearNetwork.server.eth[0].queue flowQueueingTime:histogram:underflows 0
scalar LinearNetwork.server.eth[0].queue flowQueueingTime:histogram:overflows 0
scalar LinearNetwork.server.eth[0].queue incomingPacketLengths:histogram:count 0
scalar LinearNetwork.server.eth[0].queue incomingPacketLengths:histogram:sumweights 0
scalar LinearNetwork.server.eth[0].queue incomingPacketLengths:histogram:mean -nan
scalar LinearNetwork.server.eth[0].queue incomingPacketLengths:histogram:stddev nan
scalar LinearNetwork.server.eth[0].queue incomingPacketLengths:histogram:min nan
scalar LinearNetwork.server.eth[0].queue incomingPacketLengths:histogram:max nan
scalar LinearNetwork.server.eth[0].queue incomingPacketLengths:histogram:numbins 1
scalar LinearNetwork.server.eth[0].queue incomingPacketLengths:histogram:rangemin 0
scalar LinearNetwork.server.eth[0].queue incomingPacketLengths:histogram:rangemax 1
scalar LinearNetwork.server.eth[0].queue incomingPacketLengths:histogram:underflows 0
scalar LinearNetwork.server.eth[0].queue incomingPacketLengths:histogram:overflows 0
scalar LinearNetwork.server.eth[0].mac throughput:histogram:count 100
scalar LinearNetwork.server.eth[0].mac throughput:histogram:sumweights 100
scalar LinearNetwork.server.eth[0].mac throughput:histogram:mean 0
scalar LinearNetwork.server.eth[0].mac throughput:histogram:stddev 0
scalar LinearNetwork.server.eth[0].mac throughput:histogram:min 0
scalar LinearNetwork.server.eth[0].mac throughput:histogram:max 0
scalar LinearNetwork.server.eth[0].mac throughput:histogram:numbins 50
scalar LinearNetwork.server.eth[0].mac throughput:histogram:rangemin -0.5
scalar LinearNetwork.server.eth[0].mac throughput:histogram:rangemax 0.5
scalar LinearNetwork.server.eth[0].mac throughput:histogram:underflows 0
scalar LinearNetwork.server.eth[0].mac throughput:histogram:overflows 0
scalar LinearNetwork.server.eth[0].mac utilization:histogram:count 100
scalar LinearNetwork.server.eth[0].mac utilization:histogram:sumweights 100
scalar LinearNetwork.server.eth[0].mac utilization:histogram:mean 0
scalar LinearNetwork.server.eth[0].mac utilization:histogram:stddev 0
scalar LinearNetwork.server.eth[0].mac utilization:histogram:min 0
scalar LinearNetwork.server.eth[0].mac utilization:histogram:max 0
scalar LinearNetwork.server.eth[0].mac utilization:histogram:numbins 50
scalar LinearNetwork.server.eth[0].mac utilization:histogram:rangemin -0.5
scalar LinearNetwork.server.eth[0].mac utilization:histogram:rangemax 0.5
scalar LinearNetwork.server.eth[0].mac utilization:histogram:underflows 0
scalar LinearNetwork.server.eth[0].mac utilization:histogram:overflows 0
scalar LinearNetwork.server.app[0].sink packetLengths:histogram:count 9962
scalar LinearNetwork.server.app[0].sink packetLengths:histogram:sumweights 9962
scalar LinearNetwork.server.app[0].sink packetLengths:histogram:mean 8000
scalar LinearNetwork.server.app[0].sink packetLengths:histogram:stddev 0
scalar LinearNetwork.server.app[0].sink packetLengths:histogram:min 8000
scalar LinearNetwork.server.app[0].sink packetLengths:histogram:max 8000
scalar LinearNetwork.server.app[0].sink packetLengths:histogram:numbins 2
scalar LinearNetwork.server.app[0].sink packetLengths:histogram:rangemin 7999
scalar LinearNetwork.server.app[0].sink packetLengths:histogram:rangemax 8001
scalar LinearNetwork.server.app[0].sink packetLengths:histogram:underflows 0
scalar LinearNetwork.server.app[0].sink packetLengths:histogram:overflows 0
scalar LinearNetwork.server.app[0].sink meanBitLifeTimePerPacket:histogram:count 9962
scalar LinearNetwork.server.app[0].sink meanBitLifeTimePerPacket:histogram:sumweights 9962
scalar LinearNetwork.server.app[0].sink meanBitLifeTimePerPacket:histogram:mean 0.00016809005587233613
scalar LinearNetwork.server.app[0].sink meanBitLifeTimePerPacket:histogram:stddev 1.5437864659189312e-05
scalar LinearNetwork.server.app[0].sink meanBitLifeTimePerPacket:histogram:min 0.00016426
scalar LinearNetwork.server.app[0].sink meanBitLifeTimePerPacket:histogram:max 0.00034641332400000001
scalar LinearNetwork.server.app[0].sink meanBitLifeTimePerPacket:histogram:numbins 50
scalar LinearNetwork.server.app[0].sink meanBitLifeTimePerPacket:histogram:rangemin 0.00014800000000000002
scalar LinearNetwork.server.app[0].sink meanBitLifeTimePerPacket:histogram:rangemax 0.000348
scalar LinearNetwork.server.app[0].sink meanBitLifeTimePerPacket:histogram:underflows 0
scalar LinearNetwork.server.app[0].sink meanBitLifeTimePerPacket:histogram:overflows 0
scalar LinearNetwork.server.app[0].sink packetLifeTime:histogram:count 9962
scalar LinearNetwork.server.app[0].sink packetLifeTime:histogram:sumweights 9962
scalar LinearNetwork.server.app[0].sink packetLifeTime:histogram:mean 0.00016809005587233613
scalar LinearNetwork.server.app[0].sink packetLifeTime:histogram:stddev 1.5437864659189312e-05
scalar LinearNetwork.server.app[0].sink packetLifeTime:histogram:min 0.00016426
scalar LinearNetwork.server.app[0].sink packetLifeTime:histogram:max 0.00034641332400000001
scalar LinearNetwork.server.app[0].sink packetLifeTime:histogram:numbins 50
scalar LinearNetwork.server.app[0].sink packetLifeTime:histogram:rangemin 0.00014800000000000002
scalar LinearNetwork.server.app[0].sink packetLifeTime:histogram:rangemax 0.000348
scalar LinearNetwork.server.app[0].sink packetLifeTime:histogram:underflows 0
scalar LinearNetwork.server.app[0].sink packetLifeTime:histogram:overflows 0
scalar LinearNetwork.server.app[0].sink packetJitter:histogram:count 9962
scalar LinearNetwork.server.app[0].sink packetJitter:histogram:sumweights 9962
scalar LinearNetwork.server.app[0].sink packetJitter:histogram:mean 1.6488656896205581e-08
scalar LinearNetwork.server.app[0].sink packetJitter:histogram:stddev 2.0369249040833641e-05
scalar LinearNetwork.server.app[0].sink packetJitter:histogram:min -0.00018215332400000001
scalar LinearNetwork.server.app[0].sink packetJitter:histogram:max 0.00016426
scalar LinearNetwork.server.app[0].sink packetJitter:histogram:numbins 82
scalar LinearNetwork.server.app[0].sink packetJitter:histogram:rangemin -0.00018500000000000005
scalar LinearNetwork.server.app[0].sink packetJitter:histogram:rangemax 0.00022500000000000008
scalar LinearNetwork.server.app[0].sink packetJitter:histogram:underflows 0
scalar LinearNetwork.server.app[0].sink packetJitter:histogram:overflows 0
scalar LinearNetwork.server.app[0].sink packetDelayDifferenceToMean:histogram:count 9962
scalar LinearNetwork.server.app[0].sink packetDelayDifferenceToMean:histogram:sumweights 9962
scalar LinearNetwork.server.app[0].sink packetDelayDifferenceToMean:histogram:mean -3.3568924622343684e-08
scalar LinearNetwork.server.app[0].sink packetDelayDifferenceToMean:histogram:stddev 1.5433493140214898e-05
scalar LinearNetwork.server.app[0].sink packetDelayDifferenceToMean:histogram:min -0.00017839124079634876
scalar LinearNetwork.server.app[0].sink packetDelayDifferenceToMean:histogram:max 4.1362225869134622e-06
scalar LinearNetwork.server.app[0].sink packetDelayDifferenceToMean:histogram:numbins 50
scalar LinearNetwork.server.app[0].sink packetDelayDifferenceToMean:histogram:rangemin -0.00018000000000000004
scalar LinearNetwork.server.app[0].sink packetDelayDifferenceToMean:histogram:rangemax 1.9999999999999998e-05
scalar LinearNetwork.server.app[0].sink packetDelayDifferenceToMean:histogram:underflows 0
scalar LinearNetwork.server.app[0].sink packetDelayDifferenceToMean:histogram:overflows 0
scalar LinearNetwork.server.app[0].sink packetDelayVariation:histogram:count 9962
scalar LinearNetwork.server.app[0].sink packetDelayVariation:histogram:sumweights 9962
scalar LinearNetwork.server.app[0].sink packetDelayVariation:histogram:mean 1.5299857186535135e-05
scalar LinearNetwork.server.app[0].sink packetDelayVariation:histogram:stddev 1.0681071098131866e-06
scalar LinearNetwork.server.app[0].sink packetDelayVariation:histogram:min 0
scalar LinearNetwork.server.app[0].sink packetDelayVariation:histogram:max 1.6255089771435216e-05
scalar LinearNetwork.server.app[0].sink packetDelayVariation:histogram:numbins 82
scalar LinearNetwork.server.app[0].sink packetDelayVariation:histogram:rangemin 0
scalar LinearNetwork.server.app[0].sink packetDelayVariation:histogram:rangemax 1.6400000000000006e-05
scalar LinearNetwork.server.app[0].sink packetDelayVariation:histogram:underflows 0
scalar LinearNetwork.server.app[0].sink packetDelayVariation:histogram:overflows 0
scalar LinearNetwork.server.app[0].sink droppedPacketLengths:histogram:count 9962
scalar LinearNetwork.server.app[0].sink droppedPacketLengths:histogram:sumweights 9962
scalar LinearNetwork.server.app[0].sink droppedPacketLengths:histogram:mean 8000
scalar LinearNetwork.server.app[0].sink droppedPacketLengths:histogram:stddev 0
scalar LinearNetwork.server.app[0].sink droppedPacketLengths:histogram:min 8000
scalar LinearNetwork.server.app[0].sink droppedPacketLengths:histogram:max 8000
scalar LinearNetwork.server.app[0].sink droppedPacketLengths:histogram:numbins 2
scalar LinearNetwork.server.app[0].sink droppedPacketLengths:histogram:rangemin 7999
scalar LinearNetwork.server.app[0].sink droppedPacketLengths:histogram:rangemax 8001
scalar LinearNetwork.server.app[0].sink droppedPacketLengths:histogram:underflows 0
scalar LinearNetwork.server.app[0].sink droppedPacketLengths:histogram:overflows 0
statistic LinearNetwork.client.eth[0].queue queueingTime:histogram
field count 9962
field mean 3.8300558723147981e-06
field stddev 1.5437864659417875e-05
field min 0
field max 0.00018215332400000001
field sum 0.038155016600000015
field sqrsum 2.5201177188676751e-06
bin	-inf	0
bin	0	9205
bin	4.0000000000000007e-06	26
bin	8.0000000000000013e-06	27
bin	1.2000000000000002e-05	29
bin	1.6000000000000003e-05	35
bin	2.0000000000000005e-05	33
bin	2.4000000000000004e-05	37
bin	2.8000000000000003e-05	28
bin	3.2000000000000005e-05	24
bin	3.6000000000000008e-05	50
bin	4.000000000000001e-05	36
bin	4.4000000000000006e-05	39
bin	4.8000000000000008e-05	41
bin	5.200000000000001e-05	49
bin	5.6000000000000006e-05	37
bin	6.0000000000000008e-05	35
bin	6.4000000000000011e-05	37
bin	6.8000000000000013e-05	37
bin	7.2000000000000015e-05	41
bin	7.6000000000000018e-05	39
bin	8.000000000000002e-05	32
bin	8.4000000000000022e-05	2
bin	8.8000000000000025e-05	5
bin	9.2000000000000014e-05	2
bin	9.6000000000000016e-05	1
bin	0.00010000000000000002	3
bin	0.00010400000000000002	3
bin	0.00010800000000000002	3
bin	0.00011200000000000003	3
bin	0.00011600000000000003	3
bin	0.00012000000000000003	6
bin	0.00012400000000000003	0
bin	0.00012800000000000002	1
bin	0.00013200000000000004	3
bin	0.00013600000000000003	3
bin	0.00014000000000000004	3
bin	0.00014400000000000003	0
bin	0.00014800000000000005	0
bin	0.00015200000000000004	0
bin	0.00015600000000000005	0
bin	0.00016000000000000004	0
bin	0.00016400000000000003	0
bin	0.00016800000000000004	1
bin	0.00017200000000000003	1
bin	0.00017600000000000005	1
bin	0.00018000000000000004	1
bin	0.00018400000000000005	0
statistic LinearNetwork.client.eth[0].queue outgoingPacketLengths:histogram
field count 9962
field mean 8144
field stddev 0
field min 8144
field max 8144
field sum 81130528
field sqrsum 660727020032
bin	-inf	0
bin	8143	0
bin	8144	9962
bin	8145	0
statistic LinearNetwork.client.eth[0].queue flowQueueingTime:histogram
field count 0
field mean -nan
field stddev nan
field min nan
field max nan
field sum 0
field sqrsum 0
bin	-inf	0
bin	0	0
bin	1	0
statistic LinearNetwork.client.eth[0].queue incomingPacketLengths:histogram
field count 9962
field mean 8144
field stddev 0
field min 8144
field max 8144
field sum 81130528
field sqrsum 660727020032
bin	-inf	0
bin	8143	0
bin	8144	9962
bin	8145	0
statistic LinearNetwork.client.eth[0].mac throughput:histogram
field count 104
field mean 8203426.1707326574
field stddev 839375.16448171658
field min 6357334.9103781832
field max 10541244.97610506
field sum 853156321.75619638
field sqrsum 7071373616295910
bin	-inf	0
bin	5800000	0
bin	5900000	0
bin	6000000	0
bin	6100000	0
bin	6200000	0
bin	6300000	1
bin	6400000	1
bin	6500000	0
bin	6600000	2
bin	6700000	1
bin	6800000	0
bin	6900000	3
bin	7000000	1
bin	7100000	2
bin	7200000	4
bin	7300000	6
bin	7400000	0
bin	7500000	4
bin	7600000	2
bin	7700000	5
bin	7800000	4
bin	7900000	4
bin	8000000	6
bin	8100000	4
bin	8200000	6
bin	8300000	11
bin	8400000	4
bin	8500000	6
bin	8600000	3
bin	8700000	4
bin	8800000	2
bin	8900000	2
bin	9000000	2
bin	9100000	0
bin	9200000	3
bin	9300000	1
bin	9400000	1
bin	9500000	1
bin	9600000	2
bin	9700000	3
bin	9800000	0
bin	9900000	0
bin	10000000	0
bin	10100000	2
bin	10200000	0
bin	10300000	0
bin	10400000	0
bin	10500000	1
bin	10600000	0
statistic LinearNetwork.client.eth[0].mac utilization:histogram
field count 104
field mean 8.2068126378252195
field stddev 0.80718884097707544
field min 6.5663999999999998
field max 10.541244976105061
field sum 853.50851433382275
field sqrsum 7071.6945059010286
bin	-inf	0
bin	5.5	0
bin	5.5999999999999996	0
bin	5.7000000000000002	0
bin	5.7999999999999998	0
bin	5.9000000000000004	0
bin	6	0
bin	6.0999999999999996	0
bin	6.2000000000000002	0
bin	6.2999999999999998	0
bin	6.4000000000000004	0
bin	6.5	1
bin	6.5999999999999996	2
bin	6.7000000000000002	1
bin	6.7999999999999998	0
bin	6.9000000000000004	1
bin	7	4
bin	7.0999999999999996	1
bin	7.2000000000000002	4
bin	7.2999999999999998	5
bin	7.4000000000000004	4
bin	7.5	1
bin	7.5999999999999996	2
bin	7.7000000000000002	4
bin	7.8000000000000007	5
bin	7.9000000000000004	5
bin	8	6
bin	8.0999999999999996	5
bin	8.1999999999999993	7
bin	8.3000000000000007	11
bin	8.4000000000000004	5
bin	8.5	3
bin	8.5999999999999996	3
bin	8.6999999999999993	5
bin	8.8000000000000007	1
bin	8.9000000000000004	4
bin	9	1
bin	9.0999999999999996	1
bin	9.1999999999999993	1
bin	9.3000000000000007	2
bin	9.4000000000000004	0
bin	9.5	2
bin	9.6000000000000014	1
bin	9.6999999999999993	3
bin	9.8000000000000007	0
bin	9.9000000000000004	0
bin	10	0
bin	10.100000000000001	2
bin	10.199999999999999	0
bin	10.300000000000001	0
bin	10.4	0
bin	10.5	1
bin	10.600000000000001	0
bin	10.699999999999999	0
bin	10.800000000000001	0
bin	10.9	0
bin	11	0
bin	11.100000000000001	0
bin	11.199999999999999	0
bin	11.300000000000001	0
bin	11.4	0
bin	11.5	0
bin	11.600000000000001	0
statistic LinearNetwork.client.app[0].source packetLengths:histogram
field count 9962
field mean 8000
field stddev 0
field min 8000
field max 8000
field sum 79696000
field sqrsum 637568000000
bin	-inf	0
bin	7999	0
bin	8000	9962
bin	8001	0
statistic LinearNetwork.switch.eth[0].queue queueingTime:histogram
field count 0
field mean -nan
field stddev nan
field min nan
field max nan
field sum 0
field sqrsum 0
bin	-inf	0
bin	0	0
bin	1	0
statistic LinearNetwork.switch.eth[0].queue outgoingPacketLengths:histogram
field count 0
field mean -nan
field stddev nan
field min nan
field max nan
field sum 0
field sqrsum 0
bin	-inf	0
bin	0	0
bin	1	0
statistic LinearNetwork.switch.eth[0].queue flowQueueingTime:histogram
field count 0
field mean -nan
field stddev nan
field min nan
field max nan
field sum 0
field sqrsum 0
bin	-inf	0
bin	0	0
bin	1	0
statistic LinearNetwork.switch.eth[0].queue incomingPacketLengths:histogram
field count 0
field mean -nan
field stddev nan
field min nan
field max nan
field sum 0
field sqrsum 0
bin	-inf	0
bin	0	0
bin	1	0
statistic LinearNetwork.switch.eth[0].mac throughput:histogram
field count 100
field mean 0
field stddev 0
field min 0
field max 0
field sum 0
field sqrsum 0
bin	-inf	0
bin	-0.5	0
bin	-0.47999999999999998	0
bin	-0.46000000000000002	0
bin	-0.44	0
bin	-0.41999999999999998	0
bin	-0.40000000000000002	0
bin	-0.38	0
bin	-0.35999999999999999	0
bin	-0.33999999999999997	0
bin	-0.32000000000000001	0
bin	-0.29999999999999999	0
bin	-0.28000000000000003	0
bin	-0.26000000000000001	0
bin	-0.23999999999999999	0
bin	-0.21999999999999997	0
bin	-0.20000000000000001	0
bin	-0.17999999999999999	0
bin	-0.15999999999999998	0
bin	-0.14000000000000001	0
bin	-0.12	0
bin	-0.099999999999999978	0
bin	-0.080000000000000016	0
bin	-0.059999999999999998	0
bin	-0.03999999999999998	0
bin	-0.020000000000000018	0
bin	0	100
bin	0.020000000000000018	0
bin	0.040000000000000036	0
bin	0.060000000000000053	0
bin	0.07999999999999996	0
bin	0.099999999999999978	0
bin	0.12	0
bin	0.14000000000000001	0
bin	0.16000000000000003	0
bin	0.18000000000000005	0
bin	0.20000000000000007	0
bin	0.21999999999999997	0
bin	0.23999999999999999	0
bin	0.26000000000000001	0
bin	0.28000000000000003	0
bin	0.30000000000000004	0
bin	0.32000000000000006	0
bin	0.33999999999999997	0
bin	0.35999999999999999	0
bin	0.38	0
bin	0.40000000000000002	0
bin	0.42000000000000004	0
bin	0.44000000000000006	0
bin	0.45999999999999996	0
bin	0.47999999999999998	0
bin	0.5	0
statistic LinearNetwork.switch.eth[0].mac utilization:histogram
field count 100
field mean 0
field stddev 0
field min 0
field max 0
field sum 0
field sqrsum 0
bin	-inf	0
bin	-0.5	0
bin	-0.47999999999999998	0
bin	-0.46000000000000002	0
bin	-0.44	0
bin	-0.41999999999999998	0
bin	-0.40000000000000002	0
bin	-0.38	0
bin	-0.35999999999999999	0
bin	-0.33999999999999997	0
bin	-0.32000000000000001	0
bin	-0.29999999999999999	0
bin	-0.28000000000000003	0
bin	-0.26000000000000001	0
bin	-0.23999999999999999	0
bin	-0.21999999999999997	0
bin	-0.20000000000000001	0
bin	-0.17999999999999999	0
bin	-0.15999999999999998	0
bin	-0.14000000000000001	0
bin	-0.12	0
bin	-0.099999999999999978	0
bin	-0.080000000000000016	0
bin	-0.059999999999999998	0
bin	-0.03999999999999998	0
bin	-0.020000000000000018	0
bin	0	100
bin	0.020000000000000018	0
bin	0.040000000000000036	0
bin	0.060000000000000053	0
bin	0.07999999999999996	0
bin	0.099999999999999978	0
bin	0.12	0
bin	0.14000000000000001	0
bin	0.16000000000000003	0
bin	0.18000000000000005	0
bin	0.20000000000000007	0
bin	0.21999999999999997	0
bin	0.23999999999999999	0
bin	0.26000000000000001	0
bin	0.28000000000000003	0
bin	0.30000000000000004	0
bin	0.32000000000000006	0
bin	0.33999999999999997	0
bin	0.35999999999999999	0
bin	0.38	0
bin	0.40000000000000002	0
bin	0.42000000000000004	0
bin	0.44000000000000006	0
bin	0.45999999999999996	0
bin	0.47999999999999998	0
bin	0.5	0
statistic LinearNetwork.switch.eth[1].queue queueingTime:histogram
field count 9962
field mean 0
field stddev 0
field min 0
field max 0
field sum 0
field sqrsum 0
bin	-inf	0
bin	-0.5	0
bin	-0.47999999999999998	0
bin	-0.46000000000000002	0
bin	-0.44	0
bin	-0.41999999999999998	0
bin	-0.40000000000000002	0
bin	-0.38	0
bin	-0.35999999999999999	0
bin	-0.33999999999999997	0
bin	-0.32000000000000001	0
bin	-0.29999999999999999	0
bin	-0.28000000000000003	0
bin	-0.26000000000000001	0
bin	-0.23999999999999999	0
bin	-0.21999999999999997	0
bin	-0.20000000000000001	0
bin	-0.17999999999999999	0
bin	-0.15999999999999998	0
bin	-0.14000000000000001	0
bin	-0.12	0
bin	-0.099999999999999978	0
bin	-0.080000000000000016	0
bin	-0.059999999999999998	0
bin	-0.03999999999999998	0
bin	-0.020000000000000018	0
bin	0	9962
bin	0.020000000000000018	0
bin	0.040000000000000036	0
bin	0.060000000000000053	0
bin	0.07999999999999996	0
bin	0.099999999999999978	0
bin	0.12	0
bin	0.14000000000000001	0
bin	0.16000000000000003	0
bin	0.18000000000000005	0
bin	0.20000000000000007	0
bin	0.21999999999999997	0
bin	0.23999999999999999	0
bin	0.26000000000000001	0
bin	0.28000000000000003	0
bin	0.30000000000000004	0
bin	0.32000000000000006	0
bin	0.33999999999999997	0
bin	0.35999999999999999	0
bin	0.38	0
bin	0.40000000000000002	0
bin	0.42000000000000004	0
bin	0.44000000000000006	0
bin	0.45999999999999996	0
bin	0.47999999999999998	0
bin	0.5	0
statistic LinearNetwork.switch.eth[1].queue outgoingPacketLengths:histogram
field count 9962
field mean 8144
field stddev 0
field min 8144
field max 8144
field sum 81130528
field sqrsum 660727020032
bin	-inf	0
bin	8143	0
bin	8144	9962
bin	8145	0
statistic LinearNetwork.switch.eth[1].queue flowQueueingTime:histogram
field count 0
field mean -nan
field stddev nan
field min nan
field max nan
field sum 0
field sqrsum 0
bin	-inf	0
bin	0	0
bin	1	0
statistic LinearNetwork.switch.eth[1].queue incomingPacketLengths:histogram
field count 9962
field mean 8144
field stddev 0
field min 8144
field max 8144
field sum 81130528
field sqrsum 660727020032
bin	-inf	0
bin	8143	0
bin	8144	9962
bin	8145	0
statistic LinearNetwork.switch.eth[1].mac throughput:histogram
field count 104
field mean 8203511.070132127
field stddev 839042.18707210303
field min 6372927.0302158343
field max 10541244.97610506
field sum 853165151.29374123
field sqrsum 7071460917832891
bin	-inf	0
bin	5800000	0
bin	5900000	0
bin	6000000	0
bin	6100000	0
bin	6200000	0
bin	6300000	1
bin	6400000	1
bin	6500000	0
bin	6600000	2
bin	6700000	1
bin	6800000	0
bin	6900000	3
bin	7000000	1
bin	7100000	2
bin	7200000	4
bin	7300000	6
bin	7400000	0
bin	7500000	4
bin	7600000	2
bin	7700000	5
bin	7800000	4
bin	7900000	4
bin	8000000	6
bin	8100000	4
bin	8200000	6
bin	8300000	11
bin	8400000	4
bin	8500000	6
bin	8600000	3
bin	8700000	4
bin	8800000	2
bin	8900000	2
bin	9000000	2
bin	9100000	0
bin	9200000	3
bin	9300000	1
bin	9400000	1
bin	9500000	1
bin	9600000	2
bin	9700000	3
bin	9800000	0
bin	9900000	0
bin	10000000	0
bin	10100000	2
bin	10200000	0
bin	10300000	0
bin	10400000	0
bin	10500000	1
bin	10600000	0
statistic LinearNetwork.switch.eth[1].mac utilization:histogram
field count 104
field mean 8.2069036438038232
field stddev 0.80695073909361681
field min 6.5663999999999998
field max 10.541244976105061
field sum 853.51797895559753
field sqrsum 7071.8102695611124
bin	-inf	0
bin	5.5	0
bin	5.5999999999999996	0
bin	5.7000000000000002	0
bin	5.7999999999999998	0
bin	5.9000000000000004	0
bin	6	0
bin	6.0999999999999996	0
bin	6.2000000000000002	0
bin	6.2999999999999998	0
bin	6.4000000000000004	0
bin	6.5	1
bin	6.5999999999999996	2
bin	6.7000000000000002	1
bin	6.7999999999999998	0
bin	6.9000000000000004	1
bin	7	4
bin	7.0999999999999996	1
bin	7.2000000000000002	4
bin	7.2999999999999998	5
bin	7.4000000000000004	4
bin	7.5	1
bin	7.5999999999999996	2
bin	7.7000000000000002	4
bin	7.8000000000000007	5
bin	7.9000000000000004	5
bin	8	6
bin	8.0999999999999996	5
bin	8.1999999999999993	7
bin	8.3000000000000007	11
bin	8.4000000000000004	5
bin	8.5	3
bin	8.5999999999999996	3
bin	8.6999999999999993	5
bin	8.8000000000000007	1
bin	8.9000000000000004	4
bin	9	1
bin	9.0999999999999996	1
bin	9.1999999999999993	1
bin	9.3000000000000007	2
bin	9.4000000000000004	0
bin	9.5	2
bin	9.6000000000000014	1
bin	9.6999999999999993	3
bin	9.8000000000000007	0
bin	9.9000000000000004	0
bin	10	0
bin	10.100000000000001	2
bin	10.199999999999999	0
bin	10.300000000000001	0
bin	10.4	0
bin	10.5	1
bin	10.600000000000001	0
bin	10.699999999999999	0
bin	10.800000000000001	0
bin	10.9	0
bin	11	0
bin	11.100000000000001	0
bin	11.199999999999999	0
bin	11.300000000000001	0
bin	11.4	0
bin	11.5	0
bin	11.600000000000001	0
statistic LinearNetwork.server.eth[0].queue queueingTime:histogram
field count 0
field mean -nan
field stddev nan
field min nan
field max nan
field sum 0
field sqrsum 0
bin	-inf	0
bin	0	0
bin	1	0
statistic LinearNetwork.server.eth[0].queue outgoingPacketLengths:histogram
field count 0
field mean -nan
field stddev nan
field min nan
field max nan
field sum 0
field sqrsum 0
bin	-inf	0
bin	0	0
bin	1	0
statistic LinearNetwork.server.eth[0].queue flowQueueingTime:histogram
field count 0
field mean -nan
field stddev nan
field min nan
field max nan
field sum 0
field sqrsum 0
bin	-inf	0
bin	0	0
bin	1	0
statistic LinearNetwork.server.eth[0].queue incomingPacketLengths:histogram
field count 0
field mean -nan
field stddev nan
field min nan
field max nan
field sum 0
field sqrsum 0
bin	-inf	0
bin	0	0
bin	1	0
statistic LinearNetwork.server.eth[0].mac throughput:histogram
field count 100
field mean 0
field stddev 0
field min 0
field max 0
field sum 0
field sqrsum 0
bin	-inf	0
bin	-0.5	0
bin	-0.47999999999999998	0
bin	-0.46000000000000002	0
bin	-0.44	0
bin	-0.41999999999999998	0
bin	-0.40000000000000002	0
bin	-0.38	0
bin	-0.35999999999999999	0
bin	-0.33999999999999997	0
bin	-0.32000000000000001	0
bin	-0.29999999999999999	0
bin	-0.28000000000000003	0
bin	-0.26000000000000001	0
bin	-0.23999999999999999	0
bin	-0.21999999999999997	0
bin	-0.20000000000000001	0
bin	-0.17999999999999999	0
bin	-0.15999999999999998	0
bin	-0.14000000000000001	0
bin	-0.12	0
bin	-0.099999999999999978	0
bin	-0.080000000000000016	0
bin	-0.059999999999999998	0
bin	-0.03999999999999998	0
bin	-0.020000000000000018	0
bin	0	100
bin	0.020000000000000018	0
bin	0.040000000000000036	0
bin	0.060000000000000053	0
bin	0.07999999999999996	0
bin	0.099999999999999978	0
bin	0.12	0
bin	0.14000000000000001	0
bin	0.16000000000000003	0
bin	0.18000000000000005	0
bin	0.20000000000000007	0
bin	0.21999999999999997	0
bin	0.23999999999999999	0
bin	0.26000000000000001	0
bin	0.28000000000000003	0
bin	0.30000000000000004	0
bin	0.32000000000000006	0
bin	0.33999999999999997	0
bin	0.35999999999999999	0
bin	0.38	0
bin	0.40000000000000002	0
bin	0.42000000000000004	0
bin	0.44000000000000006	0
bin	0.45999999999999996	0
bin	0.47999999999999998	0
bin	0.5	0
statistic LinearNetwork.server.eth[0].mac utilization:histogram
field count 100
field mean 0
field stddev 0
field min 0
field max 0
field sum 0
field sqrsum 0
bin	-inf	0
bin	-0.5	0
bin	-0.47999999999999998	0
bin	-0.46000000000000002	0
bin	-0.44	0
bin	-0.41999999999999998	0
bin	-0.40000000000000002	0
bin	-0.38	0
bin	-0.35999999999999999	0
bin	-0.33999999999999997	0
bin	-0.32000000000000001	0
bin	-0.29999999999999999	0
bin	-0.28000000000000003	0
bin	-0.26000000000000001	0
bin	-0.23999999999999999	0
bin	-0.21999999999999997	0
bin	-0.20000000000000001	0
bin	-0.17999999999999999	0
bin	-0.15999999999999998	0
bin	-0.14000000000000001	0
bin	-0.12	0
bin	-0.099999999999999978	0
bin	-0.080000000000000016	0
bin	-0.059999999999999998	0
bin	-0.03999999999999998	0
bin	-0.020000000000000018	0
bin	0	100
bin	0.020000000000000018	0
bin	0.040000000000000036	0
bin	0.060000000000000053	0
bin	0.07999999999999996	0
bin	0.099999999999999978	0
bin	0.12	0
bin	0.14000000000000001	0
bin	0.16000000000000003	0
bin	0.18000000000000005	0
bin	0.20000000000000007	0
bin	0.21999999999999997	0
bin	0.23999999999999999	0
bin	0.26000000000000001	0
bin	0.28000000000000003	0
bin	0.30000000000000004	0
bin	0.32000000000000006	0
bin	0.33999999999999997	0
bin	0.35999999999999999	0
bin	0.38	0
bin	0.40000000000000002	0
bin	0.42000000000000004	0
bin	0.44000000000000006	0
bin	0.45999999999999996	0
bin	0.47999999999999998	0
bin	0.5	0
statistic LinearNetwork.server.app[0].sink packetLengths:histogram
field count 9962
field mean 8000
field stddev 0
field min 8000
field max 8000
field sum 79696000
field sqrsum 637568000000
bin	-inf	0
bin	7999	0
bin	8000	9962
bin	8001	0
statistic LinearNetwork.server.app[0].sink meanBitLifeTimePerPacket:histogram
field count 9962
field mean 0.00016809005587233613
field stddev 1.5437864659189312e-05
field min 0.00016426
field max 0.00034641332400000001
field sum 1.6745131366002126
field sqrsum 0.00028384298856350089
bin	-inf	0
bin	0.00014800000000000002	0
bin	0.00015200000000000001	0
bin	0.00015600000000000002	0
bin	0.00016000000000000001	0
bin	0.00016400000000000003	9204
bin	0.00016800000000000002	22
bin	0.00017200000000000003	30
bin	0.00017600000000000002	30
bin	0.00018000000000000004	33
bin	0.00018400000000000003	35
bin	0.00018800000000000002	35
bin	0.00019200000000000003	31
bin	0.00019600000000000002	20
bin	0.00020000000000000004	52
bin	0.00020400000000000003	36
bin	0.00020800000000000001	40
bin	0.00021200000000000003	40
bin	0.00021600000000000005	48
bin	0.00022000000000000003	38
bin	0.00022400000000000002	33
bin	0.00022800000000000004	40
bin	0.00023200000000000003	38
bin	0.00023600000000000004	41
bin	0.00024000000000000003	35
bin	0.00024400000000000002	36
bin	0.00024800000000000001	2
bin	0.000252	4
bin	0.00025600000000000004	3
bin	0.00026000000000000003	1
bin	0.00026400000000000002	3
bin	0.00026800000000000001	3
bin	0.000272	3
bin	0.00027599999999999999	3
bin	0.00027999999999999998	3
bin	0.00028400000000000002	6
bin	0.00028800000000000001	0
bin	0.000292	1
bin	0.00029599999999999998	3
bin	0.00030000000000000003	2
bin	0.00030400000000000002	4
bin	0.00030800000000000001	0
bin	0.00031199999999999999	0
bin	0.00031600000000000004	0
bin	0.00032000000000000003	0
bin	0.00032400000000000001	0
bin	0.000328	0
bin	0.00033199999999999999	1
bin	0.00033600000000000004	0
bin	0.00034000000000000002	2
bin	0.00034400000000000001	1
bin	0.000348	0
statistic LinearNetwork.server.app[0].sink packetLifeTime:histogram
field count 9962
field mean 0.00016809005587233613
field stddev 1.5437864659189312e-05
field min 0.00016426
field max 0.00034641332400000001
field sum 1.6745131366002126
field sqrsum 0.00028384298856350089
bin	-inf	0
bin	0.00014800000000000002	0
bin	0.00015200000000000001	0
bin	0.00015600000000000002	0
bin	0.00016000000000000001	0
bin	0.00016400000000000003	9204
bin	0.00016800000000000002	22
bin	0.00017200000000000003	30
bin	0.00017600000000000002	30
bin	0.00018000000000000004	33
bin	0.00018400000000000003	35
bin	0.00018800000000000002	35
bin	0.00019200000000000003	31
bin	0.00019600000000000002	20
bin	0.00020000000000000004	52
bin	0.00020400000000000003	36
bin	0.00020800000000000001	40
bin	0.00021200000000000003	40
bin	0.00021600000000000005	48
bin	0.00022000000000000003	38
bin	0.00022400000000000002	33
bin	0.00022800000000000004	40
bin	0.00023200000000000003	38
bin	0.00023600000000000004	41
bin	0.00024000000000000003	35
bin	0.00024400000000000002	36
bin	0.00024800000000000001	2
bin	0.000252	4
bin	0.00025600000000000004	3
bin	0.00026000000000000003	1
bin	0.00026400000000000002	3
bin	0.00026800000000000001	3
bin	0.000272	3
bin	0.00027599999999999999	3
bin	0.00027999999999999998	3
bin	0.00028400000000000002	6
bin	0.00028800000000000001	0
bin	0.000292	1
bin	0.00029599999999999998	3
bin	0.00030000000000000003	2
bin	0.00030400000000000002	4
bin	0.00030800000000000001	0
bin	0.00031199999999999999	0
bin	0.00031600000000000004	0
bin	0.00032000000000000003	0
bin	0.00032400000000000001	0
bin	0.000328	0
bin	0.00033199999999999999	1
bin	0.00033600000000000004	0
bin	0.00034000000000000002	2
bin	0.00034400000000000001	1
bin	0.000348	0
statistic LinearNetwork.server.app[0].sink packetJitter:histogram
field count 9962
field mean 1.6488656896205581e-08
field stddev 2.0369249040833641e-05
field min -0.00018215332400000001
field max 0.00016426
field sum 0.00016426
field sqrsum 4.1328844273487906e-06
bin	-inf	0
bin	-0.00018500000000000005	1
bin	-0.00018000000000000004	1
bin	-0.00017500000000000003	0
bin	-0.00017000000000000004	2
bin	-0.00016500000000000003	0
bin	-0.00016000000000000004	0
bin	-0.00015500000000000003	0
bin	-0.00015000000000000004	0
bin	-0.00014500000000000003	2
bin	-0.00014000000000000004	4
bin	-0.00013500000000000003	3
bin	-0.00013000000000000004	0
bin	-0.00012500000000000003	4
bin	-0.00012000000000000003	2
bin	-0.00011500000000000003	3
bin	-0.00011000000000000003	4
bin	-0.00010500000000000003	2
bin	-0.00010000000000000002	2
bin	-9.5000000000000019e-05	2
bin	-9.0000000000000019e-05	3
bin	-8.500000000000002e-05	30
bin	-8.000000000000002e-05	43
bin	-7.5000000000000021e-05	36
bin	-7.0000000000000021e-05	45
bin	-6.5000000000000008e-05	39
bin	-6.0000000000000008e-05	44
bin	-5.5000000000000009e-05	45
bin	-5.0000000000000009e-05	42
bin	-4.500000000000001e-05	46
bin	-4.000000000000001e-05	57
bin	-3.500000000000001e-05	29
bin	-3.0000000000000011e-05	38
bin	-2.5000000000000011e-05	50
bin	-1.9999999999999998e-05	38
bin	-1.4999999999999999e-05	40
bin	-9.9999999999999991e-06	25
bin	-4.9999999999999996e-06	42
bin	0	8515
bin	5.0000000000000131e-06	30
bin	9.9999999999999991e-06	42
bin	1.5000000000000012e-05	41
bin	1.9999999999999998e-05	45
bin	2.5000000000000011e-05	40
bin	2.9999999999999997e-05	26
bin	3.500000000000001e-05	60
bin	4.0000000000000024e-05	54
bin	4.500000000000001e-05	47
bin	5.0000000000000023e-05	57
bin	5.5000000000000009e-05	50
bin	6.0000000000000022e-05	43
bin	6.5000000000000008e-05	57
bin	7.0000000000000021e-05	48
bin	7.5000000000000007e-05	48
bin	8.000000000000002e-05	34
bin	8.5000000000000033e-05	0
bin	9.0000000000000019e-05	0
bin	9.5000000000000032e-05	0
bin	0.00010000000000000002	0
bin	0.00010500000000000003	0
bin	0.00011000000000000002	0
bin	0.00011500000000000003	0
bin	0.00012000000000000002	0
bin	0.00012500000000000003	0
bin	0.00013000000000000004	0
bin	0.00013500000000000006	0
bin	0.00014000000000000001	0
bin	0.00014500000000000003	0
bin	0.00015000000000000004	0
bin	0.00015500000000000005	0
bin	0.00016000000000000007	1
bin	0.00016500000000000003	0
bin	0.00017000000000000004	0
bin	0.00017500000000000005	0
bin	0.00018000000000000007	0
bin	0.00018500000000000002	0
bin	0.00019000000000000004	0
bin	0.00019500000000000005	0
bin	0.00020000000000000006	0
bin	0.00020500000000000008	0
bin	0.00021000000000000004	0
bin	0.00021500000000000005	0
bin	0.00022000000000000006	0
bin	0.00022500000000000008	0
statistic LinearNetwork.server.app[0].sink packetDelayDifferenceToMean:histogram
field count 9962
field mean -3.3568924622343684e-08
field stddev 1.5433493140214898e-05
field min -0.00017839124079634876
field max 4.1362225869134622e-06
field sum -0.00033441362708778777
field sqrsum 2.3726488152865899e-06
bin	-inf	0
bin	-0.00018000000000000004	1
bin	-0.00017600000000000002	1
bin	-0.00017200000000000003	1
bin	-0.00016800000000000002	1
bin	-0.00016400000000000003	0
bin	-0.00016000000000000001	0
bin	-0.00015600000000000002	0
bin	-0.00015200000000000001	0
bin	-0.00014800000000000002	0
bin	-0.00014400000000000003	0
bin	-0.00014000000000000001	3
bin	-0.00013600000000000003	3
bin	-0.00013200000000000001	3
bin	-0.00012800000000000002	1
bin	-0.00012400000000000003	0
bin	-0.00012000000000000002	6
bin	-0.00011600000000000003	3
bin	-0.00011200000000000003	3
bin	-0.00010800000000000002	3
bin	-0.00010400000000000002	3
bin	-0.00010000000000000002	3
bin	-9.6000000000000016e-05	1
bin	-9.2000000000000014e-05	2
bin	-8.8000000000000011e-05	5
bin	-8.4000000000000009e-05	2
bin	-8.0000000000000007e-05	36
bin	-7.6000000000000018e-05	36
bin	-7.2000000000000015e-05	40
bin	-6.8000000000000013e-05	36
bin	-6.4000000000000011e-05	43
bin	-6.0000000000000008e-05	31
bin	-5.6000000000000006e-05	40
bin	-5.2000000000000004e-05	47
bin	-4.8000000000000008e-05	40
bin	-4.4000000000000006e-05	40
bin	-4.0000000000000003e-05	34
bin	-3.6000000000000008e-05	54
bin	-3.2000000000000005e-05	20
bin	-2.8000000000000003e-05	30
bin	-2.4000000000000001e-05	35
bin	-2.0000000000000005e-05	36
bin	-1.5999999999999996e-05	32
bin	-1.2000000000000007e-05	31
bin	-8.0000000000000047e-06	28
bin	-4.0000000000000024e-06	27
bin	0	7989
bin	4.0000000000000024e-06	1212
bin	8.0000000000000047e-06	0
bin	1.2000000000000007e-05	0
bin	1.6000000000000009e-05	0
bin	1.9999999999999998e-05	0
statistic LinearNetwork.server.app[0].sink packetDelayVariation:histogram
field count 9962
field mean 1.5299857186535135e-05
field stddev 1.0681071098131866e-06
field min 0
field max 1.6255089771435216e-05
field sum 0.15241717729226301
field sqrsum 2.3433250800676415e-06
bin	-inf	0
bin	0	16
bin	2.0000000000000004e-07	0
bin	4.0000000000000009e-07	0
bin	6.0000000000000018e-07	0
bin	8.0000000000000018e-07	0
bin	1.0000000000000002e-06	0
bin	1.2000000000000004e-06	0
bin	1.4000000000000004e-06	0
bin	1.6000000000000004e-06	0
bin	1.8000000000000003e-06	0
bin	2.0000000000000003e-06	0
bin	2.2000000000000005e-06	0
bin	2.4000000000000007e-06	0
bin	2.6000000000000005e-06	0
bin	2.8000000000000007e-06	0
bin	3.0000000000000005e-06	0
bin	3.2000000000000007e-06	0
bin	3.4000000000000009e-06	0
bin	3.6000000000000007e-06	0
bin	3.8000000000000009e-06	0
bin	4.0000000000000007e-06	0
bin	4.2000000000000013e-06	0
bin	4.4000000000000011e-06	4
bin	4.6000000000000009e-06	4
bin	4.8000000000000015e-06	2
bin	5.0000000000000013e-06	2
bin	5.200000000000001e-06	2
bin	5.4000000000000008e-06	1
bin	5.6000000000000014e-06	1
bin	5.8000000000000012e-06	1
bin	6.000000000000001e-06	0
bin	6.2000000000000016e-06	0
bin	6.4000000000000014e-06	0
bin	6.6000000000000012e-06	0
bin	6.8000000000000018e-06	0
bin	7.0000000000000016e-06	0
bin	7.2000000000000014e-06	0
bin	7.400000000000002e-06	0
bin	7.6000000000000018e-06	0
bin	7.8000000000000016e-06	0
bin	8.0000000000000013e-06	3
bin	8.2000000000000011e-06	3
bin	8.4000000000000026e-06	3
bin	8.6000000000000024e-06	3
bin	8.8000000000000021e-06	5
bin	9.0000000000000019e-06	8
bin	9.2000000000000017e-06	11
bin	9.4000000000000015e-06	12
bin	9.600000000000003e-06	11
bin	9.8000000000000027e-06	12
bin	1.0000000000000003e-05	10
bin	1.0200000000000002e-05	5
bin	1.0400000000000002e-05	5
bin	1.0600000000000002e-05	5
bin	1.0800000000000002e-05	4
bin	1.1000000000000003e-05	11
bin	1.1200000000000003e-05	6
bin	1.1400000000000003e-05	0
bin	1.1600000000000002e-05	0
bin	1.1800000000000002e-05	0
bin	1.2000000000000002e-05	1
bin	1.2200000000000003e-05	0
bin	1.2400000000000003e-05	0
bin	1.2600000000000003e-05	0
bin	1.2800000000000003e-05	0
bin	1.3000000000000003e-05	0
bin	1.3200000000000002e-05	13
bin	1.3400000000000002e-05	21
bin	1.3600000000000004e-05	31
bin	1.3800000000000003e-05	48
bin	1.4000000000000003e-05	176
bin	1.4200000000000003e-05	335
bin	1.4400000000000003e-05	298
bin	1.4600000000000003e-05	162
bin	1.4800000000000002e-05	226
bin	1.5000000000000002e-05	387
bin	1.5200000000000004e-05	1492
bin	1.5400000000000002e-05	3864
bin	1.5600000000000003e-05	1264
bin	1.5800000000000005e-05	789
bin	1.6000000000000003e-05	672
bin	1.6200000000000004e-05	33
bin	1.6400000000000006e-05	0
statistic LinearNetwork.server.app[0].sink droppedPacketLengths:histogram
field count 9962
field mean 8000
field stddev 0
field min 8000
field max 8000
field sum 79696000
field sqrsum 637568000000
bin	-inf	0
bin	7999	0
bin	8000	9962
bin	8001	0
scalar LinearNetwork.client.ethernet encapPk:vector(packetBytes):count 9962
scalar LinearNetwork.client.ethernet encapPk:vector(packetBytes):sum 9962000
scalar LinearNetwork.client.ethernet encapPk:vector(packetBytes):sumweights 9962
scalar LinearNetwork.client.ethernet encapPk:vector(packetBytes):mean 1000
scalar LinearNetwork.client.ethernet encapPk:vector(packetBytes):stddev 0
scalar LinearNetwork.client.ethernet encapPk:vector(packetBytes):min 1000
scalar LinearNetwork.client.ethernet encapPk:vector(packetBytes):max 1000
scalar LinearNetwork.client.ethernet encapPk:vector(packetBytes):starttime 0
scalar LinearNetwork.client.ethernet encapPk:vector(packetBytes):endtime 9.9983133176560024
scalar LinearNetwork.client.ethernet decapPk:vector(packetBytes):count 0
scalar LinearNetwork.client.ethernet decapPk:vector(packetBytes):sum 0
scalar LinearNetwork.client.ethernet decapPk:vector(packetBytes):sumweights 0
scalar LinearNetwork.client.ethernet decapPk:vector(packetBytes):mean -nan
scalar LinearNetwork.client.ethernet decapPk:vector(packetBytes):stddev nan
scalar LinearNetwork.client.ethernet decapPk:vector(packetBytes):min inf
scalar LinearNetwork.client.ethernet decapPk:vector(packetBytes):max -inf
scalar LinearNetwork.client.ethernet decapPk:vector(packetBytes):starttime nan
scalar LinearNetwork.client.ethernet decapPk:vector(packetBytes):endtime nan
scalar LinearNetwork.client.ethernet pauseSent:vector:count 0
scalar LinearNetwork.client.ethernet pauseSent:vector:sum 0
scalar LinearNetwork.client.ethernet pauseSent:vector:sumweights 0
scalar LinearNetwork.client.ethernet pauseSent:vector:mean -nan
scalar LinearNetwork.client.ethernet pauseSent:vector:stddev nan
scalar LinearNetwork.client.ethernet pauseSent:vector:min inf
scalar LinearNetwork.client.ethernet pauseSent:vector:max -inf
scalar LinearNetwork.client.ethernet pauseSent:vector:starttime nan
scalar LinearNetwork.client.ethernet pauseSent:vector:endtime nan
scalar LinearNetwork.client.eth[0].queue queueLength:vector:count 10759
scalar LinearNetwork.client.eth[0].queue queueLength:vector:sum 890
scalar LinearNetwork.client.eth[0].queue queueLength:vector:sumweights 10759
scalar LinearNetwork.client.eth[0].queue queueLength:vector:mean 0.082721442513244731
scalar LinearNetwork.client.eth[0].queue queueLength:vector:stddev 0.2940789415884435
scalar LinearNetwork.client.eth[0].queue queueLength:vector:min 0
scalar LinearNetwork.client.eth[0].queue queueLength:vector:max 3
scalar LinearNetwork.client.eth[0].queue queueLength:vector:starttime 0
scalar LinearNetwork.client.eth[0].queue queueLength:vector:endtime 9.9983133176560024
scalar LinearNetwork.client.eth[0].queue queueBitLength:vector:count 10759
scalar LinearNetwork.client.eth[0].queue queueBitLength:vector:sum 7248160
scalar LinearNetwork.client.eth[0].queue queueBitLength:vector:sumweights 10759
scalar LinearNetwork.client.eth[0].queue queueBitLength:vector:mean 673.68342782786499
scalar LinearNetwork.client.eth[0].queue queueBitLength:vector:stddev 2394.9789002962839
scalar LinearNetwork.client.eth[0].queue queueBitLength:vector:min 0
scalar LinearNetwork.client.eth[0].queue queueBitLength:vector:max 24432
scalar LinearNetwork.client.eth[0].queue queueBitLength:vector:starttime 0
scalar LinearNetwork.client.eth[0].queue queueBitLength:vector:endtime 9.9983133176560024
scalar LinearNetwork.client.eth[0].queue queueingTime:vector:count 9962
scalar LinearNetwork.client.eth[0].queue queueingTime:vector:sum 0.038155016600000015
scalar LinearNetwork.client.eth[0].queue queueingTime:vector:sumweights 9962
scalar LinearNetwork.client.eth[0].queue queueingTime:vector:mean 3.8300558723147981e-06
scalar LinearNetwork.client.eth[0].queue queueingTime:vector:stddev 1.5437864659417875e-05
scalar LinearNetwork.client.eth[0].queue queueingTime:vector:min 0
scalar LinearNetwork.client.eth[0].queue queueingTime:vector:max 0.00018215332400000001
scalar LinearNetwork.client.eth[0].queue queueingTime:vector:starttime 0
scalar LinearNetwork.client.eth[0].queue queueingTime:vector:endtime 9.9983133176560024
scalar LinearNetwork.client.eth[0].queue incomingPacketLengths:vector:count 9962
scalar LinearNetwork.client.eth[0].queue incomingPacketLengths:vector:sum 81130528
scalar LinearNetwork.client.eth[0].queue incomingPacketLengths:vector:sumweights 9962
scalar LinearNetwork.client.eth[0].queue incomingPacketLengths:vector:mean 8144
scalar LinearNetwork.client.eth[0].queue incomingPacketLengths:vector:stddev 0
scalar LinearNetwork.client.eth[0].queue incomingPacketLengths:vector:min 8144
scalar LinearNetwork.client.eth[0].queue incomingPacketLengths:vector:max 8144
scalar LinearNetwork.client.eth[0].queue incomingPacketLengths:vector:starttime 0
scalar LinearNetwork.client.eth[0].queue incomingPacketLengths:vector:endtime 9.9983133176560024
scalar LinearNetwork.client.eth[0].queue incomingDataRate:vector:count 104
scalar LinearNetwork.client.eth[0].queue incomingDataRate:vector:sum 846494822.05585444
scalar LinearNetwork.client.eth[0].queue incomingDataRate:vector:sumweights 104
scalar LinearNetwork.client.eth[0].queue incomingDataRate:vector:mean 8139373.2889986001
scalar LinearNetwork.client.eth[0].queue incomingDataRate:vector:stddev 833128.13045765308
scalar LinearNetwork.client.eth[0].queue incomingDataRate:vector:min 6292379.3694389705
scalar LinearNetwork.client.eth[0].queue incomingDataRate:vector:max 10459052.03282159
scalar LinearNetwork.client.eth[0].queue incomingDataRate:vector:starttime 0.099718870741000012
scalar LinearNetwork.client.eth[0].queue incomingDataRate:vector:endtime 10
scalar LinearNetwork.client.eth[0].queue outgoingPacketLengths:vector:count 9962
scalar LinearNetwork.client.eth[0].queue outgoingPacketLengths:vector:sum 81130528
scalar LinearNetwork.client.eth[0].queue outgoingPacketLengths:vector:sumweights 9962
scalar LinearNetwork.client.eth[0].queue outgoingPacketLengths:vector:mean 8144
scalar LinearNetwork.client.eth[0].queue outgoingPacketLengths:vector:stddev 0
scalar LinearNetwork.client.eth[0].queue outgoingPacketLengths:vector:min 8144
scalar LinearNetwork.client.eth[0].queue outgoingPacketLengths:vector:max 8144
scalar LinearNetwork.client.eth[0].queue outgoingPacketLengths:vector:starttime 0
scalar LinearNetwork.client.eth[0].queue outgoingPacketLengths:vector:endtime 9.9983133176560024
scalar LinearNetwork.client.eth[0].queue outgoingDataRate:vector:count 104
scalar LinearNetwork.client.eth[0].queue outgoingDataRate:vector:sum 846495361.88055396
scalar LinearNetwork.client.eth[0].queue outgoingDataRate:vector:sumweights 104
scalar LinearNetwork.client.eth[0].queue outgoingDataRate:vector:mean 8139378.4796207109
scalar LinearNetwork.client.eth[0].queue outgoingDataRate:vector:stddev 833162.05963020341
scalar LinearNetwork.client.eth[0].queue outgoingDataRate:vector:min 6292379.3694389705
scalar LinearNetwork.client.eth[0].queue outgoingDataRate:vector:max 10459052.03282159
scalar LinearNetwork.client.eth[0].queue outgoingDataRate:vector:starttime 0.099718870741000012
scalar LinearNetwork.client.eth[0].queue outgoingDataRate:vector:endtime 10
scalar LinearNetwork.client.eth[0].queue droppedPacketLengthsQueueOverflow:vector:count 0
scalar LinearNetwork.client.eth[0].queue droppedPacketLengthsQueueOverflow:vector:sum 0
[...]
scalar LinearNetwork.server.eth[0].queue flowIncomingDataRate:vector:mean 0
scalar LinearNetwork.server.eth[0].queue flowIncomingDataRate:vector:stddev 0
scalar LinearNetwork.server.eth[0].queue flowIncomingDataRate:vector:min 0
scalar LinearNetwork.server.eth[0].queue flowIncomingDataRate:vector:max 0
scalar LinearNetwork.server.eth[0].queue flowIncomingDataRate:vector:starttime 0.10000000000000001
scalar LinearNetwork.server.eth[0].queue flowIncomingDataRate:vector:endtime 10
scalar LinearNetwork.server.eth[0].queue flowOutgoingDataRate:vector:count 100
scalar LinearNetwork.server.eth[0].queue flowOutgoingDataRate:vector:sum 0
scalar LinearNetwork.server.eth[0].queue flowOutgoingDataRate:vector:sumweights 100
scalar LinearNetwork.server.eth[0].queue flowOutgoingDataRate:vector:mean 0
scalar LinearNetwork.server.eth[0].queue flowOutgoingDataRate:vector:stddev 0
scalar LinearNetwork.server.eth[0].queue flowOutgoingDataRate:vector:min 0
scalar LinearNetwork.server.eth[0].queue flowOutgoingDataRate:vector:max 0
scalar LinearNetwork.server.eth[0].queue flowOutgoingDataRate:vector:starttime 0.10000000000000001
scalar LinearNetwork.server.eth[0].queue flowOutgoingDataRate:vector:endtime 10
scalar LinearNetwork.server.eth[0].mac transmitting:vector:count 2
scalar LinearNetwork.server.eth[0].mac transmitting:vector:sum 0
scalar LinearNetwork.server.eth[0].mac transmitting:vector:sumweights 2
scalar LinearNetwork.server.eth[0].mac transmitting:vector:mean 0
scalar LinearNetwork.server.eth[0].mac transmitting:vector:stddev 0
scalar LinearNetwork.server.eth[0].mac transmitting:vector:min 0
scalar LinearNetwork.server.eth[0].mac transmitting:vector:max 0
scalar LinearNetwork.server.eth[0].mac transmitting:vector:starttime 0
scalar LinearNetwork.server.eth[0].mac transmitting:vector:endtime 0
scalar LinearNetwork.server.eth[0].mac throughput:vector:count 100
scalar LinearNetwork.server.eth[0].mac throughput:vector:sum 0
scalar LinearNetwork.server.eth[0].mac throughput:vector:sumweights 100
scalar LinearNetwork.server.eth[0].mac throughput:vector:mean 0
scalar LinearNetwork.server.eth[0].mac throughput:vector:stddev 0
scalar LinearNetwork.server.eth[0].mac throughput:vector:min 0
scalar LinearNetwork.server.eth[0].mac throughput:vector:max 0
scalar LinearNetwork.server.eth[0].mac throughput:vector:starttime 0.10000000000000001
scalar LinearNetwork.server.eth[0].mac throughput:vector:endtime 10
scalar LinearNetwork.server.eth[0].mac utilization:vector:count 100
scalar LinearNetwork.server.eth[0].mac utilization:vector:sum 0
scalar LinearNetwork.server.eth[0].mac utilization:vector:sumweights 100
scalar LinearNetwork.server.eth[0].mac utilization:vector:mean 0
scalar LinearNetwork.server.eth[0].mac utilization:vector:stddev 0
scalar LinearNetwork.server.eth[0].mac utilization:vector:min 0
scalar LinearNetwork.server.eth[0].mac utilization:vector:max 0
scalar LinearNetwork.server.eth[0].mac utilization:vector:starttime 0.10000000000000001
scalar LinearNetwork.server.eth[0].mac utilization:vector:endtime 10
scalar LinearNetwork.server.eth[0].mac txPk:vector(packetBytes):count 0
scalar LinearNetwork.server.eth[0].mac txPk:vector(packetBytes):sum 0
scalar LinearNetwork.server.eth[0].mac txPk:vector(packetBytes):sumweights 0
scalar LinearNetwork.server.eth[0].mac txPk:vector(packetBytes):mean -nan
scalar LinearNetwork.server.eth[0].mac txPk:vector(packetBytes):stddev nan
scalar LinearNetwork.server.eth[0].mac txPk:vector(packetBytes):min inf
scalar LinearNetwork.server.eth[0].mac txPk:vector(packetBytes):max -inf
scalar LinearNetwork.server.eth[0].mac txPk:vector(packetBytes):starttime nan
scalar LinearNetwork.server.eth[0].mac txPk:vector(packetBytes):endtime nan
scalar LinearNetwork.server.eth[0].mac rxPkOk:vector(packetBytes):count 9962
scalar LinearNetwork.server.eth[0].mac rxPkOk:vector(packetBytes):sum 10141316
scalar LinearNetwork.server.eth[0].mac rxPkOk:vector(packetBytes):sumweights 9962
scalar LinearNetwork.server.eth[0].mac rxPkOk:vector(packetBytes):mean 1018
scalar LinearNetwork.server.eth[0].mac rxPkOk:vector(packetBytes):stddev 0
scalar LinearNetwork.server.eth[0].mac rxPkOk:vector(packetBytes):min 1018
scalar LinearNetwork.server.eth[0].mac rxPkOk:vector(packetBytes):max 1018
scalar LinearNetwork.server.eth[0].mac rxPkOk:vector(packetBytes):starttime 0.00016426000000000003
scalar LinearNetwork.server.eth[0].mac rxPkOk:vector(packetBytes):endtime 9.9984775776560024
scalar LinearNetwork.server.eth[0].mac passedUpPk:vector(packetBytes):count 9962
scalar LinearNetwork.server.eth[0].mac passedUpPk:vector(packetBytes):sum 10141316
scalar LinearNetwork.server.eth[0].mac passedUpPk:vector(packetBytes):sumweights 9962
scalar LinearNetwork.server.eth[0].mac passedUpPk:vector(packetBytes):mean 1018
scalar LinearNetwork.server.eth[0].mac passedUpPk:vector(packetBytes):stddev 0
scalar LinearNetwork.server.eth[0].mac passedUpPk:vector(packetBytes):min 1018
scalar LinearNetwork.server.eth[0].mac passedUpPk:vector(packetBytes):max 1018
scalar LinearNetwork.server.eth[0].mac passedUpPk:vector(packetBytes):starttime 0.00016426000000000003
scalar LinearNetwork.server.eth[0].mac passedUpPk:vector(packetBytes):endtime 9.9984775776560024
scalar LinearNetwork.server.eth[0].mac txPausePkUnits:vector:count 0
scalar LinearNetwork.server.eth[0].mac txPausePkUnits:vector:sum 0
scalar LinearNetwork.server.eth[0].mac txPausePkUnits:vector:sumweights 0
scalar LinearNetwork.server.eth[0].mac txPausePkUnits:vector:mean -nan
scalar LinearNetwork.server.eth[0].mac txPausePkUnits:vector:stddev nan
scalar LinearNetwork.server.eth[0].mac txPausePkUnits:vector:min inf
scalar LinearNetwork.server.eth[0].mac txPausePkUnits:vector:max -inf
scalar LinearNetwork.server.eth[0].mac txPausePkUnits:vector:starttime nan
scalar LinearNetwork.server.eth[0].mac txPausePkUnits:vector:endtime nan
scalar LinearNetwork.server.eth[0].mac rxPausePkUnits:vector:count 0
scalar LinearNetwork.server.eth[0].mac rxPausePkUnits:vector:sum 0
scalar LinearNetwork.server.eth[0].mac rxPausePkUnits:vector:sumweights 0
scalar LinearNetwork.server.eth[0].mac rxPausePkUnits:vector:mean -nan
scalar LinearNetwork.server.eth[0].mac rxPausePkUnits:vector:stddev nan
scalar LinearNetwork.server.eth[0].mac rxPausePkUnits:vector:min inf
scalar LinearNetwork.server.eth[0].mac rxPausePkUnits:vector:max -inf
scalar LinearNetwork.server.eth[0].mac rxPausePkUnits:vector:starttime nan
scalar LinearNetwork.server.eth[0].mac rxPausePkUnits:vector:endtime nan
scalar LinearNetwork.server.eth[0].mac packetReceivedFromUpper:vector(packetBytes):count 0
scalar LinearNetwork.server.eth[0].mac packetReceivedFromUpper:vector(packetBytes):sum 0
scalar LinearNetwork.server.eth[0].mac packetReceivedFromUpper:vector(packetBytes):sumweights 0
scalar LinearNetwork.server.eth[0].mac packetReceivedFromUpper:vector(packetBytes):mean -nan
scalar LinearNetwork.server.eth[0].mac packetReceivedFromUpper:vector(packetBytes):stddev nan
scalar LinearNetwork.server.eth[0].mac packetReceivedFromUpper:vector(packetBytes):min inf
scalar LinearNetwork.server.eth[0].mac packetReceivedFromUpper:vector(packetBytes):max -inf
scalar LinearNetwork.server.eth[0].mac packetReceivedFromUpper:vector(packetBytes):starttime nan
scalar LinearNetwork.server.eth[0].mac packetReceivedFromUpper:vector(packetBytes):endtime nan
scalar LinearNetwork.server.eth[0].mac packetDropIncorrectlyReceived:vector(packetBytes):count 0
scalar LinearNetwork.server.eth[0].mac packetDropIncorrectlyReceived:vector(packetBytes):sum 0
scalar LinearNetwork.server.eth[0].mac packetDropIncorrectlyReceived:vector(packetBytes):sumweights 0
scalar LinearNetwork.server.eth[0].mac packetDropIncorrectlyReceived:vector(packetBytes):mean -nan
scalar LinearNetwork.server.eth[0].mac packetDropIncorrectlyReceived:vector(packetBytes):stddev nan
scalar LinearNetwork.server.eth[0].mac packetDropIncorrectlyReceived:vector(packetBytes):min inf
scalar LinearNetwork.server.eth[0].mac packetDropIncorrectlyReceived:vector(packetBytes):max -inf
scalar LinearNetwork.server.eth[0].mac packetDropIncorrectlyReceived:vector(packetBytes):starttime nan
scalar LinearNetwork.server.eth[0].mac packetDropIncorrectlyReceived:vector(packetBytes):endtime nan
scalar LinearNetwork.server.eth[0].mac packetDropInterfaceDown:vector(packetBytes):count 0
scalar LinearNetwork.server.eth[0].mac packetDropInterfaceDown:vector(packetBytes):sum 0
scalar LinearNetwork.server.eth[0].mac packetDropInterfaceDown:vector(packetBytes):sumweights 0
scalar LinearNetwork.server.eth[0].mac packetDropInterfaceDown:vector(packetBytes):mean -nan
scalar LinearNetwork.server.eth[0].mac packetDropInterfaceDown:vector(packetBytes):stddev nan
scalar LinearNetwork.server.eth[0].mac packetDropInterfaceDown:vector(packetBytes):min inf
scalar LinearNetwork.server.eth[0].mac packetDropInterfaceDown:vector(packetBytes):max -inf
scalar LinearNetwork.server.eth[0].mac packetDropInterfaceDown:vector(packetBytes):starttime nan
scalar LinearNetwork.server.eth[0].mac packetDropInterfaceDown:vector(packetBytes):endtime nan
scalar LinearNetwork.server.eth[0].mac packetDropNotAddressedToUs:vector(packetBytes):count 0
scalar LinearNetwork.server.eth[0].mac packetDropNotAddressedToUs:vector(packetBytes):sum 0
scalar LinearNetwork.server.eth[0].mac packetDropNotAddressedToUs:vector(packetBytes):sumweights 0
scalar LinearNetwork.server.eth[0].mac packetDropNotAddressedToUs:vector(packetBytes):mean -nan
scalar LinearNetwork.server.eth[0].mac packetDropNotAddressedToUs:vector(packetBytes):stddev nan
scalar LinearNetwork.server.eth[0].mac packetDropNotAddressedToUs:vector(packetBytes):min inf
scalar LinearNetwork.server.eth[0].mac packetDropNotAddressedToUs:vector(packetBytes):max -inf
scalar LinearNetwork.server.eth[0].mac packetDropNotAddressedToUs:vector(packetBytes):starttime nan
scalar LinearNetwork.server.eth[0].mac packetDropNotAddressedToUs:vector(packetBytes):endtime nan
scalar LinearNetwork.server.eth[0] packetDropInterfaceDown:vector(packetBytes):count 0
scalar LinearNetwork.server.eth[0] packetDropInterfaceDown:vector(packetBytes):sum 0
scalar LinearNetwork.server.eth[0] packetDropInterfaceDown:vector(packetBytes):sumweights 0
scalar LinearNetwork.server.eth[0] packetDropInterfaceDown:vector(packetBytes):mean -nan
scalar LinearNetwork.server.eth[0] packetDropInterfaceDown:vector(packetBytes):stddev nan
scalar LinearNetwork.server.eth[0] packetDropInterfaceDown:vector(packetBytes):min inf
scalar LinearNetwork.server.eth[0] packetDropInterfaceDown:vector(packetBytes):max -inf
scalar LinearNetwork.server.eth[0] packetDropInterfaceDown:vector(packetBytes):starttime nan
scalar LinearNetwork.server.eth[0] packetDropInterfaceDown:vector(packetBytes):endtime nan
scalar LinearNetwork.server.eth[0] packetDropNoCarrier:vector(packetBytes):count 0
scalar LinearNetwork.server.eth[0] packetDropNoCarrier:vector(packetBytes):sum 0
scalar LinearNetwork.server.eth[0] packetDropNoCarrier:vector(packetBytes):sumweights 0
scalar LinearNetwork.server.eth[0] packetDropNoCarrier:vector(packetBytes):mean -nan
scalar LinearNetwork.server.eth[0] packetDropNoCarrier:vector(packetBytes):stddev nan
scalar LinearNetwork.server.eth[0] packetDropNoCarrier:vector(packetBytes):min inf
scalar LinearNetwork.server.eth[0] packetDropNoCarrier:vector(packetBytes):max -inf
scalar LinearNetwork.server.eth[0] packetDropNoCarrier:vector(packetBytes):starttime nan
scalar LinearNetwork.server.eth[0] packetDropNoCarrier:vector(packetBytes):endtime nan
scalar LinearNetwork.server.app[0].sink droppedPacketLengths:vector:count 9962
scalar LinearNetwork.server.app[0].sink droppedPacketLengths:vector:sum 79696000
scalar LinearNetwork.server.app[0].sink droppedPacketLengths:vector:sumweights 9962
scalar LinearNetwork.server.app[0].sink droppedPacketLengths:vector:mean 8000
scalar LinearNetwork.server.app[0].sink droppedPacketLengths:vector:stddev 0
scalar LinearNetwork.server.app[0].sink droppedPacketLengths:vector:min 8000
scalar LinearNetwork.server.app[0].sink droppedPacketLengths:vector:max 8000
scalar LinearNetwork.server.app[0].sink droppedPacketLengths:vector:starttime 0.00016426000000000003
scalar LinearNetwork.server.app[0].sink droppedPacketLengths:vector:endtime 9.9984775776560024
scalar LinearNetwork.server.app[0].sink droppedDataRate:vector:count 104
scalar LinearNetwork.server.app[0].sink droppedDataRate:vector:sum 831544987.0329107
scalar LinearNetwork.server.app[0].sink droppedDataRate:vector:sumweights 104
scalar LinearNetwork.server.app[0].sink droppedDataRate:vector:mean 7995624.8753164494
scalar LinearNetwork.server.app[0].sink droppedDataRate:vector:stddev 817779.71232035768
scalar LinearNetwork.server.app[0].sink droppedDataRate:vector:min 6211439.1285111597
scalar LinearNetwork.server.app[0].sink droppedDataRate:vector:max 10274117.910433782
scalar LinearNetwork.server.app[0].sink droppedDataRate:vector:starttime 0.099883130741000012
scalar LinearNetwork.server.app[0].sink droppedDataRate:vector:endtime 10
scalar LinearNetwork.server.app[0].sink packetLengths:vector:count 9962
scalar LinearNetwork.server.app[0].sink packetLengths:vector:sum 79696000
scalar LinearNetwork.server.app[0].sink packetLengths:vector:sumweights 9962
scalar LinearNetwork.server.app[0].sink packetLengths:vector:mean 8000
scalar LinearNetwork.server.app[0].sink packetLengths:vector:stddev 0
scalar LinearNetwork.server.app[0].sink packetLengths:vector:min 8000
scalar LinearNetwork.server.app[0].sink packetLengths:vector:max 8000
scalar LinearNetwork.server.app[0].sink packetLengths:vector:starttime 0.00016426000000000003
scalar LinearNetwork.server.app[0].sink packetLengths:vector:endtime 9.9984775776560024
scalar LinearNetwork.server.app[0].sink dataRate:vector:count 104
scalar LinearNetwork.server.app[0].sink dataRate:vector:sum 831544987.0329107
scalar LinearNetwork.server.app[0].sink dataRate:vector:sumweights 104
scalar LinearNetwork.server.app[0].sink dataRate:vector:mean 7995624.8753164494
scalar LinearNetwork.server.app[0].sink dataRate:vector:stddev 817779.71232035768
scalar LinearNetwork.server.app[0].sink dataRate:vector:min 6211439.1285111597
scalar LinearNetwork.server.app[0].sink dataRate:vector:max 10274117.910433782
scalar LinearNetwork.server.app[0].sink dataRate:vector:starttime 0.099883130741000012
scalar LinearNetwork.server.app[0].sink dataRate:vector:endtime 10
scalar LinearNetwork.server.app[0].sink meanBitLifeTimePerPacket:vector:count 9962
scalar LinearNetwork.server.app[0].sink meanBitLifeTimePerPacket:vector:sum 1.6745131366002126
scalar LinearNetwork.server.app[0].sink meanBitLifeTimePerPacket:vector:sumweights 9962
scalar LinearNetwork.server.app[0].sink meanBitLifeTimePerPacket:vector:mean 0.00016809005587233613
scalar LinearNetwork.server.app[0].sink meanBitLifeTimePerPacket:vector:stddev 1.5437864659189312e-05
scalar LinearNetwork.server.app[0].sink meanBitLifeTimePerPacket:vector:min 0.00016426
scalar LinearNetwork.server.app[0].sink meanBitLifeTimePerPacket:vector:max 0.00034641332400000001
scalar LinearNetwork.server.app[0].sink meanBitLifeTimePerPacket:vector:starttime 0.00016426000000000003
scalar LinearNetwork.server.app[0].sink meanBitLifeTimePerPacket:vector:endtime 9.9984775776560024
scalar LinearNetwork.server.app[0].sink packetLifeTime:vector:count 9962
scalar LinearNetwork.server.app[0].sink packetLifeTime:vector:sum 1.6745131366002126
scalar LinearNetwork.server.app[0].sink packetLifeTime:vector:sumweights 9962
scalar LinearNetwork.server.app[0].sink packetLifeTime:vector:mean 0.00016809005587233613
scalar LinearNetwork.server.app[0].sink packetLifeTime:vector:stddev 1.5437864659189312e-05
scalar LinearNetwork.server.app[0].sink packetLifeTime:vector:min 0.00016426
scalar LinearNetwork.server.app[0].sink packetLifeTime:vector:max 0.00034641332400000001
scalar LinearNetwork.server.app[0].sink packetLifeTime:vector:starttime 0.00016426000000000003
scalar LinearNetwork.server.app[0].sink packetLifeTime:vector:endtime 9.9984775776560024
scalar LinearNetwork.server.app[0].sink packetJitter:vector:count 9962
scalar LinearNetwork.server.app[0].sink packetJitter:vector:sum 0.00016426
scalar LinearNetwork.server.app[0].sink packetJitter:vector:sumweights 9962
scalar LinearNetwork.server.app[0].sink packetJitter:vector:mean 1.6488656896205581e-08
scalar LinearNetwork.server.app[0].sink packetJitter:vector:stddev 2.0369249040833641e-05
scalar LinearNetwork.server.app[0].sink packetJitter:vector:min -0.00018215332400000001
scalar LinearNetwork.server.app[0].sink packetJitter:vector:max 0.00016426
scalar LinearNetwork.server.app[0].sink packetJitter:vector:starttime 0.00016426000000000003
scalar LinearNetwork.server.app[0].sink packetJitter:vector:endtime 9.9984775776560024
scalar LinearNetwork.server.app[0].sink packetDelayDifferenceToMean:vector:count 9962
scalar LinearNetwork.server.app[0].sink packetDelayDifferenceToMean:vector:sum -0.00033441362708778777
scalar LinearNetwork.server.app[0].sink packetDelayDifferenceToMean:vector:sumweights 9962
scalar LinearNetwork.server.app[0].sink packetDelayDifferenceToMean:vector:mean -3.3568924622343684e-08
scalar LinearNetwork.server.app[0].sink packetDelayDifferenceToMean:vector:stddev 1.5433493140214898e-05
scalar LinearNetwork.server.app[0].sink packetDelayDifferenceToMean:vector:min -0.00017839124079634876
scalar LinearNetwork.server.app[0].sink packetDelayDifferenceToMean:vector:max 4.1362225869134622e-06
scalar LinearNetwork.server.app[0].sink packetDelayDifferenceToMean:vector:starttime 0.00016426000000000003
scalar LinearNetwork.server.app[0].sink packetDelayDifferenceToMean:vector:endtime 9.9984775776560024
scalar LinearNetwork.server.app[0].sink packetDelayVariation:vector:count 9962
scalar LinearNetwork.server.app[0].sink packetDelayVariation:vector:sum 0.15241717729226301
scalar LinearNetwork.server.app[0].sink packetDelayVariation:vector:sumweights 9962
scalar LinearNetwork.server.app[0].sink packetDelayVariation:vector:mean 1.5299857186535135e-05
scalar LinearNetwork.server.app[0].sink packetDelayVariation:vector:stddev 1.0681071098131866e-06
scalar LinearNetwork.server.app[0].sink packetDelayVariation:vector:min 0
scalar LinearNetwork.server.app[0].sink packetDelayVariation:vector:max 1.6255089771435216e-05
scalar LinearNetwork.server.app[0].sink packetDelayVariation:vector:starttime 0.00016426000000000003
scalar LinearNetwork.server.app[0].sink packetDelayVariation:vector:endtime 9.9984775776560024
scalar LinearNetwork.server.app[0].io packetSent:vector(packetBytes):count 0
scalar LinearNetwork.server.app[0].io packetSent:vector(packetBytes):sum 0
scalar LinearNetwork.server.app[0].io packetSent:vector(packetBytes):sumweights 0
scalar LinearNetwork.server.app[0].io packetSent:vector(packetBytes):mean -nan
scalar LinearNetwork.server.app[0].io packetSent:vector(packetBytes):stddev nan
scalar LinearNetwork.server.app[0].io packetSent:vector(packetBytes):min inf
scalar LinearNetwork.server.app[0].io packetSent:vector(packetBytes):max -inf
scalar LinearNetwork.server.app[0].io packetSent:vector(packetBytes):starttime nan
scalar LinearNetwork.server.app[0].io packetSent:vector(packetBytes):endtime nan
scalar LinearNetwork.server.app[0].io packetReceived:vector(packetBytes):count 9962
scalar LinearNetwork.server.app[0].io packetReceived:vector(packetBytes):sum 9962000
scalar LinearNetwork.server.app[0].io packetReceived:vector(packetBytes):sumweights 9962
scalar LinearNetwork.server.app[0].io packetReceived:vector(packetBytes):mean 1000
scalar LinearNetwork.server.app[0].io packetReceived:vector(packetBytes):stddev 0
scalar LinearNetwork.server.app[0].io packetReceived:vector(packetBytes):min 1000
scalar LinearNetwork.server.app[0].io packetReceived:vector(packetBytes):max 1000
scalar LinearNetwork.server.app[0].io packetReceived:vector(packetBytes):starttime 0.00016426000000000003
scalar LinearNetwork.server.app[0].io packetReceived:vector(packetBytes):endtime 9.9984775776560024

