version 3
run AlwaysUp-0-20240311-16:53:41-224556
attr configname AlwaysUp
attr datetime 20240311-16:53:41
attr datetimef 20240311-165341
attr experiment AlwaysUp
attr inifile omnetpp.ini
attr iterationvars ""
attr iterationvarsd ""
attr iterationvarsf ""
attr measurement ""
attr network SimpleTest
attr processid 224556
attr repetition 0
attr replication #0
attr resultdir results
attr runnumber 0
attr seedset 0
config **.param-recording false
config **.vector-recording false
config image-path /home/levy/workspace/inet/images
config output-scalar-file results/omnetpp.ini-AlwaysUp-#0.sca
config sim-time-limit 500s
config sim-time-limit 500s
config **.scenarioManager.script "xml(\"<empty/>\")"
config network SimpleTest
config **.ospf.ospfConfig "xmldoc(\"ASConfig.xml\")"
config **.H*.numApps 2
config **.app[0].typename UdpBasicApp
config **.app[0].destPort 1234
config **.app[0].messageLength "32 bytes"
config **.app[0].sendInterval 0.1s
config **.app[0].startTime 4s
config **.H2.app[0].destAddresses "\"H1\""
config **.H1.app[0].destAddresses "\"H2\""
config **.app[1].typename UdpEchoApp
config **.app[1].localPort 1234
config **.arp.cacheTimeout 1s

scalar SimpleTest.H1.ethernet pauseSent:count 0
attr recordingmode count
attr title "pause sent, count"
scalar SimpleTest.H1.ethernet pauseSent:sum 0
attr recordingmode sum
attr title "pause sent, sum"
scalar SimpleTest.H1.ethernet decapPk:count 10676
attr interpolationmode none
attr recordingmode count
attr source decapPk
attr title "packets decapsulated, count"
scalar SimpleTest.H1.ethernet decapPk:sum(packetBytes) 630876
attr interpolationmode none
attr recordingmode sum(packetBytes)
attr source decapPk
attr title "packets decapsulated, sum(packetBytes)"
scalar SimpleTest.H1.ethernet encapPk:count 10629
attr interpolationmode none
attr recordingmode count
attr source encapPk
attr title "packets encapsulated, count"
scalar SimpleTest.H1.ethernet encapPk:sum(packetBytes) 615084
attr interpolationmode none
attr recordingmode sum(packetBytes)
attr source encapPk
attr title "packets encapsulated, sum(packetBytes)"
scalar SimpleTest.H1.lo[0].lo rcvdPkFromHl:count 0
attr interpolationmode none
attr recordingmode count
attr source packetReceivedFromUpper
attr title "packets received from higher layer, count"
scalar SimpleTest.H1.lo[0].lo rcvdPkFromHl:sum(packetBytes) 0
attr interpolationmode none
attr recordingmode sum(packetBytes)
attr source packetReceivedFromUpper
attr title "packets received from higher layer, sum(packetBytes)"
scalar SimpleTest.H1.lo[0].lo passedUpPk:count 0
attr interpolationmode none
attr recordingmode count
attr source packetSentToUpper
attr title "packets passed to higher layer, count"
scalar SimpleTest.H1.lo[0].lo passedUpPk:sum(packetBytes) 0
attr interpolationmode none
attr recordingmode sum(packetBytes)
attr source packetSentToUpper
attr title "packets passed to higher layer, sum(packetBytes)"
scalar SimpleTest.H1.lo[0] packetDropInterfaceDown:count 0
attr interpolationmode none
attr recordingmode count
attr source packetDropReasonIsInterfaceDown(packetDropped)
attr title "packet drops: interface down, count"
scalar SimpleTest.H1.lo[0] packetDropInterfaceDown:sum(packetBytes) 0
attr interpolationmode none
attr recordingmode sum(packetBytes)
attr source packetDropReasonIsInterfaceDown(packetDropped)
attr title "packet drops: interface down, sum(packetBytes)"
scalar SimpleTest.H1.lo[0] packetDropNoCarrier:count 0
attr interpolationmode none
attr recordingmode count
attr source packetDropReasonIsNoCarrier(packetDropped)
attr title "packet drops: no carrier, count"
scalar SimpleTest.H1.lo[0] packetDropNoCarrier:sum(packetBytes) 0
attr interpolationmode none
attr recordingmode sum(packetBytes)
attr source packetDropReasonIsNoCarrier(packetDropped)
attr title "packet drops: no carrier, sum(packetBytes)"
scalar SimpleTest.H1.eth[0].queue queueLength:last 0
attr autoWarmupFilter false
attr interpolationmode sample-hold
attr recordingmode last
attr source "warmup(atomic(constant0(packetPushEnded) + count(packetPushStarted) - count(packetPulled) - count(packetRemoved) - count(packetDropped)))"
attr title "queue length, last"
attr unit pk
scalar SimpleTest.H1.eth[0].queue queueLength:max 20
attr autoWarmupFilter false
attr interpolationmode sample-hold
attr recordingmode max
attr source "warmup(atomic(constant0(packetPushEnded) + count(packetPushStarted) - count(packetPulled) - count(packetRemoved) - count(packetDropped)))"
attr title "queue length, max"
attr unit pk
scalar SimpleTest.H1.eth[0].queue queueLength:timeavg 8.74188e-06
attr autoWarmupFilter false
attr interpolationmode sample-hold
attr recordingmode timeavg
attr source "warmup(atomic(constant0(packetPushEnded) + count(packetPushStarted) - count(packetPulled) - count(packetRemoved) - count(packetDropped)))"
attr title "queue length, timeavg"
attr unit pk
scalar SimpleTest.H1.eth[0].queue queueBitLength:last 0
attr autoWarmupFilter false
attr interpolationmode sample-hold
attr recordingmode last
attr source "warmup(atomic(constant0(packetPushEnded) + sum(packetLength(packetPushStarted)) - sum(packetLength(packetPulled)) - sum(packetLength(packetRemoved)) - sum(packetLength(packetDropped))))"
attr title "queue bit length, last"
attr unit b
scalar SimpleTest.H1.eth[0].queue queueBitLength:max 12480
attr autoWarmupFilter false
attr interpolationmode sample-hold
attr recordingmode max
attr source "warmup(atomic(constant0(packetPushEnded) + sum(packetLength(packetPushStarted)) - sum(packetLength(packetPulled)) - sum(packetLength(packetRemoved)) - sum(packetLength(packetDropped))))"
attr title "queue bit length, max"
attr unit b
scalar SimpleTest.H1.eth[0].queue queueBitLength:timeavg 0.00545493312
attr autoWarmupFilter false
attr interpolationmode sample-hold
attr recordingmode timeavg
attr source "warmup(atomic(constant0(packetPushEnded) + sum(packetLength(packetPushStarted)) - sum(packetLength(packetPulled)) - sum(packetLength(packetRemoved)) - sum(packetLength(packetDropped))))"
attr title "queue bit length, timeavg"
attr unit b
statistic SimpleTest.H1.eth[0].queue queueingTime:histogram
field count 10629
field mean 4.1122777307367e-07
field stddev 7.0490154427838e-06
field min 0
field max 0.0001568
field sum 0.00437094
field sqrsum 5.298880916e-07
attr interpolationmode none
attr recordingmode histogram
attr source queueingTime(packetPulled)
attr title "queueing times"
attr unit s
bin	-inf	0
bin	0	10588
bin	2e-06	0
bin	4e-06	0
bin	6e-06	1
bin	8e-06	0
bin	1e-05	0
bin	1.2e-05	0
bin	1.4e-05	1
bin	1.6e-05	0
bin	1.8e-05	0
bin	2e-05	0
bin	2.2e-05	1
bin	2.4e-05	0
bin	2.6e-05	0
bin	2.8e-05	0
bin	3e-05	1
bin	3.2e-05	0
bin	3.4e-05	0
bin	3.6e-05	0
bin	3.8e-05	1
bin	4e-05	0
bin	4.2e-05	0
bin	4.4e-05	0
bin	4.6e-05	1
bin	4.8e-05	0
bin	5e-05	0
bin	5.2e-05	0
bin	5.4e-05	1
bin	5.6e-05	0
bin	5.8e-05	0
bin	6e-05	0
bin	6.2e-05	1
bin	6.4e-05	0
bin	6.6e-05	0
bin	6.8e-05	0
bin	7e-05	1
bin	7.2e-05	0
bin	7.4e-05	0
bin	7.6e-05	0
bin	7.8e-05	1
bin	8e-05	0
bin	8.2e-05	0
bin	8.4e-05	0
bin	8.6e-05	1
bin	8.8e-05	0
bin	9e-05	0
bin	9.2e-05	0
bin	9.4e-05	1
bin	9.6e-05	0
bin	9.8e-05	0
bin	0.0001	1
bin	0.000102	0
bin	0.000104	0
bin	0.000106	0
bin	0.000108	1
bin	0.00011	0
bin	0.000112	0
bin	0.000114	0
bin	0.000116	1
bin	0.000118	0
bin	0.00012	0
bin	0.000122	0
bin	0.000124	1
bin	0.000126	0
bin	0.000128	21
bin	0.00013	0
bin	0.000132	1
bin	0.000134	0
bin	0.000136	0
bin	0.000138	0
bin	0.00014	1
bin	0.000142	0
bin	0.000144	0
bin	0.000146	0
bin	0.000148	1
bin	0.00015	0
bin	0.000152	0
bin	0.000154	0
bin	0.000156	1
bin	0.000158	0
bin	0.00016	0
bin	0.000162	0
bin	0.000164	0
bin	0.000166	0
bin	0.000168	0
bin	0.00017	0
bin	0.000172	0
bin	0.000174	0
bin	0.000176	0
bin	0.000178	0
bin	0.00018	0
bin	0.000182	0
bin	0.000184	0
bin	0.000186	0
bin	0.000188	0
bin	0.00019	0
bin	0.000192	0
bin	0.000194	0
bin	0.000196	0
scalar SimpleTest.H1.eth[0].queue outgoingPackets:count 10629
attr recordingmode count
attr source packetPulled
attr title "outgoing packets, count"
attr unit pk
scalar SimpleTest.H1.eth[0].queue outgoingPacketLengths:sum 6451248
attr interpolationmode none
attr recordingmode sum
attr source packetLength(packetPulled)
attr title "outgoing packet lengths, sum"
attr unit b
statistic SimpleTest.H1.eth[0].queue outgoingPacketLengths:histogram
field count 10629
field mean 606.94778436353
field stddev 63.835511490993
field min 368
field max 624
field sum 6451248
field sqrsum 3958879488
attr interpolationmode none
attr recordingmode histogram
attr source packetLength(packetPulled)
attr title "outgoing packet lengths"
attr unit b
bin	-inf	0
bin	300	0
bin	305	0
bin	310	0
bin	315	0
bin	320	0
bin	325	0
bin	330	0
bin	335	0
bin	340	0
bin	345	0
bin	350	0
bin	355	0
bin	360	0
bin	365	708
bin	370	0
bin	375	0
bin	380	0
bin	385	0
bin	390	0
bin	395	0
bin	400	0
bin	405	0
bin	410	0
bin	415	0
bin	420	0
bin	425	0
bin	430	0
bin	435	0
bin	440	0
bin	445	0
bin	450	0
bin	455	0
bin	460	0
bin	465	0
bin	470	0
bin	475	0
bin	480	0
bin	485	0
bin	490	0
bin	495	0
bin	500	0
bin	505	0
bin	510	0
bin	515	0
bin	520	0
bin	525	0
bin	530	0
bin	535	0
bin	540	0
bin	545	0
bin	550	0
bin	555	0
bin	560	0
bin	565	0
bin	570	0
bin	575	0
bin	580	0
bin	585	0
bin	590	0
bin	595	0
bin	600	0
bin	605	0
bin	610	0
bin	615	0
bin	620	9921
bin	625	0
bin	630	0
bin	635	0
bin	640	0
bin	645	0
bin	650	0
bin	655	0
bin	660	0
bin	665	0
bin	670	0
bin	675	0
bin	680	0
bin	685	0
bin	690	0
statistic SimpleTest.H1.eth[0].queue flowQueueingTime:histogram
field count 0
field mean -nan
field stddev nan
field min nan
field max nan
field sum 0
field sqrsum 0
attr interpolationmode none
attr recordingmode histogram
attr source queueingTime(demuxFlow(packetPulled))
attr title "flow queueing times"
attr unit s
bin	-inf	0
bin	0	0
bin	1	0
scalar SimpleTest.H1.eth[0].queue incomingPackets:count 10629
attr recordingmode count
attr source packetPushStarted
attr title "incoming packets, count"
attr unit pk
scalar SimpleTest.H1.eth[0].queue incomingPacketLengths:sum 6451248
attr interpolationmode none
attr recordingmode sum
attr source packetLength(packetPushStarted)
attr title "incoming packet lengths, sum"
attr unit b
statistic SimpleTest.H1.eth[0].queue incomingPacketLengths:histogram
field count 10629
field mean 606.94778436353
field stddev 63.835511490993
field min 368
field max 624
field sum 6451248
field sqrsum 3958879488
attr interpolationmode none
attr recordingmode histogram
attr source packetLength(packetPushStarted)
attr title "incoming packet lengths"
attr unit b
bin	-inf	0
bin	300	0
bin	305	0
bin	310	0
bin	315	0
bin	320	0
bin	325	0
bin	330	0
bin	335	0
bin	340	0
bin	345	0
bin	350	0
bin	355	0
bin	360	0
bin	365	708
bin	370	0
bin	375	0
bin	380	0
bin	385	0
bin	390	0
bin	395	0
bin	400	0
bin	405	0
bin	410	0
bin	415	0
bin	420	0
bin	425	0
bin	430	0
bin	435	0
bin	440	0
bin	445	0
bin	450	0
bin	455	0
bin	460	0
bin	465	0
bin	470	0
bin	475	0
bin	480	0
bin	485	0
bin	490	0
bin	495	0
bin	500	0
bin	505	0
bin	510	0
bin	515	0
bin	520	0
bin	525	0
bin	530	0
bin	535	0
bin	540	0
bin	545	0
bin	550	0
bin	555	0
bin	560	0
bin	565	0
bin	570	0
bin	575	0
bin	580	0
bin	585	0
bin	590	0
bin	595	0
bin	600	0
bin	605	0
bin	610	0
bin	615	0
bin	620	9921
bin	625	0
bin	630	0
bin	635	0
bin	640	0
bin	645	0
bin	650	0
bin	655	0
bin	660	0
bin	665	0
bin	670	0
bin	675	0
bin	680	0
bin	685	0
bin	690	0
scalar SimpleTest.H1.eth[0].queue droppedPacketsQueueOverflow:count 0
attr interpolationmode none
attr recordingmode count
attr source packetDropReasonIsQueueOverflow(packetDropped)
attr title "dropped packets: queue overflow, count"
attr unit pk
scalar SimpleTest.H1.eth[0].queue droppedPacketLengthsQueueOverflow:sum 0
attr interpolationmode none
attr recordingmode sum
attr source packetLength(packetDropReasonIsQueueOverflow(packetDropped))
attr title "dropped packet lengths: queue overflow, sum"
attr unit b
scalar SimpleTest.H1.eth[0].mac "simulated time" 500
scalar SimpleTest.H1.eth[0].mac full-duplex 1
scalar SimpleTest.H1.eth[0].mac "frames/sec sent" 21.256
scalar SimpleTest.H1.eth[0].mac "frames/sec rcvd" 21.352
scalar SimpleTest.H1.eth[0].mac "bits/sec sent" 13105.152
scalar SimpleTest.H1.eth[0].mac "bits/sec rcvd" 13168.704
scalar SimpleTest.H1.eth[0].mac "rx channel idle (%)" 99.985464768
scalar SimpleTest.H1.eth[0].mac "rx channel utilization (%)" 0.014535232
scalar SimpleTest.H1.eth[0].mac rxPausePkUnits:count 0
attr interpolationmode none
attr recordingmode count
attr title "pause units received, count"
scalar SimpleTest.H1.eth[0].mac rxPausePkUnits:sum 0
attr interpolationmode none
attr recordingmode sum
attr title "pause units received, sum"
scalar SimpleTest.H1.eth[0].mac txPausePkUnits:count 0
attr interpolationmode none
attr recordingmode count
attr title "pause units sent, count"
scalar SimpleTest.H1.eth[0].mac txPausePkUnits:sum 0
attr interpolationmode none
attr recordingmode sum
attr title "pause units sent, sum"
scalar SimpleTest.H1.eth[0].mac rxPkOk:count 10676
attr interpolationmode none
attr recordingmode count
attr source rxPkOk
attr title "packets received OK, count"
scalar SimpleTest.H1.eth[0].mac rxPkOk:sum(packetBytes) 823044
attr interpolationmode none
attr recordingmode sum(packetBytes)
attr source rxPkOk
attr title "packets received OK, sum(packetBytes)"
statistic SimpleTest.H1.eth[0].mac throughput:histogram
field count 5000
field mean 14465.536
field stddev 5031.2660593867
field min 0
field max 294720
field sum 72327680
field sqrsum 1172801536000
attr interpolationmode linear
attr recordingmode histogram
attr source throughput(transmissionEnded)
attr title throughput
attr unit bps
bin	-inf	0
bin	0	58
bin	5000	2
bin	10000	4469
bin	15000	235
bin	20000	0
bin	25000	235
bin	30000	0
bin	35000	0
bin	40000	0
bin	45000	0
bin	50000	0
bin	55000	0
bin	60000	0
bin	65000	0
bin	70000	0
bin	75000	0
bin	80000	0
bin	85000	0
bin	90000	0
bin	95000	0
bin	100000	0
bin	105000	0
bin	110000	0
bin	115000	0
bin	120000	0
bin	125000	0
bin	130000	0
bin	135000	0
bin	140000	0
bin	145000	0
bin	150000	0
bin	155000	0
bin	160000	0
bin	165000	0
bin	170000	0
bin	175000	0
bin	180000	0
bin	185000	0
bin	190000	0
bin	195000	0
bin	200000	0
bin	205000	0
bin	210000	0
bin	215000	0
bin	220000	0
bin	225000	0
bin	230000	0
bin	235000	0
bin	240000	0
bin	245000	0
bin	250000	0
bin	255000	0
bin	260000	0
bin	265000	0
bin	270000	0
bin	275000	0
bin	280000	0
bin	285000	0
bin	290000	1
bin	295000	0
bin	300000	0
bin	305000	0
bin	310000	0
bin	315000	0
bin	320000	0
bin	325000	0
bin	330000	0
bin	335000	0
bin	340000	0
bin	345000	0
bin	350000	0
bin	355000	0
bin	360000	0
bin	365000	0
bin	370000	0
statistic SimpleTest.H1.eth[0].mac utilization:histogram
field count 5000
field mean 0.014465536
field stddev 0.0050312660593846
field min 0
field max 0.29472
field sum 72.327679999999
field sqrsum 1.1728015359999
attr interpolationmode linear
attr recordingmode histogram
attr source "100 * utilization(count(transmissionStarted) - count(transmissionEnded))"
attr title utilization
attr unit %
bin	-inf	0
bin	0	58
bin	0.005	2
bin	0.01	4469
bin	0.015	235
bin	0.02	0
bin	0.025	235
bin	0.03	0
bin	0.035	0
bin	0.04	0
bin	0.045	0
bin	0.05	0
bin	0.055	0
bin	0.06	0
bin	0.065	0
bin	0.07	0
bin	0.075	0
bin	0.08	0
bin	0.085	0
bin	0.09	0
bin	0.095	0
bin	0.1	0
bin	0.105	0
bin	0.11	0
bin	0.115	0
bin	0.12	0
bin	0.125	0
bin	0.13	0
bin	0.135	0
bin	0.14	0
bin	0.145	0
bin	0.15	0
bin	0.155	0
bin	0.16	0
bin	0.165	0
bin	0.17	0
bin	0.175	0
bin	0.18	0
bin	0.185	0
bin	0.19	0
bin	0.195	0
bin	0.2	0
bin	0.205	0
bin	0.21	0
bin	0.215	0
bin	0.22	0
bin	0.225	0
bin	0.23	0
bin	0.235	0
bin	0.24	0
bin	0.245	0
bin	0.25	0
bin	0.255	0
bin	0.26	0
bin	0.265	0
bin	0.27	0
bin	0.275	0
bin	0.28	0
bin	0.285	0
bin	0.29	1
bin	0.295	0
bin	0.3	0
bin	0.305	0
bin	0.31	0
bin	0.315	0
bin	0.32	0
bin	0.325	0
bin	0.33	0
bin	0.335	0
bin	0.34	0
bin	0.345	0
bin	0.35	0
bin	0.355	0
bin	0.36	0
bin	0.365	0
bin	0.37	0
scalar SimpleTest.H1.eth[0].mac txPk:count 10628
attr interpolationmode none
attr recordingmode count
attr source packetSentToLower
attr title "packets transmitted, count"
scalar SimpleTest.H1.eth[0].mac txPk:sum(packetBytes) 819072
attr interpolationmode none
attr recordingmode sum(packetBytes)
attr source packetSentToLower
attr title "packets transmitted, sum(packetBytes)"
scalar SimpleTest.H1.eth[0].mac packetReceivedFromUpper:count 10629
attr interpolationmode none
attr recordingmode count
attr source packetReceivedFromUpper
attr title "packet bytes from higher layer, count"
scalar SimpleTest.H1.eth[0].mac packetReceivedFromUpper:sum(packetBytes) 806406
attr interpolationmode none
attr recordingmode sum(packetBytes)
attr source packetReceivedFromUpper
attr title "packet bytes from higher layer, sum(packetBytes)"
scalar SimpleTest.H1.eth[0].mac passedUpPk:count 10676
attr interpolationmode none
attr recordingmode count
attr source packetSentToUpper
attr title "packets passed to higher layer, count"
scalar SimpleTest.H1.eth[0].mac passedUpPk:sum(packetBytes) 823044
attr interpolationmode none
attr recordingmode sum(packetBytes)
attr source packetSentToUpper
attr title "packets passed to higher layer, sum(packetBytes)"
scalar SimpleTest.H1.eth[0].mac packetDropIncorrectlyReceived:count 0
attr interpolationmode none
attr recordingmode count
attr source packetDropReasonIsIncorrectlyReceived(packetDropped)
attr title "packet drop: incorrectly received, count"
scalar SimpleTest.H1.eth[0].mac packetDropIncorrectlyReceived:sum(packetBytes) 0
attr interpolationmode none
attr recordingmode sum(packetBytes)
attr source packetDropReasonIsIncorrectlyReceived(packetDropped)
attr title "packet drop: incorrectly received, sum(packetBytes)"
scalar SimpleTest.H1.eth[0].mac packetDropInterfaceDown:count 0
attr interpolationmode none
attr recordingmode count
attr source packetDropReasonIsInterfaceDown(packetDropped)
attr title "packet drop: interface down, count"
scalar SimpleTest.H1.eth[0].mac packetDropInterfaceDown:sum(packetBytes) 0
attr interpolationmode none
attr recordingmode sum(packetBytes)
attr source packetDropReasonIsInterfaceDown(packetDropped)
attr title "packet drop: interface down, sum(packetBytes)"
scalar SimpleTest.H1.eth[0].mac packetDropNotAddressedToUs:count 0
attr interpolationmode none
attr recordingmode count
attr source packetDropReasonIsNotAddressedToUs(packetDropped)
attr title "packet drop: not addressed to us, count"
scalar SimpleTest.H1.eth[0].mac packetDropNotAddressedToUs:sum(packetBytes) 0
attr interpolationmode none
attr recordingmode sum(packetBytes)
attr source packetDropReasonIsNotAddressedToUs(packetDropped)
attr title "packet drop: not addressed to us, sum(packetBytes)"
scalar SimpleTest.H1.eth[0] packetDropInterfaceDown:count 0
attr interpolationmode none
attr recordingmode count
attr source packetDropReasonIsInterfaceDown(packetDropped)
attr title "packet drops: interface down, count"
scalar SimpleTest.H1.eth[0] packetDropInterfaceDown:sum(packetBytes) 0
attr interpolationmode none
attr recordingmode sum(packetBytes)
attr source packetDropReasonIsInterfaceDown(packetDropped)
attr title "packet drops: interface down, sum(packetBytes)"
scalar SimpleTest.H1.eth[0] packetDropNoCarrier:count 0
attr interpolationmode none
attr recordingmode count
attr source packetDropReasonIsNoCarrier(packetDropped)
attr title "packet drops: no carrier, count"
scalar SimpleTest.H1.eth[0] packetDropNoCarrier:sum(packetBytes) 0
attr interpolationmode none
attr recordingmode sum(packetBytes)
attr source packetDropReasonIsNoCarrier(packetDropped)
attr title "packet drops: no carrier, sum(packetBytes)"
scalar SimpleTest.H1.ipv4.ip packetDropAddressResolutionFailed:count 0
attr interpolationmode none
attr recordingmode count
attr source packetDropReasonIsAddressResolutionFailed(packetDropped)
attr title "packet drop: address resolution failed, count"
scalar SimpleTest.H1.ipv4.ip packetDropAddressResolutionFailed:sum(packetBytes) 0
attr interpolationmode none
attr recordingmode sum(packetBytes)
attr source packetDropReasonIsAddressResolutionFailed(packetDropped)
attr title "packet drop: address resolution failed, sum(packetBytes)"
scalar SimpleTest.H1.ipv4.ip packetDropHopLimitReached:count 0
attr interpolationmode none
attr recordingmode count
attr source packetDropReasonIsHopLimitReached(packetDropped)
attr title "packet drop: hop limit reached, count"
scalar SimpleTest.H1.ipv4.ip packetDropHopLimitReached:sum(packetBytes) 0
attr interpolationmode none
attr recordingmode sum(packetBytes)
attr source packetDropReasonIsHopLimitReached(packetDropped)
attr title "packet drop: hop limit reached, sum(packetBytes)"
scalar SimpleTest.H1.ipv4.ip packetDropForwardingDisabled:count 0
attr interpolationmode none
attr recordingmode count
attr source packetDropReasonIsForwardingDisabled(packetDropped)
attr title "packet drop: forwarding disabled, count"
scalar SimpleTest.H1.ipv4.ip packetDropForwardingDisabled:sum(packetBytes) 0
attr interpolationmode none
attr recordingmode sum(packetBytes)
attr source packetDropReasonIsForwardingDisabled(packetDropped)
attr title "packet drop: forwarding disabled, sum(packetBytes)"
scalar SimpleTest.H1.ipv4.ip packetDropLifetimeExpired:count 0
attr interpolationmode none
attr recordingmode count
attr source packetDropReasonIsLifetimeExpired(packetDropped)
attr title "packet drop: lifetime expired, count"
scalar SimpleTest.H1.ipv4.ip packetDropLifetimeExpired:sum(packetBytes) 0
attr interpolationmode none
attr recordingmode sum(packetBytes)
attr source packetDropReasonIsLifetimeExpired(packetDropped)
attr title "packet drop: lifetime expired, sum(packetBytes)"
scalar SimpleTest.H1.ipv4.ip packetDropNoInterfaceFound:count 0
attr interpolationmode none
attr recordingmode count
attr source packetDropReasonIsNoInterfaceFound(packetDropped)
attr title "packet drop: no interface found, count"
scalar SimpleTest.H1.ipv4.ip packetDropNoInterfaceFound:sum(packetBytes) 0
attr interpolationmode none
attr recordingmode sum(packetBytes)
attr source packetDropReasonIsNoInterfaceFound(packetDropped)
attr title "packet drop: no interface found, sum(packetBytes)"
scalar SimpleTest.H1.ipv4.ip packetDropNoRouteFound:count 0
attr interpolationmode none
attr recordingmode count
attr source packetDropReasonIsNoRouteFound(packetDropped)
attr title "packet drop: no route found, count"
scalar SimpleTest.H1.ipv4.ip packetDropNoRouteFound:sum(packetBytes) 0
attr interpolationmode none
attr recordingmode sum(packetBytes)
attr source packetDropReasonIsNoRouteFound(packetDropped)
attr title "packet drop: no route found, sum(packetBytes)"
scalar SimpleTest.H1.ipv4.ip packetDropUndefined:count 0
attr interpolationmode none
attr recordingmode count
attr source packetDropReasonIsUndefined(packetDropped)
attr title "packet drop: undefined, count"
scalar SimpleTest.H1.ipv4.ip packetDropUndefined:sum(packetBytes) 0
attr interpolationmode none
attr recordingmode sum(packetBytes)
attr source packetDropReasonIsUndefined(packetDropped)
attr title "packet drop: undefined, sum(packetBytes)"
scalar SimpleTest.H1.ipv4.arp arpResolutionFailed:count 0
attr recordingmode count
attr title "ARP failed resolutions, count"
scalar SimpleTest.H1.ipv4.arp arpResolutionCompleted:count 706
attr recordingmode count
attr title "ARP completed resolutions, count"
scalar SimpleTest.H1.ipv4.arp arpResolutionInitiated:count 471
attr recordingmode count
attr title "ARP initiated resolutions, count"
scalar SimpleTest.H1.ipv4.arp arpReplySent:count 235
attr recordingmode count
attr source arpReplySent
attr title "ARP replies sent, count"
scalar SimpleTest.H1.ipv4.arp arpReplySent:sum(packetBytes) 6580
attr recordingmode sum(packetBytes)
attr source arpReplySent
attr title "ARP replies sent, sum(packetBytes)"
scalar SimpleTest.H1.ipv4.arp arpRequestSent:count 473
attr recordingmode count
attr source arpRequestSent
attr title "ARP request sent, count"
scalar SimpleTest.H1.ipv4.arp arpRequestSent:sum(packetBytes) 13244
attr recordingmode sum(packetBytes)
attr source arpRequestSent
attr title "ARP request sent, sum(packetBytes)"
scalar SimpleTest.H1.udp packetReceived:count 9920
attr interpolationmode none
attr recordingmode count
attr source packetReceived
attr title "packets received, count"
scalar SimpleTest.H1.udp packetReceived:sum(packetBytes) 396800
attr interpolationmode none
attr recordingmode sum(packetBytes)
attr source packetReceived
attr title "packets received, sum(packetBytes)"
scalar SimpleTest.H1.udp packetSent:count 9921
attr interpolationmode none
attr recordingmode count
attr source packetSent
attr title "packets sent, count"
scalar SimpleTest.H1.udp packetSent:sum(packetBytes) 396840
attr interpolationmode none
attr recordingmode sum(packetBytes)
attr source packetSent
attr title "packets sent, sum(packetBytes)"
scalar SimpleTest.H1.udp passedUpPk:count 9920
attr interpolationmode none
attr recordingmode count
attr source packetSentToUpper
attr title "packets passed up, count"
scalar SimpleTest.H1.udp droppedPkWrongPort:count 0
attr interpolationmode none
attr recordingmode count
attr source packetDropReasonIsNoPortFound(packetDropped)
attr title "packets dropped (wrong port), count"
scalar SimpleTest.H1.udp droppedPkBadChecksum:count 0
attr interpolationmode none
attr recordingmode count
attr source packetDropReasonIsIncorrectlyReceived(packetDropped)
attr title "packets dropped (checksum error), count"
scalar SimpleTest.H1.app[0] "packets sent" 4961
scalar SimpleTest.H1.app[0] "packets received" 4960
scalar SimpleTest.H1.app[0] packetReceived:count 4960
attr interpolationmode none
attr recordingmode count
attr source packetReceived
attr title "packets received, count"
scalar SimpleTest.H1.app[0] packetReceived:sum(packetBytes) 158720
attr interpolationmode none
attr recordingmode sum(packetBytes)
attr source packetReceived
attr title "packets received, sum(packetBytes)"
statistic SimpleTest.H1.app[0] rcvdPkLifetime:stats
field count 4960
field mean 0.0043086212701603
field stddev 0.075968441983622
field min 6.98e-05
field max 2.00022298
field sum 21.370761499995
field sqrsum 28.711480033379
attr interpolationmode none
attr recordingmode stats
attr source dataAge(packetReceived)
attr title "received packet lifetime"
attr unit s
scalar SimpleTest.H1.app[0] packetSent:count 4961
attr interpolationmode none
attr recordingmode count
attr source packetSent
attr title "packets sent, count"
scalar SimpleTest.H1.app[0] packetSent:sum(packetBytes) 158752
attr interpolationmode none
attr recordingmode sum(packetBytes)
attr source packetSent
attr title "packets sent, sum(packetBytes)"
scalar SimpleTest.H1.app[1] echoedPk:count 4960
attr interpolationmode none
attr recordingmode count
attr source packetSent
attr title "packets echoed, count"
scalar SimpleTest.H1.app[1] echoedPk:sum(packetBytes) 158720
attr interpolationmode none
attr recordingmode sum(packetBytes)
attr source packetSent
attr title "packets echoed, sum(packetBytes)"
scalar SimpleTest.N1.bridging "processed frames" 0
scalar SimpleTest.N1.bridging "discarded frames" 0
scalar SimpleTest.N1.bridging "number of received BPDUs from STP module" 0
scalar SimpleTest.N1.bridging "number of received frames from network (including BPDUs)" 21304
scalar SimpleTest.N1.bridging "number of dropped frames (including BPDUs)" 0
scalar SimpleTest.N1.bridging "number of delivered BPDUs to the STP module" 0
scalar SimpleTest.N1.bridging "number of dispatched BPDU frames to the network" 0
scalar SimpleTest.N1.bridging "number of dispatched non-BDPU frames to the network" 0
scalar SimpleTest.N1.bridging packetDropped:count 0
attr interpolationmode none
attr recordingmode count
attr title "packets dropped, count"
scalar SimpleTest.N1.bridging packetDropped:sum(packetBytes) 0
attr interpolationmode none
attr recordingmode sum(packetBytes)
attr title "packets dropped, sum(packetBytes)"
scalar SimpleTest.N1.ethernet pauseSent:count 0
attr recordingmode count
attr title "pause sent, count"
scalar SimpleTest.N1.ethernet pauseSent:sum 0
attr recordingmode sum
attr title "pause sent, sum"
scalar SimpleTest.N1.ethernet decapPk:count 21304
attr interpolationmode none
attr recordingmode count
attr source decapPk
attr title "packets decapsulated, count"
scalar SimpleTest.N1.ethernet decapPk:sum(packetBytes) 1258644
attr interpolationmode none
attr recordingmode sum(packetBytes)
attr source decapPk
attr title "packets decapsulated, sum(packetBytes)"
scalar SimpleTest.N1.ethernet encapPk:count 21304
attr interpolationmode none
attr recordingmode count
attr source encapPk
attr title "packets encapsulated, count"
scalar SimpleTest.N1.ethernet encapPk:sum(packetBytes) 1258644
attr interpolationmode none
attr recordingmode sum(packetBytes)
attr source encapPk
attr title "packets encapsulated, sum(packetBytes)"
scalar SimpleTest.N1.eth[0].queue queueLength:last 0
attr autoWarmupFilter false
attr interpolationmode sample-hold
attr recordingmode last
attr source "warmup(atomic(constant0(packetPushEnded) + count(packetPushStarted) - count(packetPulled) - count(packetRemoved) - count(packetDropped)))"
attr title "queue length, last"
attr unit pk
scalar SimpleTest.N1.eth[0].queue queueLength:max 0
attr autoWarmupFilter false
attr interpolationmode sample-hold
attr recordingmode max
attr source "warmup(atomic(constant0(packetPushEnded) + count(packetPushStarted) - count(packetPulled) - count(packetRemoved) - count(packetDropped)))"
attr title "queue length, max"
attr unit pk
scalar SimpleTest.N1.eth[0].queue queueLength:timeavg 0
attr autoWarmupFilter false
attr interpolationmode sample-hold
attr recordingmode timeavg
attr source "warmup(atomic(constant0(packetPushEnded) + count(packetPushStarted) - count(packetPulled) - count(packetRemoved) - count(packetDropped)))"
attr title "queue length, timeavg"
attr unit pk
scalar SimpleTest.N1.eth[0].queue queueBitLength:last 0
attr autoWarmupFilter false
attr interpolationmode sample-hold
attr recordingmode last
attr source "warmup(atomic(constant0(packetPushEnded) + sum(packetLength(packetPushStarted)) - sum(packetLength(packetPulled)) - sum(packetLength(packetRemoved)) - sum(packetLength(packetDropped))))"
attr title "queue bit length, last"
attr unit b
scalar SimpleTest.N1.eth[0].queue queueBitLength:max 0
attr autoWarmupFilter false
attr interpolationmode sample-hold
attr recordingmode max
attr source "warmup(atomic(constant0(packetPushEnded) + sum(packetLength(packetPushStarted)) - sum(packetLength(packetPulled)) - sum(packetLength(packetRemoved)) - sum(packetLength(packetDropped))))"
attr title "queue bit length, max"
attr unit b
scalar SimpleTest.N1.eth[0].queue queueBitLength:timeavg 0
attr autoWarmupFilter false
attr interpolationmode sample-hold
attr recordingmode timeavg
attr source "warmup(atomic(constant0(packetPushEnded) + sum(packetLength(packetPushStarted)) - sum(packetLength(packetPulled)) - sum(packetLength(packetRemoved)) - sum(packetLength(packetDropped))))"
attr title "queue bit length, timeavg"
attr unit b
statistic SimpleTest.N1.eth[0].queue queueingTime:histogram
field count 10676
field mean 0
field stddev 0
field min 0
field max 0
field sum 0
field sqrsum 0
attr interpolationmode none
attr recordingmode histogram
attr source queueingTime(packetPulled)
attr title "queueing times"
attr unit s
bin	-inf	0
bin	-0.5	0
bin	-0.48	0
bin	-0.46	0
bin	-0.44	0
bin	-0.42	0
bin	-0.4	0
bin	-0.38	0
bin	-0.36	0
bin	-0.34	0
bin	-0.32	0
bin	-0.3	0
bin	-0.28	0
bin	-0.26	0
bin	-0.24	0
bin	-0.22	0
bin	-0.2	0
bin	-0.18	0
bin	-0.16	0
bin	-0.14	0
bin	-0.12	0
bin	-0.1	0
bin	-0.08	0
bin	-0.06	0
bin	-0.04	0
bin	-0.02	0
bin	0	10676
bin	0.02	0
bin	0.04	0
bin	0.06	0
bin	0.08	0
bin	0.1	0
bin	0.12	0
bin	0.14	0
bin	0.16	0
bin	0.18	0
bin	0.2	0
bin	0.22	0
bin	0.24	0
bin	0.26	0
bin	0.28	0
bin	0.3	0
bin	0.32	0
bin	0.34	0
bin	0.36	0
bin	0.38	0
bin	0.4	0
bin	0.42	0
bin	0.44	0
bin	0.46	0
bin	0.48	0
bin	0.5	0
scalar SimpleTest.N1.eth[0].queue outgoingPackets:count 10676
attr recordingmode count
attr source packetPulled
attr title "outgoing packets, count"
attr unit pk
scalar SimpleTest.N1.eth[0].queue outgoingPacketLengths:sum 6584352
attr interpolationmode none
attr recordingmode sum
attr source packetLength(packetPulled)
attr title "outgoing packet lengths, sum"
attr unit b
statistic SimpleTest.N1.eth[0].queue outgoingPacketLengths:histogram
field count 10676
field mean 616.74334956913
field stddev 27.959617547078
field min 512
field max 656
field sum 6584352
field sqrsum 4069200384
attr interpolationmode none
attr recordingmode histogram
attr source packetLength(packetPulled)
attr title "outgoing packet lengths"
attr unit b
bin	-inf	0
bin	475	0
bin	480	0
bin	485	0
bin	490	0
bin	495	0
bin	500	0
bin	505	0
bin	510	706
bin	515	0
bin	520	0
bin	525	0
bin	530	0
bin	535	0
bin	540	0
bin	545	0
bin	550	0
bin	555	0
bin	560	0
bin	565	0
bin	570	0
bin	575	0
bin	580	0
bin	585	0
bin	590	0
bin	595	0
bin	600	0
bin	605	0
bin	610	0
bin	615	0
bin	620	9920
bin	625	0
bin	630	0
bin	635	0
bin	640	0
bin	645	0
bin	650	0
bin	655	50
bin	660	0
bin	665	0
bin	670	0
bin	675	0
bin	680	0
bin	685	0
bin	690	0
bin	695	0
statistic SimpleTest.N1.eth[0].queue flowQueueingTime:histogram
field count 0
field mean -nan
field stddev nan
field min nan
field max nan
field sum 0
field sqrsum 0
attr interpolationmode none
attr recordingmode histogram
attr source queueingTime(demuxFlow(packetPulled))
attr title "flow queueing times"
attr unit s
bin	-inf	0
bin	0	0
bin	1	0
scalar SimpleTest.N1.eth[0].queue incomingPackets:count 10676
attr recordingmode count
attr source packetPushStarted
attr title "incoming packets, count"
attr unit pk
scalar SimpleTest.N1.eth[0].queue incomingPacketLengths:sum 6584352
attr interpolationmode none
attr recordingmode sum
attr source packetLength(packetPushStarted)
attr title "incoming packet lengths, sum"
attr unit b
statistic SimpleTest.N1.eth[0].queue incomingPacketLengths:histogram
field count 10676
field mean 616.74334956913
field stddev 27.959617547078
field min 512
field max 656
field sum 6584352
field sqrsum 4069200384
attr interpolationmode none
attr recordingmode histogram
attr source packetLength(packetPushStarted)
attr title "incoming packet lengths"
attr unit b
bin	-inf	0
bin	475	0
bin	480	0
bin	485	0
bin	490	0
bin	495	0
bin	500	0
bin	505	0
bin	510	706
bin	515	0
bin	520	0
bin	525	0
bin	530	0
bin	535	0
bin	540	0
bin	545	0
bin	550	0
bin	555	0
bin	560	0
bin	565	0
bin	570	0
bin	575	0
bin	580	0
bin	585	0
bin	590	0
bin	595	0
bin	600	0
bin	605	0
bin	610	0
bin	615	0
bin	620	9920
bin	625	0
bin	630	0
bin	635	0
bin	640	0
bin	645	0
bin	650	0
bin	655	50
bin	660	0
bin	665	0
bin	670	0
bin	675	0
bin	680	0
bin	685	0
bin	690	0
bin	695	0
scalar SimpleTest.N1.eth[0].queue droppedPacketsQueueOverflow:count 0
attr interpolationmode none
attr recordingmode count
attr source packetDropReasonIsQueueOverflow(packetDropped)
attr title "dropped packets: queue overflow, count"
attr unit pk
scalar SimpleTest.N1.eth[0].queue droppedPacketLengthsQueueOverflow:sum 0
attr interpolationmode none
attr recordingmode sum
attr source packetLength(packetDropReasonIsQueueOverflow(packetDropped))
attr title "dropped packet lengths: queue overflow, sum"
attr unit b
scalar SimpleTest.N1.eth[0].mac "simulated time" 500
scalar SimpleTest.N1.eth[0].mac full-duplex 1
scalar SimpleTest.N1.eth[0].mac "frames/sec sent" 21.352
scalar SimpleTest.N1.eth[0].mac "frames/sec rcvd" 21.256
scalar SimpleTest.N1.eth[0].mac "bits/sec sent" 13168.704
scalar SimpleTest.N1.eth[0].mac "bits/sec rcvd" 13105.152
scalar SimpleTest.N1.eth[0].mac "rx channel idle (%)" 99.985534464
scalar SimpleTest.N1.eth[0].mac "rx channel utilization (%)" 0.014465536
scalar SimpleTest.N1.eth[0].mac rxPausePkUnits:count 0
attr interpolationmode none
attr recordingmode count
attr title "pause units received, count"
scalar SimpleTest.N1.eth[0].mac rxPausePkUnits:sum 0
attr interpolationmode none
attr recordingmode sum
attr title "pause units received, sum"
scalar SimpleTest.N1.eth[0].mac txPausePkUnits:count 0
attr interpolationmode none
attr recordingmode count
attr title "pause units sent, count"
scalar SimpleTest.N1.eth[0].mac txPausePkUnits:sum 0
attr interpolationmode none
attr recordingmode sum
attr title "pause units sent, sum"
scalar SimpleTest.N1.eth[0].mac rxPkOk:count 10628
attr interpolationmode none
attr recordingmode count
attr source rxPkOk
attr title "packets received OK, count"
scalar SimpleTest.N1.eth[0].mac rxPkOk:sum(packetBytes) 819072
attr interpolationmode none
attr recordingmode sum(packetBytes)
attr source rxPkOk
attr title "packets received OK, sum(packetBytes)"
statistic SimpleTest.N1.eth[0].mac throughput:histogram
field count 5000
field mean 14535.232
field stddev 5086.468607861
field min 0
field max 294720
field sum 72676160
field sqrsum 1185699788800
attr interpolationmode linear
attr recordingmode histogram
attr source throughput(transmissionEnded)
attr title throughput
attr unit bps
bin	-inf	0
bin	0	59
bin	5000	1
bin	10000	4425
bin	15000	233
bin	20000	44
bin	25000	234
bin	30000	3
bin	35000	0
bin	40000	0
bin	45000	0
bin	50000	0
bin	55000	0
bin	60000	0
bin	65000	0
bin	70000	0
bin	75000	0
bin	80000	0
bin	85000	0
bin	90000	0
bin	95000	0
bin	100000	0
bin	105000	0
bin	110000	0
bin	115000	0
bin	120000	0
bin	125000	0
bin	130000	0
bin	135000	0
bin	140000	0
bin	145000	0
bin	150000	0
bin	155000	0
bin	160000	0
bin	165000	0
bin	170000	0
bin	175000	0
bin	180000	0
bin	185000	0
bin	190000	0
bin	195000	0
bin	200000	0
bin	205000	0
bin	210000	0
bin	215000	0
bin	220000	0
bin	225000	0
bin	230000	0
bin	235000	0
bin	240000	0
bin	245000	0
bin	250000	0
bin	255000	0
bin	260000	0
bin	265000	0
bin	270000	0
bin	275000	0
bin	280000	0
bin	285000	0
bin	290000	1
bin	295000	0
statistic SimpleTest.N1.eth[0].mac utilization:histogram
field count 5000
field mean 0.014535232
field stddev 0.005086468607859
field min 0
field max 0.29472
field sum 72.67616
field sqrsum 1.1856997887999
attr interpolationmode linear
attr recordingmode histogram
attr source "100 * utilization(count(transmissionStarted) - count(transmissionEnded))"
attr title utilization
attr unit %
bin	-inf	0
bin	0	59
bin	0.005	1
bin	0.01	4425
bin	0.015	233
bin	0.02	44
bin	0.025	234
bin	0.03	3
bin	0.035	0
bin	0.04	0
bin	0.045	0
bin	0.05	0
bin	0.055	0
bin	0.06	0
bin	0.065	0
bin	0.07	0
bin	0.075	0
bin	0.08	0
bin	0.085	0
bin	0.09	0
bin	0.095	0
bin	0.1	0
bin	0.105	0
bin	0.11	0
bin	0.115	0
bin	0.12	0
bin	0.125	0
bin	0.13	0
bin	0.135	0
bin	0.14	0
bin	0.145	0
bin	0.15	0
bin	0.155	0
bin	0.16	0
bin	0.165	0
bin	0.17	0
bin	0.175	0
bin	0.18	0
bin	0.185	0
bin	0.19	0
bin	0.195	0
bin	0.2	0
bin	0.205	0
bin	0.21	0
bin	0.215	0
bin	0.22	0
bin	0.225	0
bin	0.23	0
bin	0.235	0
bin	0.24	0
bin	0.245	0
bin	0.25	0
bin	0.255	0
bin	0.26	0
bin	0.265	0
bin	0.27	0
bin	0.275	0
bin	0.28	0
bin	0.285	0
bin	0.29	1
bin	0.295	0
scalar SimpleTest.N1.eth[0].mac txPk:count 10676
attr interpolationmode none
attr recordingmode count
attr source packetSentToLower
attr title "packets transmitted, count"
scalar SimpleTest.N1.eth[0].mac txPk:sum(packetBytes) 823044
attr interpolationmode none
attr recordingmode sum(packetBytes)
attr source packetSentToLower
attr title "packets transmitted, sum(packetBytes)"
scalar SimpleTest.N1.eth[0].mac packetReceivedFromUpper:count 10676
attr interpolationmode none
attr recordingmode count
attr source packetReceivedFromUpper
attr title "packet bytes from higher layer, count"
scalar SimpleTest.N1.eth[0].mac packetReceivedFromUpper:sum(packetBytes) 823044
attr interpolationmode none
attr recordingmode sum(packetBytes)
attr source packetReceivedFromUpper
attr title "packet bytes from higher layer, sum(packetBytes)"
scalar SimpleTest.N1.eth[0].mac passedUpPk:count 10628
attr interpolationmode none
attr recordingmode count
attr source packetSentToUpper
attr title "packets passed to higher layer, count"
scalar SimpleTest.N1.eth[0].mac passedUpPk:sum(packetBytes) 819072
attr interpolationmode none
attr recordingmode sum(packetBytes)
attr source packetSentToUpper
attr title "packets passed to higher layer, sum(packetBytes)"
scalar SimpleTest.N1.eth[0].mac packetDropIncorrectlyReceived:count 0
attr interpolationmode none
attr recordingmode count
attr source packetDropReasonIsIncorrectlyReceived(packetDropped)
attr title "packet drop: incorrectly received, count"
scalar SimpleTest.N1.eth[0].mac packetDropIncorrectlyReceived:sum(packetBytes) 0
attr interpolationmode none
attr recordingmode sum(packetBytes)
attr source packetDropReasonIsIncorrectlyReceived(packetDropped)
attr title "packet drop: incorrectly received, sum(packetBytes)"
scalar SimpleTest.N1.eth[0].mac packetDropInterfaceDown:count 0
attr interpolationmode none
attr recordingmode count
attr source packetDropReasonIsInterfaceDown(packetDropped)
attr title "packet drop: interface down, count"
scalar SimpleTest.N1.eth[0].mac packetDropInterfaceDown:sum(packetBytes) 0
attr interpolationmode none
attr recordingmode sum(packetBytes)
attr source packetDropReasonIsInterfaceDown(packetDropped)
attr title "packet drop: interface down, sum(packetBytes)"
scalar SimpleTest.N1.eth[0].mac packetDropNotAddressedToUs:count 0
attr interpolationmode none
attr recordingmode count
attr source packetDropReasonIsNotAddressedToUs(packetDropped)
attr title "packet drop: not addressed to us, count"
scalar SimpleTest.N1.eth[0].mac packetDropNotAddressedToUs:sum(packetBytes) 0
attr interpolationmode none
attr recordingmode sum(packetBytes)
attr source packetDropReasonIsNotAddressedToUs(packetDropped)
attr title "packet drop: not addressed to us, sum(packetBytes)"
scalar SimpleTest.N1.eth[0] packetDropInterfaceDown:count 0
attr interpolationmode none
attr recordingmode count
attr source packetDropReasonIsInterfaceDown(packetDropped)
attr title "packet drops: interface down, count"
scalar SimpleTest.N1.eth[0] packetDropInterfaceDown:sum(packetBytes) 0
attr interpolationmode none
attr recordingmode sum(packetBytes)
attr source packetDropReasonIsInterfaceDown(packetDropped)
attr title "packet drops: interface down, sum(packetBytes)"
scalar SimpleTest.N1.eth[0] packetDropNoCarrier:count 0
attr interpolationmode none
attr recordingmode count
attr source packetDropReasonIsNoCarrier(packetDropped)
attr title "packet drops: no carrier, count"
scalar SimpleTest.N1.eth[0] packetDropNoCarrier:sum(packetBytes) 0
attr interpolationmode none
attr recordingmode sum(packetBytes)
attr source packetDropReasonIsNoCarrier(packetDropped)
attr title "packet drops: no carrier, sum(packetBytes)"
scalar SimpleTest.N1.eth[1].queue queueLength:last 0
attr autoWarmupFilter false
attr interpolationmode sample-hold
attr recordingmode last
attr source "warmup(atomic(constant0(packetPushEnded) + count(packetPushStarted) - count(packetPulled) - count(packetRemoved) - count(packetDropped)))"
attr title "queue length, last"
attr unit pk
scalar SimpleTest.N1.eth[1].queue queueLength:max 0
attr autoWarmupFilter false
attr interpolationmode sample-hold
attr recordingmode max
attr source "warmup(atomic(constant0(packetPushEnded) + count(packetPushStarted) - count(packetPulled) - count(packetRemoved) - count(packetDropped)))"
attr title "queue length, max"
attr unit pk
scalar SimpleTest.N1.eth[1].queue queueLength:timeavg 0
attr autoWarmupFilter false
attr interpolationmode sample-hold
attr recordingmode timeavg
attr source "warmup(atomic(constant0(packetPushEnded) + count(packetPushStarted) - count(packetPulled) - count(packetRemoved) - count(packetDropped)))"
attr title "queue length, timeavg"
attr unit pk
scalar SimpleTest.N1.eth[1].queue queueBitLength:last 0
attr autoWarmupFilter false
attr interpolationmode sample-hold
attr recordingmode last
attr source "warmup(atomic(constant0(packetPushEnded) + sum(packetLength(packetPushStarted)) - sum(packetLength(packetPulled)) - sum(packetLength(packetRemoved)) - sum(packetLength(packetDropped))))"
attr title "queue bit length, last"
attr unit b
scalar SimpleTest.N1.eth[1].queue queueBitLength:max 0
attr autoWarmupFilter false
attr interpolationmode sample-hold
attr recordingmode max
attr source "warmup(atomic(constant0(packetPushEnded) + sum(packetLength(packetPushStarted)) - sum(packetLength(packetPulled)) - sum(packetLength(packetRemoved)) - sum(packetLength(packetDropped))))"
attr title "queue bit length, max"
attr unit b
scalar SimpleTest.N1.eth[1].queue queueBitLength:timeavg 0
attr autoWarmupFilter false
attr interpolationmode sample-hold
attr recordingmode timeavg
attr source "warmup(atomic(constant0(packetPushEnded) + sum(packetLength(packetPushStarted)) - sum(packetLength(packetPulled)) - sum(packetLength(packetRemoved)) - sum(packetLength(packetDropped))))"
attr title "queue bit length, timeavg"
attr unit b
statistic SimpleTest.N1.eth[1].queue queueingTime:histogram
field count 10628
field mean 0
field stddev 0
field min 0
field max 0
field sum 0
field sqrsum 0
attr interpolationmode none
attr recordingmode histogram
attr source queueingTime(packetPulled)
attr title "queueing times"
attr unit s
bin	-inf	0
bin	-0.5	0
bin	-0.48	0
bin	-0.46	0
bin	-0.44	0
bin	-0.42	0
bin	-0.4	0
bin	-0.38	0
bin	-0.36	0
bin	-0.34	0
bin	-0.32	0
bin	-0.3	0
bin	-0.28	0
bin	-0.26	0
bin	-0.24	0
bin	-0.22	0
bin	-0.2	0
bin	-0.18	0
bin	-0.16	0
bin	-0.14	0
bin	-0.12	0
bin	-0.1	0
bin	-0.08	0
bin	-0.06	0
bin	-0.04	0
bin	-0.02	0
bin	0	10628
bin	0.02	0
bin	0.04	0
bin	0.06	0
bin	0.08	0
bin	0.1	0
bin	0.12	0
bin	0.14	0
bin	0.16	0
bin	0.18	0
bin	0.2	0
bin	0.22	0
bin	0.24	0
bin	0.26	0
bin	0.28	0
bin	0.3	0
bin	0.32	0
bin	0.34	0
bin	0.36	0
bin	0.38	0
bin	0.4	0
bin	0.42	0
bin	0.44	0
bin	0.46	0
bin	0.48	0
bin	0.5	0
scalar SimpleTest.N1.eth[1].queue outgoingPackets:count 10628
attr recordingmode count
attr source packetPulled
attr title "outgoing packets, count"
attr unit pk
scalar SimpleTest.N1.eth[1].queue outgoingPacketLengths:sum 6552576
attr interpolationmode none
attr recordingmode sum
attr source packetLength(packetPulled)
attr title "outgoing packet lengths, sum"
attr unit b
statistic SimpleTest.N1.eth[1].queue outgoingPacketLengths:histogram
field count 10628
field mean 616.53895370719
field stddev 27.9292564909
field min 512
field max 624
field sum 6552576
field sqrsum 4048207872
attr interpolationmode none
attr recordingmode histogram
attr source packetLength(packetPulled)
attr title "outgoing packet lengths"
attr unit b
bin	-inf	0
bin	484	0
bin	486	0
bin	488	0
bin	490	0
bin	492	0
bin	494	0
bin	496	0
bin	498	0
bin	500	0
bin	502	0
bin	504	0
bin	506	0
bin	508	0
bin	510	0
bin	512	708
bin	514	0
bin	516	0
bin	518	0
bin	520	0
bin	522	0
bin	524	0
bin	526	0
bin	528	0
bin	530	0
bin	532	0
bin	534	0
bin	536	0
bin	538	0
bin	540	0
bin	542	0
bin	544	0
bin	546	0
bin	548	0
bin	550	0
bin	552	0
bin	554	0
bin	556	0
bin	558	0
bin	560	0
bin	562	0
bin	564	0
bin	566	0
bin	568	0
bin	570	0
bin	572	0
bin	574	0
bin	576	0
bin	578	0
bin	580	0
bin	582	0
bin	584	0
bin	586	0
bin	588	0
bin	590	0
bin	592	0
bin	594	0
bin	596	0
bin	598	0
bin	600	0
bin	602	0
bin	604	0
bin	606	0
bin	608	0
bin	610	0
bin	612	0
bin	614	0
bin	616	0
bin	618	0
bin	620	0
bin	622	0
bin	624	9920
bin	626	0
bin	628	0
bin	630	0
bin	632	0
bin	634	0
bin	636	0
bin	638	0
bin	640	0
bin	642	0
bin	644	0
bin	646	0
bin	648	0
bin	650	0
bin	652	0
statistic SimpleTest.N1.eth[1].queue flowQueueingTime:histogram
field count 0
field mean -nan
field stddev nan
field min nan
field max nan
field sum 0
field sqrsum 0
attr interpolationmode none
attr recordingmode histogram
attr source queueingTime(demuxFlow(packetPulled))
attr title "flow queueing times"
attr unit s
bin	-inf	0
bin	0	0
bin	1	0
scalar SimpleTest.N1.eth[1].queue incomingPackets:count 10628
attr recordingmode count
attr source packetPushStarted
attr title "incoming packets, count"
attr unit pk
scalar SimpleTest.N1.eth[1].queue incomingPacketLengths:sum 6552576
attr interpolationmode none
attr recordingmode sum
attr source packetLength(packetPushStarted)
attr title "incoming packet lengths, sum"
attr unit b
statistic SimpleTest.N1.eth[1].queue incomingPacketLengths:histogram
field count 10628
field mean 616.53895370719
field stddev 27.9292564909
field min 512
field max 624
field sum 6552576
field sqrsum 4048207872
attr interpolationmode none
attr recordingmode histogram
attr source packetLength(packetPushStarted)
attr title "incoming packet lengths"
attr unit b
bin	-inf	0
bin	484	0
bin	486	0
bin	488	0
bin	490	0
bin	492	0
bin	494	0
bin	496	0
bin	498	0
bin	500	0
bin	502	0
bin	504	0
bin	506	0
bin	508	0
bin	510	0
bin	512	708
bin	514	0
bin	516	0
bin	518	0
bin	520	0
bin	522	0
bin	524	0
bin	526	0
bin	528	0
bin	530	0
bin	532	0
bin	534	0
bin	536	0
bin	538	0
bin	540	0
bin	542	0
bin	544	0
bin	546	0
bin	548	0
bin	550	0
bin	552	0
bin	554	0
bin	556	0
bin	558	0
bin	560	0
bin	562	0
bin	564	0
bin	566	0
bin	568	0
bin	570	0
bin	572	0
bin	574	0
bin	576	0
bin	578	0
bin	580	0
bin	582	0
bin	584	0
bin	586	0
bin	588	0
bin	590	0
bin	592	0
bin	594	0
bin	596	0
bin	598	0
bin	600	0
bin	602	0
bin	604	0
bin	606	0
bin	608	0
bin	610	0
bin	612	0
bin	614	0
bin	616	0
bin	618	0
bin	620	0
bin	622	0
bin	624	9920
bin	626	0
bin	628	0
bin	630	0
bin	632	0
bin	634	0
bin	636	0
bin	638	0
bin	640	0
bin	642	0
bin	644	0
bin	646	0
bin	648	0
bin	650	0
bin	652	0
scalar SimpleTest.N1.eth[1].queue droppedPacketsQueueOverflow:count 0
attr interpolationmode none
attr recordingmode count
attr source packetDropReasonIsQueueOverflow(packetDropped)
attr title "dropped packets: queue overflow, count"
attr unit pk
scalar SimpleTest.N1.eth[1].queue droppedPacketLengthsQueueOverflow:sum 0
attr interpolationmode none
attr recordingmode sum
attr source packetLength(packetDropReasonIsQueueOverflow(packetDropped))
attr title "dropped packet lengths: queue overflow, sum"
attr unit b
scalar SimpleTest.N1.eth[1].mac "simulated time" 500
scalar SimpleTest.N1.eth[1].mac full-duplex 1
scalar SimpleTest.N1.eth[1].mac "frames/sec sent" 21.256
scalar SimpleTest.N1.eth[1].mac "frames/sec rcvd" 21.352
scalar SimpleTest.N1.eth[1].mac "bits/sec sent" 13105.152
scalar SimpleTest.N1.eth[1].mac "bits/sec rcvd" 13168.704
scalar SimpleTest.N1.eth[1].mac "rx channel idle (%)" 99.985464768
scalar SimpleTest.N1.eth[1].mac "rx channel utilization (%)" 0.014535232
scalar SimpleTest.N1.eth[1].mac rxPausePkUnits:count 0
attr interpolationmode none
attr recordingmode count
attr title "pause units received, count"
scalar SimpleTest.N1.eth[1].mac rxPausePkUnits:sum 0
attr interpolationmode none
attr recordingmode sum
attr title "pause units received, sum"
scalar SimpleTest.N1.eth[1].mac txPausePkUnits:count 0
attr interpolationmode none
attr recordingmode count
attr title "pause units sent, count"
scalar SimpleTest.N1.eth[1].mac txPausePkUnits:sum 0
attr interpolationmode none
attr recordingmode sum
attr title "pause units sent, sum"
scalar SimpleTest.N1.eth[1].mac rxPkOk:count 10676
attr interpolationmode none
attr recordingmode count
attr source rxPkOk
attr title "packets received OK, count"
scalar SimpleTest.N1.eth[1].mac rxPkOk:sum(packetBytes) 823044
attr interpolationmode none
attr recordingmode sum(packetBytes)
attr source rxPkOk
attr title "packets received OK, sum(packetBytes)"
statistic SimpleTest.N1.eth[1].mac throughput:histogram
field count 5000
field mean 14465.536
field stddev 5031.2660593867
field min 0
field max 294720
field sum 72327680
field sqrsum 1172801536000
attr interpolationmode linear
attr recordingmode histogram
attr source throughput(transmissionEnded)
attr title throughput
attr unit bps
bin	-inf	0
bin	0	58
bin	5000	2
bin	10000	4469
bin	15000	235
bin	20000	0
bin	25000	235
bin	30000	0
bin	35000	0
bin	40000	0
bin	45000	0
bin	50000	0
bin	55000	0
bin	60000	0
bin	65000	0
bin	70000	0
bin	75000	0
bin	80000	0
bin	85000	0
bin	90000	0
bin	95000	0
bin	100000	0
bin	105000	0
bin	110000	0
bin	115000	0
bin	120000	0
bin	125000	0
bin	130000	0
bin	135000	0
bin	140000	0
bin	145000	0
bin	150000	0
bin	155000	0
bin	160000	0
bin	165000	0
bin	170000	0
bin	175000	0
bin	180000	0
bin	185000	0
bin	190000	0
bin	195000	0
bin	200000	0
bin	205000	0
bin	210000	0
bin	215000	0
bin	220000	0
bin	225000	0
bin	230000	0
bin	235000	0
bin	240000	0
bin	245000	0
bin	250000	0
bin	255000	0
bin	260000	0
bin	265000	0
bin	270000	0
bin	275000	0
bin	280000	0
bin	285000	0
bin	290000	1
bin	295000	0
bin	300000	0
bin	305000	0
bin	310000	0
bin	315000	0
bin	320000	0
bin	325000	0
bin	330000	0
bin	335000	0
bin	340000	0
bin	345000	0
bin	350000	0
bin	355000	0
bin	360000	0
bin	365000	0
bin	370000	0
statistic SimpleTest.N1.eth[1].mac utilization:histogram
field count 5000
field mean 0.014465536
field stddev 0.0050312660593846
field min 0
field max 0.29472
field sum 72.327679999999
field sqrsum 1.1728015359999
attr interpolationmode linear
attr recordingmode histogram
attr source "100 * utilization(count(transmissionStarted) - count(transmissionEnded))"
attr title utilization
attr unit %
bin	-inf	0
bin	0	58
bin	0.005	2
bin	0.01	4469
bin	0.015	235
bin	0.02	0
bin	0.025	235
bin	0.03	0
bin	0.035	0
bin	0.04	0
bin	0.045	0
bin	0.05	0
bin	0.055	0
bin	0.06	0
bin	0.065	0
bin	0.07	0
bin	0.075	0
bin	0.08	0
bin	0.085	0
bin	0.09	0
bin	0.095	0
bin	0.1	0
bin	0.105	0
bin	0.11	0
bin	0.115	0
bin	0.12	0
bin	0.125	0
bin	0.13	0
bin	0.135	0
bin	0.14	0
bin	0.145	0
bin	0.15	0
bin	0.155	0
bin	0.16	0
bin	0.165	0
bin	0.17	0
bin	0.175	0
bin	0.18	0
bin	0.185	0
bin	0.19	0
bin	0.195	0
bin	0.2	0
bin	0.205	0
bin	0.21	0
bin	0.215	0
bin	0.22	0
bin	0.225	0
bin	0.23	0
bin	0.235	0
bin	0.24	0
bin	0.245	0
bin	0.25	0
bin	0.255	0
bin	0.26	0
bin	0.265	0
bin	0.27	0
bin	0.275	0
bin	0.28	0
bin	0.285	0
bin	0.29	1
bin	0.295	0
bin	0.3	0
bin	0.305	0
bin	0.31	0
bin	0.315	0
bin	0.32	0
bin	0.325	0
bin	0.33	0
bin	0.335	0
bin	0.34	0
bin	0.345	0
bin	0.35	0
bin	0.355	0
bin	0.36	0
bin	0.365	0
bin	0.37	0
scalar SimpleTest.N1.eth[1].mac txPk:count 10628
attr interpolationmode none
attr recordingmode count
attr source packetSentToLower
attr title "packets transmitted, count"
scalar SimpleTest.N1.eth[1].mac txPk:sum(packetBytes) 819072
attr interpolationmode none
attr recordingmode sum(packetBytes)
attr source packetSentToLower
attr title "packets transmitted, sum(packetBytes)"
scalar SimpleTest.N1.eth[1].mac packetReceivedFromUpper:count 10628
attr interpolationmode none
attr recordingmode count
attr source packetReceivedFromUpper
attr title "packet bytes from higher layer, count"
scalar SimpleTest.N1.eth[1].mac packetReceivedFromUpper:sum(packetBytes) 819072
attr interpolationmode none
attr recordingmode sum(packetBytes)
attr source packetReceivedFromUpper
attr title "packet bytes from higher layer, sum(packetBytes)"
scalar SimpleTest.N1.eth[1].mac passedUpPk:count 10676
attr interpolationmode none
attr recordingmode count
attr source packetSentToUpper
attr title "packets passed to higher layer, count"
scalar SimpleTest.N1.eth[1].mac passedUpPk:sum(packetBytes) 823044
attr interpolationmode none
attr recordingmode sum(packetBytes)
attr source packetSentToUpper
attr title "packets passed to higher layer, sum(packetBytes)"
scalar SimpleTest.N1.eth[1].mac packetDropIncorrectlyReceived:count 0
attr interpolationmode none
attr recordingmode count
attr source packetDropReasonIsIncorrectlyReceived(packetDropped)
attr title "packet drop: incorrectly received, count"
scalar SimpleTest.N1.eth[1].mac packetDropIncorrectlyReceived:sum(packetBytes) 0
attr interpolationmode none
attr recordingmode sum(packetBytes)
attr source packetDropReasonIsIncorrectlyReceived(packetDropped)
attr title "packet drop: incorrectly received, sum(packetBytes)"
scalar SimpleTest.N1.eth[1].mac packetDropInterfaceDown:count 0
attr interpolationmode none
attr recordingmode count
attr source packetDropReasonIsInterfaceDown(packetDropped)
attr title "packet drop: interface down, count"
scalar SimpleTest.N1.eth[1].mac packetDropInterfaceDown:sum(packetBytes) 0
attr interpolationmode none
attr recordingmode sum(packetBytes)
attr source packetDropReasonIsInterfaceDown(packetDropped)
attr title "packet drop: interface down, sum(packetBytes)"
scalar SimpleTest.N1.eth[1].mac packetDropNotAddressedToUs:count 0
attr interpolationmode none
attr recordingmode count
attr source packetDropReasonIsNotAddressedToUs(packetDropped)
attr title "packet drop: not addressed to us, count"
scalar SimpleTest.N1.eth[1].mac packetDropNotAddressedToUs:sum(packetBytes) 0
attr interpolationmode none
attr recordingmode sum(packetBytes)
attr source packetDropReasonIsNotAddressedToUs(packetDropped)
attr title "packet drop: not addressed to us, sum(packetBytes)"
scalar SimpleTest.N1.eth[1] packetDropInterfaceDown:count 0
attr interpolationmode none
attr recordingmode count
attr source packetDropReasonIsInterfaceDown(packetDropped)
attr title "packet drops: interface down, count"
scalar SimpleTest.N1.eth[1] packetDropInterfaceDown:sum(packetBytes) 0
attr interpolationmode none
attr recordingmode sum(packetBytes)
attr source packetDropReasonIsInterfaceDown(packetDropped)
attr title "packet drops: interface down, sum(packetBytes)"
scalar SimpleTest.N1.eth[1] packetDropNoCarrier:count 0
attr interpolationmode none
attr recordingmode count
attr source packetDropReasonIsNoCarrier(packetDropped)
attr title "packet drops: no carrier, count"
scalar SimpleTest.N1.eth[1] packetDropNoCarrier:sum(packetBytes) 0
attr interpolationmode none
attr recordingmode sum(packetBytes)
attr source packetDropReasonIsNoCarrier(packetDropped)
attr title "packet drops: no carrier, sum(packetBytes)"
scalar SimpleTest.R1.ethernet pauseSent:count 0
attr recordingmode count
attr title "pause sent, count"
scalar SimpleTest.R1.ethernet pauseSent:sum 0
attr recordingmode sum
attr title "pause sent, sum"
scalar SimpleTest.R1.ethernet decapPk:count 21552
attr interpolationmode none
attr recordingmode count
attr source decapPk
attr title "packets decapsulated, count"
scalar SimpleTest.R1.ethernet decapPk:sum(packetBytes) 1270556
attr interpolationmode none
attr recordingmode sum(packetBytes)
attr source decapPk
attr title "packets decapsulated, sum(packetBytes)"
scalar SimpleTest.R1.ethernet encapPk:count 21600
attr interpolationmode none
attr recordingmode count
attr source encapPk
attr title "packets encapsulated, count"
scalar SimpleTest.R1.ethernet encapPk:sum(packetBytes) 1243968
attr interpolationmode none
attr recordingmode sum(packetBytes)
attr source encapPk
attr title "packets encapsulated, sum(packetBytes)"
scalar SimpleTest.R1.lo[0].lo rcvdPkFromHl:count 0
attr interpolationmode none
attr recordingmode count
attr source packetReceivedFromUpper
attr title "packets received from higher layer, count"
scalar SimpleTest.R1.lo[0].lo rcvdPkFromHl:sum(packetBytes) 0
attr interpolationmode none
attr recordingmode sum(packetBytes)
attr source packetReceivedFromUpper
attr title "packets received from higher layer, sum(packetBytes)"
scalar SimpleTest.R1.lo[0].lo passedUpPk:count 0
attr interpolationmode none
attr recordingmode count
attr source packetSentToUpper
attr title "packets passed to higher layer, count"
scalar SimpleTest.R1.lo[0].lo passedUpPk:sum(packetBytes) 0
attr interpolationmode none
attr recordingmode sum(packetBytes)
attr source packetSentToUpper
attr title "packets passed to higher layer, sum(packetBytes)"
scalar SimpleTest.R1.lo[0] packetDropInterfaceDown:count 0
attr interpolationmode none
attr recordingmode count
attr source packetDropReasonIsInterfaceDown(packetDropped)
attr title "packet drops: interface down, count"
scalar SimpleTest.R1.lo[0] packetDropInterfaceDown:sum(packetBytes) 0
attr interpolationmode none
attr recordingmode sum(packetBytes)
attr source packetDropReasonIsInterfaceDown(packetDropped)
attr title "packet drops: interface down, sum(packetBytes)"
scalar SimpleTest.R1.lo[0] packetDropNoCarrier:count 0
attr interpolationmode none
attr recordingmode count
attr source packetDropReasonIsNoCarrier(packetDropped)
attr title "packet drops: no carrier, count"
scalar SimpleTest.R1.lo[0] packetDropNoCarrier:sum(packetBytes) 0
attr interpolationmode none
attr recordingmode sum(packetBytes)
attr source packetDropReasonIsNoCarrier(packetDropped)
attr title "packet drops: no carrier, sum(packetBytes)"
scalar SimpleTest.R1.eth[0].queue queueLength:last 0
attr autoWarmupFilter false
attr interpolationmode sample-hold
attr recordingmode last
attr source "warmup(atomic(constant0(packetPushEnded) + count(packetPushStarted) - count(packetPulled) - count(packetRemoved) - count(packetDropped)))"
attr title "queue length, last"
attr unit pk
scalar SimpleTest.R1.eth[0].queue queueLength:max 0
attr autoWarmupFilter false
attr interpolationmode sample-hold
attr recordingmode max
attr source "warmup(atomic(constant0(packetPushEnded) + count(packetPushStarted) - count(packetPulled) - count(packetRemoved) - count(packetDropped)))"
attr title "queue length, max"
attr unit pk
scalar SimpleTest.R1.eth[0].queue queueLength:timeavg 0
attr autoWarmupFilter false
attr interpolationmode sample-hold
attr recordingmode timeavg
attr source "warmup(atomic(constant0(packetPushEnded) + count(packetPushStarted) - count(packetPulled) - count(packetRemoved) - count(packetDropped)))"
attr title "queue length, timeavg"
attr unit pk
scalar SimpleTest.R1.eth[0].queue queueBitLength:last 0
attr autoWarmupFilter false
attr interpolationmode sample-hold
attr recordingmode last
attr source "warmup(atomic(constant0(packetPushEnded) + sum(packetLength(packetPushStarted)) - sum(packetLength(packetPulled)) - sum(packetLength(packetRemoved)) - sum(packetLength(packetDropped))))"
attr title "queue bit length, last"
attr unit b
scalar SimpleTest.R1.eth[0].queue queueBitLength:max 0
attr autoWarmupFilter false
attr interpolationmode sample-hold
attr recordingmode max
attr source "warmup(atomic(constant0(packetPushEnded) + sum(packetLength(packetPushStarted)) - sum(packetLength(packetPulled)) - sum(packetLength(packetRemoved)) - sum(packetLength(packetDropped))))"
attr title "queue bit length, max"
attr unit b
scalar SimpleTest.R1.eth[0].queue queueBitLength:timeavg 0
attr autoWarmupFilter false
attr interpolationmode sample-hold
attr recordingmode timeavg
attr source "warmup(atomic(constant0(packetPushEnded) + sum(packetLength(packetPushStarted)) - sum(packetLength(packetPulled)) - sum(packetLength(packetRemoved)) - sum(packetLength(packetDropped))))"
attr title "queue bit length, timeavg"
attr unit b
statistic SimpleTest.R1.eth[0].queue queueingTime:histogram
field count 10676
field mean 0
field stddev 0
field min 0
field max 0
field sum 0
field sqrsum 0
attr interpolationmode none
attr recordingmode histogram
attr source queueingTime(packetPulled)
attr title "queueing times"
attr unit s
bin	-inf	0
bin	-0.5	0
bin	-0.48	0
bin	-0.46	0
bin	-0.44	0
bin	-0.42	0
bin	-0.4	0
bin	-0.38	0
bin	-0.36	0
bin	-0.34	0
bin	-0.32	0
bin	-0.3	0
bin	-0.28	0
bin	-0.26	0
bin	-0.24	0
bin	-0.22	0
bin	-0.2	0
bin	-0.18	0
bin	-0.16	0
bin	-0.14	0
bin	-0.12	0
bin	-0.1	0
bin	-0.08	0
bin	-0.06	0
bin	-0.04	0
bin	-0.02	0
bin	0	10676
bin	0.02	0
bin	0.04	0
bin	0.06	0
bin	0.08	0
bin	0.1	0
bin	0.12	0
bin	0.14	0
bin	0.16	0
bin	0.18	0
bin	0.2	0
bin	0.22	0
bin	0.24	0
bin	0.26	0
bin	0.28	0
bin	0.3	0
bin	0.32	0
bin	0.34	0
bin	0.36	0
bin	0.38	0
bin	0.4	0
bin	0.42	0
bin	0.44	0
bin	0.46	0
bin	0.48	0
bin	0.5	0
scalar SimpleTest.R1.eth[0].queue outgoingPackets:count 10676
attr recordingmode count
attr source packetPulled
attr title "outgoing packets, count"
attr unit pk
scalar SimpleTest.R1.eth[0].queue outgoingPacketLengths:sum 6482688
attr interpolationmode none
attr recordingmode sum
attr source packetLength(packetPulled)
attr title "outgoing packet lengths, sum"
attr unit b
statistic SimpleTest.R1.eth[0].queue outgoingPacketLengths:histogram
field count 10676
field mean 607.22068190333
field stddev 63.69852595064
field min 368
field max 656
field sum 6482688
field sqrsum 3979736064
attr interpolationmode none
attr recordingmode histogram
attr source packetLength(packetPulled)
attr title "outgoing packet lengths"
attr unit b
bin	-inf	0
bin	295	0
bin	300	0
bin	305	0
bin	310	0
bin	315	0
bin	320	0
bin	325	0
bin	330	0
bin	335	0
bin	340	0
bin	345	0
bin	350	0
bin	355	0
bin	360	0
bin	365	706
bin	370	0
bin	375	0
bin	380	0
bin	385	0
bin	390	0
bin	395	0
bin	400	0
bin	405	0
bin	410	0
bin	415	0
bin	420	0
bin	425	0
bin	430	0
bin	435	0
bin	440	0
bin	445	0
bin	450	0
bin	455	0
bin	460	0
bin	465	0
bin	470	0
bin	475	0
bin	480	0
bin	485	0
bin	490	0
bin	495	0
bin	500	0
bin	505	0
bin	510	0
bin	515	0
bin	520	0
bin	525	0
bin	530	0
bin	535	0
bin	540	0
bin	545	0
bin	550	0
bin	555	0
bin	560	0
bin	565	0
bin	570	0
bin	575	0
bin	580	0
bin	585	0
bin	590	0
bin	595	0
bin	600	0
bin	605	0
bin	610	0
bin	615	0
bin	620	9920
bin	625	0
bin	630	0
bin	635	0
bin	640	0
bin	645	0
bin	650	0
bin	655	50
bin	660	0
bin	665	0
bin	670	0
bin	675	0
bin	680	0
bin	685	0
bin	690	0
bin	695	0
bin	700	0
bin	705	0
bin	710	0
bin	715	0
bin	720	0
bin	725	0
bin	730	0
statistic SimpleTest.R1.eth[0].queue flowQueueingTime:histogram
field count 0
field mean -nan
field stddev nan
field min nan
field max nan
field sum 0
field sqrsum 0
attr interpolationmode none
attr recordingmode histogram
attr source queueingTime(demuxFlow(packetPulled))
attr title "flow queueing times"
attr unit s
bin	-inf	0
bin	0	0
bin	1	0
scalar SimpleTest.R1.eth[0].queue incomingPackets:count 10676
attr recordingmode count
attr source packetPushStarted
attr title "incoming packets, count"
attr unit pk
scalar SimpleTest.R1.eth[0].queue incomingPacketLengths:sum 6482688
attr interpolationmode none
attr recordingmode sum
attr source packetLength(packetPushStarted)
attr title "incoming packet lengths, sum"
attr unit b
statistic SimpleTest.R1.eth[0].queue incomingPacketLengths:histogram
field count 10676
field mean 607.22068190333
field stddev 63.69852595064
field min 368
field max 656
field sum 6482688
field sqrsum 3979736064
attr interpolationmode none
attr recordingmode histogram
attr source packetLength(packetPushStarted)
attr title "incoming packet lengths"
attr unit b
bin	-inf	0
bin	295	0
bin	300	0
bin	305	0
bin	310	0
bin	315	0
bin	320	0
bin	325	0
bin	330	0
bin	335	0
bin	340	0
bin	345	0
bin	350	0
bin	355	0
bin	360	0
bin	365	706
bin	370	0
bin	375	0
bin	380	0
bin	385	0
bin	390	0
bin	395	0
bin	400	0
bin	405	0
bin	410	0
bin	415	0
bin	420	0
bin	425	0
bin	430	0
bin	435	0
bin	440	0
bin	445	0
bin	450	0
bin	455	0
bin	460	0
bin	465	0
bin	470	0
bin	475	0
bin	480	0
bin	485	0
bin	490	0
bin	495	0
bin	500	0
bin	505	0
bin	510	0
bin	515	0
bin	520	0
bin	525	0
bin	530	0
bin	535	0
bin	540	0
bin	545	0
bin	550	0
bin	555	0
bin	560	0
bin	565	0
bin	570	0
bin	575	0
bin	580	0
bin	585	0
bin	590	0
bin	595	0
bin	600	0
bin	605	0
bin	610	0
bin	615	0
bin	620	9920
bin	625	0
bin	630	0
bin	635	0
bin	640	0
bin	645	0
bin	650	0
bin	655	50
bin	660	0
bin	665	0
bin	670	0
bin	675	0
bin	680	0
bin	685	0
bin	690	0
bin	695	0
bin	700	0
bin	705	0
bin	710	0
bin	715	0
bin	720	0
bin	725	0
bin	730	0
scalar SimpleTest.R1.eth[0].queue droppedPacketsQueueOverflow:count 0
attr interpolationmode none
attr recordingmode count
attr source packetDropReasonIsQueueOverflow(packetDropped)
attr title "dropped packets: queue overflow, count"
attr unit pk
scalar SimpleTest.R1.eth[0].queue droppedPacketLengthsQueueOverflow:sum 0
attr interpolationmode none
attr recordingmode sum
attr source packetLength(packetDropReasonIsQueueOverflow(packetDropped))
attr title "dropped packet lengths: queue overflow, sum"
attr unit b
scalar SimpleTest.R1.eth[0].mac "simulated time" 500
scalar SimpleTest.R1.eth[0].mac full-duplex 1
scalar SimpleTest.R1.eth[0].mac "frames/sec sent" 21.352
scalar SimpleTest.R1.eth[0].mac "frames/sec rcvd" 21.256
scalar SimpleTest.R1.eth[0].mac "bits/sec sent" 13168.704
scalar SimpleTest.R1.eth[0].mac "bits/sec rcvd" 13105.152
scalar SimpleTest.R1.eth[0].mac "rx channel idle (%)" 99.985534464
scalar SimpleTest.R1.eth[0].mac "rx channel utilization (%)" 0.014465536
scalar SimpleTest.R1.eth[0].mac rxPausePkUnits:count 0
attr interpolationmode none
attr recordingmode count
attr title "pause units received, count"
scalar SimpleTest.R1.eth[0].mac rxPausePkUnits:sum 0
attr interpolationmode none
attr recordingmode sum
attr title "pause units received, sum"
scalar SimpleTest.R1.eth[0].mac txPausePkUnits:count 0
attr interpolationmode none
attr recordingmode count
attr title "pause units sent, count"
scalar SimpleTest.R1.eth[0].mac txPausePkUnits:sum 0
attr interpolationmode none
attr recordingmode sum
attr title "pause units sent, sum"
scalar SimpleTest.R1.eth[0].mac rxPkOk:count 10628
attr interpolationmode none
attr recordingmode count
attr source rxPkOk
attr title "packets received OK, count"
scalar SimpleTest.R1.eth[0].mac rxPkOk:sum(packetBytes) 819072
attr interpolationmode none
attr recordingmode sum(packetBytes)
attr source rxPkOk
attr title "packets received OK, sum(packetBytes)"
statistic SimpleTest.R1.eth[0].mac throughput:histogram
field count 5000
field mean 14535.232
field stddev 5086.468607861
field min 0
field max 294720
field sum 72676160
field sqrsum 1185699788800
attr interpolationmode linear
attr recordingmode histogram
attr source throughput(transmissionEnded)
attr title throughput
attr unit bps
bin	-inf	0
bin	0	59
bin	5000	1
bin	10000	4425
bin	15000	233
bin	20000	44
bin	25000	234
bin	30000	3
bin	35000	0
bin	40000	0
bin	45000	0
bin	50000	0
bin	55000	0
bin	60000	0
bin	65000	0
bin	70000	0
bin	75000	0
bin	80000	0
bin	85000	0
bin	90000	0
bin	95000	0
bin	100000	0
bin	105000	0
bin	110000	0
bin	115000	0
bin	120000	0
bin	125000	0
bin	130000	0
bin	135000	0
bin	140000	0
bin	145000	0
bin	150000	0
bin	155000	0
bin	160000	0
bin	165000	0
bin	170000	0
bin	175000	0
bin	180000	0
bin	185000	0
bin	190000	0
bin	195000	0
bin	200000	0
bin	205000	0
bin	210000	0
bin	215000	0
bin	220000	0
bin	225000	0
bin	230000	0
bin	235000	0
bin	240000	0
bin	245000	0
bin	250000	0
bin	255000	0
bin	260000	0
bin	265000	0
bin	270000	0
bin	275000	0
bin	280000	0
bin	285000	0
bin	290000	1
bin	295000	0
statistic SimpleTest.R1.eth[0].mac utilization:histogram
field count 5000
field mean 0.014535232
field stddev 0.005086468607859
field min 0
field max 0.29472
field sum 72.67616
field sqrsum 1.1856997887999
attr interpolationmode linear
attr recordingmode histogram
attr source "100 * utilization(count(transmissionStarted) - count(transmissionEnded))"
attr title utilization
attr unit %
bin	-inf	0
bin	0	59
bin	0.005	1
bin	0.01	4425
bin	0.015	233
bin	0.02	44
bin	0.025	234
bin	0.03	3
bin	0.035	0
bin	0.04	0
bin	0.045	0
bin	0.05	0
bin	0.055	0
bin	0.06	0
bin	0.065	0
bin	0.07	0
bin	0.075	0
bin	0.08	0
bin	0.085	0
bin	0.09	0
bin	0.095	0
bin	0.1	0
bin	0.105	0
bin	0.11	0
bin	0.115	0
bin	0.12	0
bin	0.125	0
bin	0.13	0
bin	0.135	0
bin	0.14	0
bin	0.145	0
bin	0.15	0
bin	0.155	0
bin	0.16	0
bin	0.165	0
bin	0.17	0
bin	0.175	0
bin	0.18	0
bin	0.185	0
bin	0.19	0
bin	0.195	0
bin	0.2	0
bin	0.205	0
bin	0.21	0
bin	0.215	0
bin	0.22	0
bin	0.225	0
bin	0.23	0
bin	0.235	0
bin	0.24	0
bin	0.245	0
bin	0.25	0
bin	0.255	0
bin	0.26	0
bin	0.265	0
bin	0.27	0
bin	0.275	0
bin	0.28	0
bin	0.285	0
bin	0.29	1
bin	0.295	0
scalar SimpleTest.R1.eth[0].mac txPk:count 10676
attr interpolationmode none
attr recordingmode count
attr source packetSentToLower
attr title "packets transmitted, count"
scalar SimpleTest.R1.eth[0].mac txPk:sum(packetBytes) 823044
attr interpolationmode none
attr recordingmode sum(packetBytes)
attr source packetSentToLower
attr title "packets transmitted, sum(packetBytes)"
scalar SimpleTest.R1.eth[0].mac packetReceivedFromUpper:count 10676
attr interpolationmode none
attr recordingmode count
attr source packetReceivedFromUpper
attr title "packet bytes from higher layer, count"
scalar SimpleTest.R1.eth[0].mac packetReceivedFromUpper:sum(packetBytes) 810336
attr interpolationmode none
attr recordingmode sum(packetBytes)
attr source packetReceivedFromUpper
attr title "packet bytes from higher layer, sum(packetBytes)"
scalar SimpleTest.R1.eth[0].mac passedUpPk:count 10628
attr interpolationmode none
attr recordingmode count
attr source packetSentToUpper
attr title "packets passed to higher layer, count"
scalar SimpleTest.R1.eth[0].mac passedUpPk:sum(packetBytes) 819072
attr interpolationmode none
attr recordingmode sum(packetBytes)
attr source packetSentToUpper
attr title "packets passed to higher layer, sum(packetBytes)"
scalar SimpleTest.R1.eth[0].mac packetDropIncorrectlyReceived:count 0
attr interpolationmode none
attr recordingmode count
attr source packetDropReasonIsIncorrectlyReceived(packetDropped)
attr title "packet drop: incorrectly received, count"
scalar SimpleTest.R1.eth[0].mac packetDropIncorrectlyReceived:sum(packetBytes) 0
attr interpolationmode none
attr recordingmode sum(packetBytes)
attr source packetDropReasonIsIncorrectlyReceived(packetDropped)
attr title "packet drop: incorrectly received, sum(packetBytes)"
scalar SimpleTest.R1.eth[0].mac packetDropInterfaceDown:count 0
attr interpolationmode none
attr recordingmode count
attr source packetDropReasonIsInterfaceDown(packetDropped)
attr title "packet drop: interface down, count"
scalar SimpleTest.R1.eth[0].mac packetDropInterfaceDown:sum(packetBytes) 0
attr interpolationmode none
attr recordingmode sum(packetBytes)
attr source packetDropReasonIsInterfaceDown(packetDropped)
attr title "packet drop: interface down, sum(packetBytes)"
scalar SimpleTest.R1.eth[0].mac packetDropNotAddressedToUs:count 0
attr interpolationmode none
attr recordingmode count
attr source packetDropReasonIsNotAddressedToUs(packetDropped)
attr title "packet drop: not addressed to us, count"
scalar SimpleTest.R1.eth[0].mac packetDropNotAddressedToUs:sum(packetBytes) 0
attr interpolationmode none
attr recordingmode sum(packetBytes)
attr source packetDropReasonIsNotAddressedToUs(packetDropped)
attr title "packet drop: not addressed to us, sum(packetBytes)"
scalar SimpleTest.R1.eth[0] packetDropInterfaceDown:count 0
attr interpolationmode none
attr recordingmode count
attr source packetDropReasonIsInterfaceDown(packetDropped)
attr title "packet drops: interface down, count"
scalar SimpleTest.R1.eth[0] packetDropInterfaceDown:sum(packetBytes) 0
attr interpolationmode none
attr recordingmode sum(packetBytes)
attr source packetDropReasonIsInterfaceDown(packetDropped)
attr title "packet drops: interface down, sum(packetBytes)"
scalar SimpleTest.R1.eth[0] packetDropNoCarrier:count 0
attr interpolationmode none
attr recordingmode count
attr source packetDropReasonIsNoCarrier(packetDropped)
attr title "packet drops: no carrier, count"
scalar SimpleTest.R1.eth[0] packetDropNoCarrier:sum(packetBytes) 0
attr interpolationmode none
attr recordingmode sum(packetBytes)
attr source packetDropReasonIsNoCarrier(packetDropped)
attr title "packet drops: no carrier, sum(packetBytes)"
scalar SimpleTest.R1.eth[1].queue queueLength:last 0
attr autoWarmupFilter false
attr interpolationmode sample-hold
attr recordingmode last
attr source "warmup(atomic(constant0(packetPushEnded) + count(packetPushStarted) - count(packetPulled) - count(packetRemoved) - count(packetDropped)))"
attr title "queue length, last"
attr unit pk
scalar SimpleTest.R1.eth[1].queue queueLength:max 2
attr autoWarmupFilter false
attr interpolationmode sample-hold
attr recordingmode max
attr source "warmup(atomic(constant0(packetPushEnded) + count(packetPushStarted) - count(packetPulled) - count(packetRemoved) - count(packetDropped)))"
attr title "queue length, max"
attr unit pk
scalar SimpleTest.R1.eth[1].queue queueLength:timeavg 9.0611200000001e-06
attr autoWarmupFilter false
attr interpolationmode sample-hold
attr recordingmode timeavg
attr source "warmup(atomic(constant0(packetPushEnded) + count(packetPushStarted) - count(packetPulled) - count(packetRemoved) - count(packetDropped)))"
attr title "queue length, timeavg"
attr unit pk
scalar SimpleTest.R1.eth[1].queue queueBitLength:last 0
attr autoWarmupFilter false
attr interpolationmode sample-hold
attr recordingmode last
attr source "warmup(atomic(constant0(packetPushEnded) + sum(packetLength(packetPushStarted)) - sum(packetLength(packetPulled)) - sum(packetLength(packetRemoved)) - sum(packetLength(packetDropped))))"
attr title "queue bit length, last"
attr unit b
scalar SimpleTest.R1.eth[1].queue queueBitLength:max 1008
attr autoWarmupFilter false
attr interpolationmode sample-hold
attr recordingmode max
attr source "warmup(atomic(constant0(packetPushEnded) + sum(packetLength(packetPushStarted)) - sum(packetLength(packetPulled)) - sum(packetLength(packetRemoved)) - sum(packetLength(packetDropped))))"
attr title "queue bit length, max"
attr unit b
scalar SimpleTest.R1.eth[1].queue queueBitLength:timeavg 0.00355376128
attr autoWarmupFilter false
attr interpolationmode sample-hold
attr recordingmode timeavg
attr source "warmup(atomic(constant0(packetPushEnded) + sum(packetLength(packetPushStarted)) - sum(packetLength(packetPulled)) - sum(packetLength(packetRemoved)) - sum(packetLength(packetDropped))))"
attr title "queue bit length, timeavg"
attr unit b
statistic SimpleTest.R1.eth[1].queue queueingTime:histogram
field count 10924
field mean 4.1473452947639e-07
field stddev 1.7736622440937e-06
field min 0
field max 1.168e-05
field sum 0.00453056
field sqrsum 3.62414024e-08
attr interpolationmode none
attr recordingmode histogram
attr source queueingTime(packetPulled)
attr title "queueing times"
attr unit s
bin	-inf	0
bin	0	9978
bin	2e-07	0
bin	4e-07	0
bin	6e-07	0
bin	8e-07	471
bin	1e-06	0
bin	1.2e-06	0
bin	1.4e-06	0
bin	1.6e-06	1
bin	1.8e-06	0
bin	2e-06	0
bin	2.2e-06	0
bin	2.4e-06	0
bin	2.6e-06	0
bin	2.8e-06	0
bin	3e-06	0
bin	3.2e-06	0
bin	3.4e-06	0
bin	3.6e-06	0
bin	3.8e-06	0
bin	4e-06	0
bin	4.2e-06	0
bin	4.4e-06	0
bin	4.6e-06	0
bin	4.8e-06	0
bin	5e-06	0
bin	5.2e-06	0
bin	5.4e-06	0
bin	5.6e-06	0
bin	5.8e-06	0
bin	6e-06	0
bin	6.2e-06	0
bin	6.4e-06	0
bin	6.6e-06	0
bin	6.8e-06	0
bin	7e-06	2
bin	7.2e-06	0
bin	7.4e-06	0
bin	7.6e-06	0
bin	7.8e-06	0
bin	8e-06	0
bin	8.2e-06	0
bin	8.4e-06	0
bin	8.6e-06	471
bin	8.8e-06	0
bin	9e-06	0
bin	9.2e-06	0
bin	9.4e-06	0
bin	9.6e-06	0
bin	9.8e-06	0
bin	1e-05	0
bin	1.02e-05	0
bin	1.04e-05	0
bin	1.06e-05	0
bin	1.08e-05	0
bin	1.1e-05	0
bin	1.12e-05	0
bin	1.14e-05	0
bin	1.16e-05	1
bin	1.18e-05	0
bin	1.2e-05	0
bin	1.22e-05	0
bin	1.24e-05	0
bin	1.26e-05	0
bin	1.28e-05	0
bin	1.3e-05	0
bin	1.32e-05	0
bin	1.34e-05	0
bin	1.36e-05	0
bin	1.38e-05	0
bin	1.4e-05	0
bin	1.42e-05	0
bin	1.44e-05	0
bin	1.46e-05	0
scalar SimpleTest.R1.eth[1].queue outgoingPackets:count 10924
attr recordingmode count
attr source packetPulled
attr title "outgoing packets, count"
attr unit pk
scalar SimpleTest.R1.eth[1].queue outgoingPacketLengths:sum 6579456
attr interpolationmode none
attr recordingmode sum
attr source packetLength(packetPulled)
attr title "outgoing packet lengths, sum"
attr unit b
statistic SimpleTest.R1.eth[1].queue outgoingPacketLengths:histogram
field count 10924
field mean 602.29366532406
field stddev 72.505979651337
field min 368
field max 1008
field sum 6579456
field sqrsum 4020188160
attr interpolationmode none
attr recordingmode histogram
attr source packetLength(packetPulled)
attr title "outgoing packet lengths"
attr unit b
bin	-inf	0
bin	200	0
bin	220	0
bin	240	0
bin	260	0
bin	280	0
bin	300	0
bin	320	0
bin	340	0
bin	360	944
bin	380	0
bin	400	0
bin	420	0
bin	440	0
bin	460	0
bin	480	0
bin	500	0
bin	520	0
bin	540	0
bin	560	2
bin	580	1
bin	600	0
bin	620	9920
bin	640	2
bin	660	0
bin	680	50
bin	700	0
bin	720	1
bin	740	0
bin	760	0
bin	780	0
bin	800	1
bin	820	0
bin	840	0
bin	860	0
bin	880	0
bin	900	0
bin	920	0
bin	940	0
bin	960	0
bin	980	0
bin	1000	3
bin	1020	0
bin	1040	0
bin	1060	0
bin	1080	0
bin	1100	0
bin	1120	0
bin	1140	0
bin	1160	0
bin	1180	0
statistic SimpleTest.R1.eth[1].queue flowQueueingTime:histogram
field count 0
field mean -nan
field stddev nan
field min nan
field max nan
field sum 0
field sqrsum 0
attr interpolationmode none
attr recordingmode histogram
attr source queueingTime(demuxFlow(packetPulled))
attr title "flow queueing times"
attr unit s
bin	-inf	0
bin	0	0
bin	1	0
scalar SimpleTest.R1.eth[1].queue incomingPackets:count 10924
attr recordingmode count
attr source packetPushStarted
attr title "incoming packets, count"
attr unit pk
scalar SimpleTest.R1.eth[1].queue incomingPacketLengths:sum 6579456
attr interpolationmode none
attr recordingmode sum
attr source packetLength(packetPushStarted)
attr title "incoming packet lengths, sum"
attr unit b
statistic SimpleTest.R1.eth[1].queue incomingPacketLengths:histogram
field count 10924
field mean 602.29366532406
field stddev 72.505979651337
field min 368
field max 1008
field sum 6579456
field sqrsum 4020188160
[...]
bin	5e-05	0
bin	5.2e-05	0
bin	5.4e-05	1
bin	5.6e-05	0
bin	5.8e-05	0
bin	6e-05	0
bin	6.2e-05	1
bin	6.4e-05	0
bin	6.6e-05	0
bin	6.8e-05	0
bin	7e-05	1
bin	7.2e-05	0
bin	7.4e-05	0
bin	7.6e-05	0
bin	7.8e-05	1
bin	8e-05	0
bin	8.2e-05	0
bin	8.4e-05	0
bin	8.6e-05	1
bin	8.8e-05	0
bin	9e-05	0
bin	9.2e-05	0
bin	9.4e-05	1
bin	9.6e-05	0
bin	9.8e-05	0
bin	0.0001	1
bin	0.000102	0
bin	0.000104	0
bin	0.000106	0
bin	0.000108	1
bin	0.00011	0
bin	0.000112	0
bin	0.000114	0
bin	0.000116	1
bin	0.000118	0
bin	0.00012	0
bin	0.000122	0
bin	0.000124	1
bin	0.000126	0
bin	0.000128	21
bin	0.00013	0
bin	0.000132	1
bin	0.000134	0
bin	0.000136	0
bin	0.000138	0
bin	0.00014	1
bin	0.000142	0
bin	0.000144	0
bin	0.000146	0
bin	0.000148	1
bin	0.00015	0
bin	0.000152	0
bin	0.000154	0
bin	0.000156	1
bin	0.000158	0
bin	0.00016	0
bin	0.000162	0
bin	0.000164	0
bin	0.000166	0
bin	0.000168	0
bin	0.00017	0
bin	0.000172	0
bin	0.000174	0
bin	0.000176	0
bin	0.000178	0
bin	0.00018	0
bin	0.000182	0
bin	0.000184	0
bin	0.000186	0
bin	0.000188	0
bin	0.00019	0
bin	0.000192	0
bin	0.000194	0
bin	0.000196	0
scalar SimpleTest.H2.eth[0].queue outgoingPackets:count 10629
attr recordingmode count
attr source packetPulled
attr title "outgoing packets, count"
attr unit pk
scalar SimpleTest.H2.eth[0].queue outgoingPacketLengths:sum 6451248
attr interpolationmode none
attr recordingmode sum
attr source packetLength(packetPulled)
attr title "outgoing packet lengths, sum"
attr unit b
statistic SimpleTest.H2.eth[0].queue outgoingPacketLengths:histogram
field count 10629
field mean 606.94778436353
field stddev 63.835511490993
field min 368
field max 624
field sum 6451248
field sqrsum 3958879488
attr interpolationmode none
attr recordingmode histogram
attr source packetLength(packetPulled)
attr title "outgoing packet lengths"
attr unit b
bin	-inf	0
bin	300	0
bin	305	0
bin	310	0
bin	315	0
bin	320	0
bin	325	0
bin	330	0
bin	335	0
bin	340	0
bin	345	0
bin	350	0
bin	355	0
bin	360	0
bin	365	708
bin	370	0
bin	375	0
bin	380	0
bin	385	0
bin	390	0
bin	395	0
bin	400	0
bin	405	0
bin	410	0
bin	415	0
bin	420	0
bin	425	0
bin	430	0
bin	435	0
bin	440	0
bin	445	0
bin	450	0
bin	455	0
bin	460	0
bin	465	0
bin	470	0
bin	475	0
bin	480	0
bin	485	0
bin	490	0
bin	495	0
bin	500	0
bin	505	0
bin	510	0
bin	515	0
bin	520	0
bin	525	0
bin	530	0
bin	535	0
bin	540	0
bin	545	0
bin	550	0
bin	555	0
bin	560	0
bin	565	0
bin	570	0
bin	575	0
bin	580	0
bin	585	0
bin	590	0
bin	595	0
bin	600	0
bin	605	0
bin	610	0
bin	615	0
bin	620	9921
bin	625	0
bin	630	0
bin	635	0
bin	640	0
bin	645	0
bin	650	0
bin	655	0
bin	660	0
bin	665	0
bin	670	0
bin	675	0
bin	680	0
bin	685	0
bin	690	0
statistic SimpleTest.H2.eth[0].queue flowQueueingTime:histogram
field count 0
field mean -nan
field stddev nan
field min nan
field max nan
field sum 0
field sqrsum 0
attr interpolationmode none
attr recordingmode histogram
attr source queueingTime(demuxFlow(packetPulled))
attr title "flow queueing times"
attr unit s
bin	-inf	0
bin	0	0
bin	1	0
scalar SimpleTest.H2.eth[0].queue incomingPackets:count 10629
attr recordingmode count
attr source packetPushStarted
attr title "incoming packets, count"
attr unit pk
scalar SimpleTest.H2.eth[0].queue incomingPacketLengths:sum 6451248
attr interpolationmode none
attr recordingmode sum
attr source packetLength(packetPushStarted)
attr title "incoming packet lengths, sum"
attr unit b
statistic SimpleTest.H2.eth[0].queue incomingPacketLengths:histogram
field count 10629
field mean 606.94778436353
field stddev 63.835511490993
field min 368
field max 624
field sum 6451248
field sqrsum 3958879488
attr interpolationmode none
attr recordingmode histogram
attr source packetLength(packetPushStarted)
attr title "incoming packet lengths"
attr unit b
bin	-inf	0
bin	300	0
bin	305	0
bin	310	0
bin	315	0
bin	320	0
bin	325	0
bin	330	0
bin	335	0
bin	340	0
bin	345	0
bin	350	0
bin	355	0
bin	360	0
bin	365	708
bin	370	0
bin	375	0
bin	380	0
bin	385	0
bin	390	0
bin	395	0
bin	400	0
bin	405	0
bin	410	0
bin	415	0
bin	420	0
bin	425	0
bin	430	0
bin	435	0
bin	440	0
bin	445	0
bin	450	0
bin	455	0
bin	460	0
bin	465	0
bin	470	0
bin	475	0
bin	480	0
bin	485	0
bin	490	0
bin	495	0
bin	500	0
bin	505	0
bin	510	0
bin	515	0
bin	520	0
bin	525	0
bin	530	0
bin	535	0
bin	540	0
bin	545	0
bin	550	0
bin	555	0
bin	560	0
bin	565	0
bin	570	0
bin	575	0
bin	580	0
bin	585	0
bin	590	0
bin	595	0
bin	600	0
bin	605	0
bin	610	0
bin	615	0
bin	620	9921
bin	625	0
bin	630	0
bin	635	0
bin	640	0
bin	645	0
bin	650	0
bin	655	0
bin	660	0
bin	665	0
bin	670	0
bin	675	0
bin	680	0
bin	685	0
bin	690	0
scalar SimpleTest.H2.eth[0].queue droppedPacketsQueueOverflow:count 0
attr interpolationmode none
attr recordingmode count
attr source packetDropReasonIsQueueOverflow(packetDropped)
attr title "dropped packets: queue overflow, count"
attr unit pk
scalar SimpleTest.H2.eth[0].queue droppedPacketLengthsQueueOverflow:sum 0
attr interpolationmode none
attr recordingmode sum
attr source packetLength(packetDropReasonIsQueueOverflow(packetDropped))
attr title "dropped packet lengths: queue overflow, sum"
attr unit b
scalar SimpleTest.H2.eth[0].mac "simulated time" 500
scalar SimpleTest.H2.eth[0].mac full-duplex 1
scalar SimpleTest.H2.eth[0].mac "frames/sec sent" 21.256
scalar SimpleTest.H2.eth[0].mac "frames/sec rcvd" 21.352
scalar SimpleTest.H2.eth[0].mac "bits/sec sent" 13105.152
scalar SimpleTest.H2.eth[0].mac "bits/sec rcvd" 13168.704
scalar SimpleTest.H2.eth[0].mac "rx channel idle (%)" 99.985464768
scalar SimpleTest.H2.eth[0].mac "rx channel utilization (%)" 0.014535232
scalar SimpleTest.H2.eth[0].mac rxPausePkUnits:count 0
attr interpolationmode none
attr recordingmode count
attr title "pause units received, count"
scalar SimpleTest.H2.eth[0].mac rxPausePkUnits:sum 0
attr interpolationmode none
attr recordingmode sum
attr title "pause units received, sum"
scalar SimpleTest.H2.eth[0].mac txPausePkUnits:count 0
attr interpolationmode none
attr recordingmode count
attr title "pause units sent, count"
scalar SimpleTest.H2.eth[0].mac txPausePkUnits:sum 0
attr interpolationmode none
attr recordingmode sum
attr title "pause units sent, sum"
scalar SimpleTest.H2.eth[0].mac rxPkOk:count 10676
attr interpolationmode none
attr recordingmode count
attr source rxPkOk
attr title "packets received OK, count"
scalar SimpleTest.H2.eth[0].mac rxPkOk:sum(packetBytes) 823044
attr interpolationmode none
attr recordingmode sum(packetBytes)
attr source rxPkOk
attr title "packets received OK, sum(packetBytes)"
statistic SimpleTest.H2.eth[0].mac throughput:histogram
field count 5000
field mean 14465.536
field stddev 5031.2660593867
field min 0
field max 294720
field sum 72327680
field sqrsum 1172801536000
attr interpolationmode linear
attr recordingmode histogram
attr source throughput(transmissionEnded)
attr title throughput
attr unit bps
bin	-inf	0
bin	0	58
bin	5000	2
bin	10000	4469
bin	15000	235
bin	20000	0
bin	25000	235
bin	30000	0
bin	35000	0
bin	40000	0
bin	45000	0
bin	50000	0
bin	55000	0
bin	60000	0
bin	65000	0
bin	70000	0
bin	75000	0
bin	80000	0
bin	85000	0
bin	90000	0
bin	95000	0
bin	100000	0
bin	105000	0
bin	110000	0
bin	115000	0
bin	120000	0
bin	125000	0
bin	130000	0
bin	135000	0
bin	140000	0
bin	145000	0
bin	150000	0
bin	155000	0
bin	160000	0
bin	165000	0
bin	170000	0
bin	175000	0
bin	180000	0
bin	185000	0
bin	190000	0
bin	195000	0
bin	200000	0
bin	205000	0
bin	210000	0
bin	215000	0
bin	220000	0
bin	225000	0
bin	230000	0
bin	235000	0
bin	240000	0
bin	245000	0
bin	250000	0
bin	255000	0
bin	260000	0
bin	265000	0
bin	270000	0
bin	275000	0
bin	280000	0
bin	285000	0
bin	290000	1
bin	295000	0
bin	300000	0
bin	305000	0
bin	310000	0
bin	315000	0
bin	320000	0
bin	325000	0
bin	330000	0
bin	335000	0
bin	340000	0
bin	345000	0
bin	350000	0
bin	355000	0
bin	360000	0
bin	365000	0
bin	370000	0
statistic SimpleTest.H2.eth[0].mac utilization:histogram
field count 5000
field mean 0.014465536
field stddev 0.0050312660593846
field min 0
field max 0.29472
field sum 72.327679999999
field sqrsum 1.1728015359999
attr interpolationmode linear
attr recordingmode histogram
attr source "100 * utilization(count(transmissionStarted) - count(transmissionEnded))"
attr title utilization
attr unit %
bin	-inf	0
bin	0	58
bin	0.005	2
bin	0.01	4469
bin	0.015	235
bin	0.02	0
bin	0.025	235
bin	0.03	0
bin	0.035	0
bin	0.04	0
bin	0.045	0
bin	0.05	0
bin	0.055	0
bin	0.06	0
bin	0.065	0
bin	0.07	0
bin	0.075	0
bin	0.08	0
bin	0.085	0
bin	0.09	0
bin	0.095	0
bin	0.1	0
bin	0.105	0
bin	0.11	0
bin	0.115	0
bin	0.12	0
bin	0.125	0
bin	0.13	0
bin	0.135	0
bin	0.14	0
bin	0.145	0
bin	0.15	0
bin	0.155	0
bin	0.16	0
bin	0.165	0
bin	0.17	0
bin	0.175	0
bin	0.18	0
bin	0.185	0
bin	0.19	0
bin	0.195	0
bin	0.2	0
bin	0.205	0
bin	0.21	0
bin	0.215	0
bin	0.22	0
bin	0.225	0
bin	0.23	0
bin	0.235	0
bin	0.24	0
bin	0.245	0
bin	0.25	0
bin	0.255	0
bin	0.26	0
bin	0.265	0
bin	0.27	0
bin	0.275	0
bin	0.28	0
bin	0.285	0
bin	0.29	1
bin	0.295	0
bin	0.3	0
bin	0.305	0
bin	0.31	0
bin	0.315	0
bin	0.32	0
bin	0.325	0
bin	0.33	0
bin	0.335	0
bin	0.34	0
bin	0.345	0
bin	0.35	0
bin	0.355	0
bin	0.36	0
bin	0.365	0
bin	0.37	0
scalar SimpleTest.H2.eth[0].mac txPk:count 10628
attr interpolationmode none
attr recordingmode count
attr source packetSentToLower
attr title "packets transmitted, count"
scalar SimpleTest.H2.eth[0].mac txPk:sum(packetBytes) 819072
attr interpolationmode none
attr recordingmode sum(packetBytes)
attr source packetSentToLower
attr title "packets transmitted, sum(packetBytes)"
scalar SimpleTest.H2.eth[0].mac packetReceivedFromUpper:count 10629
attr interpolationmode none
attr recordingmode count
attr source packetReceivedFromUpper
attr title "packet bytes from higher layer, count"
scalar SimpleTest.H2.eth[0].mac packetReceivedFromUpper:sum(packetBytes) 806406
attr interpolationmode none
attr recordingmode sum(packetBytes)
attr source packetReceivedFromUpper
attr title "packet bytes from higher layer, sum(packetBytes)"
scalar SimpleTest.H2.eth[0].mac passedUpPk:count 10676
attr interpolationmode none
attr recordingmode count
attr source packetSentToUpper
attr title "packets passed to higher layer, count"
scalar SimpleTest.H2.eth[0].mac passedUpPk:sum(packetBytes) 823044
attr interpolationmode none
attr recordingmode sum(packetBytes)
attr source packetSentToUpper
attr title "packets passed to higher layer, sum(packetBytes)"
scalar SimpleTest.H2.eth[0].mac packetDropIncorrectlyReceived:count 0
attr interpolationmode none
attr recordingmode count
attr source packetDropReasonIsIncorrectlyReceived(packetDropped)
attr title "packet drop: incorrectly received, count"
scalar SimpleTest.H2.eth[0].mac packetDropIncorrectlyReceived:sum(packetBytes) 0
attr interpolationmode none
attr recordingmode sum(packetBytes)
attr source packetDropReasonIsIncorrectlyReceived(packetDropped)
attr title "packet drop: incorrectly received, sum(packetBytes)"
scalar SimpleTest.H2.eth[0].mac packetDropInterfaceDown:count 0
attr interpolationmode none
attr recordingmode count
attr source packetDropReasonIsInterfaceDown(packetDropped)
attr title "packet drop: interface down, count"
scalar SimpleTest.H2.eth[0].mac packetDropInterfaceDown:sum(packetBytes) 0
attr interpolationmode none
attr recordingmode sum(packetBytes)
attr source packetDropReasonIsInterfaceDown(packetDropped)
attr title "packet drop: interface down, sum(packetBytes)"
scalar SimpleTest.H2.eth[0].mac packetDropNotAddressedToUs:count 0
attr interpolationmode none
attr recordingmode count
attr source packetDropReasonIsNotAddressedToUs(packetDropped)
attr title "packet drop: not addressed to us, count"
scalar SimpleTest.H2.eth[0].mac packetDropNotAddressedToUs:sum(packetBytes) 0
attr interpolationmode none
attr recordingmode sum(packetBytes)
attr source packetDropReasonIsNotAddressedToUs(packetDropped)
attr title "packet drop: not addressed to us, sum(packetBytes)"
scalar SimpleTest.H2.eth[0] packetDropInterfaceDown:count 0
attr interpolationmode none
attr recordingmode count
attr source packetDropReasonIsInterfaceDown(packetDropped)
attr title "packet drops: interface down, count"
scalar SimpleTest.H2.eth[0] packetDropInterfaceDown:sum(packetBytes) 0
attr interpolationmode none
attr recordingmode sum(packetBytes)
attr source packetDropReasonIsInterfaceDown(packetDropped)
attr title "packet drops: interface down, sum(packetBytes)"
scalar SimpleTest.H2.eth[0] packetDropNoCarrier:count 0
attr interpolationmode none
attr recordingmode count
attr source packetDropReasonIsNoCarrier(packetDropped)
attr title "packet drops: no carrier, count"
scalar SimpleTest.H2.eth[0] packetDropNoCarrier:sum(packetBytes) 0
attr interpolationmode none
attr recordingmode sum(packetBytes)
attr source packetDropReasonIsNoCarrier(packetDropped)
attr title "packet drops: no carrier, sum(packetBytes)"
scalar SimpleTest.H2.ipv4.ip packetDropAddressResolutionFailed:count 0
attr interpolationmode none
attr recordingmode count
attr source packetDropReasonIsAddressResolutionFailed(packetDropped)
attr title "packet drop: address resolution failed, count"
scalar SimpleTest.H2.ipv4.ip packetDropAddressResolutionFailed:sum(packetBytes) 0
attr interpolationmode none
attr recordingmode sum(packetBytes)
attr source packetDropReasonIsAddressResolutionFailed(packetDropped)
attr title "packet drop: address resolution failed, sum(packetBytes)"
scalar SimpleTest.H2.ipv4.ip packetDropHopLimitReached:count 0
attr interpolationmode none
attr recordingmode count
attr source packetDropReasonIsHopLimitReached(packetDropped)
attr title "packet drop: hop limit reached, count"
scalar SimpleTest.H2.ipv4.ip packetDropHopLimitReached:sum(packetBytes) 0
attr interpolationmode none
attr recordingmode sum(packetBytes)
attr source packetDropReasonIsHopLimitReached(packetDropped)
attr title "packet drop: hop limit reached, sum(packetBytes)"
scalar SimpleTest.H2.ipv4.ip packetDropForwardingDisabled:count 0
attr interpolationmode none
attr recordingmode count
attr source packetDropReasonIsForwardingDisabled(packetDropped)
attr title "packet drop: forwarding disabled, count"
scalar SimpleTest.H2.ipv4.ip packetDropForwardingDisabled:sum(packetBytes) 0
attr interpolationmode none
attr recordingmode sum(packetBytes)
attr source packetDropReasonIsForwardingDisabled(packetDropped)
attr title "packet drop: forwarding disabled, sum(packetBytes)"
scalar SimpleTest.H2.ipv4.ip packetDropLifetimeExpired:count 0
attr interpolationmode none
attr recordingmode count
attr source packetDropReasonIsLifetimeExpired(packetDropped)
attr title "packet drop: lifetime expired, count"
scalar SimpleTest.H2.ipv4.ip packetDropLifetimeExpired:sum(packetBytes) 0
attr interpolationmode none
attr recordingmode sum(packetBytes)
attr source packetDropReasonIsLifetimeExpired(packetDropped)
attr title "packet drop: lifetime expired, sum(packetBytes)"
scalar SimpleTest.H2.ipv4.ip packetDropNoInterfaceFound:count 0
attr interpolationmode none
attr recordingmode count
attr source packetDropReasonIsNoInterfaceFound(packetDropped)
attr title "packet drop: no interface found, count"
scalar SimpleTest.H2.ipv4.ip packetDropNoInterfaceFound:sum(packetBytes) 0
attr interpolationmode none
attr recordingmode sum(packetBytes)
attr source packetDropReasonIsNoInterfaceFound(packetDropped)
attr title "packet drop: no interface found, sum(packetBytes)"
scalar SimpleTest.H2.ipv4.ip packetDropNoRouteFound:count 0
attr interpolationmode none
attr recordingmode count
attr source packetDropReasonIsNoRouteFound(packetDropped)
attr title "packet drop: no route found, count"
scalar SimpleTest.H2.ipv4.ip packetDropNoRouteFound:sum(packetBytes) 0
attr interpolationmode none
attr recordingmode sum(packetBytes)
attr source packetDropReasonIsNoRouteFound(packetDropped)
attr title "packet drop: no route found, sum(packetBytes)"
scalar SimpleTest.H2.ipv4.ip packetDropUndefined:count 0
attr interpolationmode none
attr recordingmode count
attr source packetDropReasonIsUndefined(packetDropped)
attr title "packet drop: undefined, count"
scalar SimpleTest.H2.ipv4.ip packetDropUndefined:sum(packetBytes) 0
attr interpolationmode none
attr recordingmode sum(packetBytes)
attr source packetDropReasonIsUndefined(packetDropped)
attr title "packet drop: undefined, sum(packetBytes)"
scalar SimpleTest.H2.ipv4.arp arpResolutionFailed:count 0
attr recordingmode count
attr title "ARP failed resolutions, count"
scalar SimpleTest.H2.ipv4.arp arpResolutionCompleted:count 706
attr recordingmode count
attr title "ARP completed resolutions, count"
scalar SimpleTest.H2.ipv4.arp arpResolutionInitiated:count 471
attr recordingmode count
attr title "ARP initiated resolutions, count"
scalar SimpleTest.H2.ipv4.arp arpReplySent:count 235
attr recordingmode count
attr source arpReplySent
attr title "ARP replies sent, count"
scalar SimpleTest.H2.ipv4.arp arpReplySent:sum(packetBytes) 6580
attr recordingmode sum(packetBytes)
attr source arpReplySent
attr title "ARP replies sent, sum(packetBytes)"
scalar SimpleTest.H2.ipv4.arp arpRequestSent:count 473
attr recordingmode count
attr source arpRequestSent
attr title "ARP request sent, count"
scalar SimpleTest.H2.ipv4.arp arpRequestSent:sum(packetBytes) 13244
attr recordingmode sum(packetBytes)
attr source arpRequestSent
attr title "ARP request sent, sum(packetBytes)"
scalar SimpleTest.H2.udp packetReceived:count 9920
attr interpolationmode none
attr recordingmode count
attr source packetReceived
attr title "packets received, count"
scalar SimpleTest.H2.udp packetReceived:sum(packetBytes) 396800
attr interpolationmode none
attr recordingmode sum(packetBytes)
attr source packetReceived
attr title "packets received, sum(packetBytes)"
scalar SimpleTest.H2.udp packetSent:count 9921
attr interpolationmode none
attr recordingmode count
attr source packetSent
attr title "packets sent, count"
scalar SimpleTest.H2.udp packetSent:sum(packetBytes) 396840
attr interpolationmode none
attr recordingmode sum(packetBytes)
attr source packetSent
attr title "packets sent, sum(packetBytes)"
scalar SimpleTest.H2.udp passedUpPk:count 9920
attr interpolationmode none
attr recordingmode count
attr source packetSentToUpper
attr title "packets passed up, count"
scalar SimpleTest.H2.udp droppedPkWrongPort:count 0
attr interpolationmode none
attr recordingmode count
attr source packetDropReasonIsNoPortFound(packetDropped)
attr title "packets dropped (wrong port), count"
scalar SimpleTest.H2.udp droppedPkBadChecksum:count 0
attr interpolationmode none
attr recordingmode count
attr source packetDropReasonIsIncorrectlyReceived(packetDropped)
attr title "packets dropped (checksum error), count"
scalar SimpleTest.H2.app[0] "packets sent" 4961
scalar SimpleTest.H2.app[0] "packets received" 4960
scalar SimpleTest.H2.app[0] packetReceived:count 4960
attr interpolationmode none
attr recordingmode count
attr source packetReceived
attr title "packets received, count"
scalar SimpleTest.H2.app[0] packetReceived:sum(packetBytes) 158720
attr interpolationmode none
attr recordingmode sum(packetBytes)
attr source packetReceived
attr title "packets received, sum(packetBytes)"
statistic SimpleTest.H2.app[0] rcvdPkLifetime:stats
field count 4960
field mean 0.0043086212701603
field stddev 0.075968441983622
field min 6.98e-05
field max 2.00022298
field sum 21.370761499995
field sqrsum 28.711480033379
attr interpolationmode none
attr recordingmode stats
attr source dataAge(packetReceived)
attr title "received packet lifetime"
attr unit s
scalar SimpleTest.H2.app[0] packetSent:count 4961
attr interpolationmode none
attr recordingmode count
attr source packetSent
attr title "packets sent, count"
scalar SimpleTest.H2.app[0] packetSent:sum(packetBytes) 158752
attr interpolationmode none
attr recordingmode sum(packetBytes)
attr source packetSent
attr title "packets sent, sum(packetBytes)"
scalar SimpleTest.H2.app[1] echoedPk:count 4960
attr interpolationmode none
attr recordingmode count
attr source packetSent
attr title "packets echoed, count"
scalar SimpleTest.H2.app[1] echoedPk:sum(packetBytes) 158720
attr interpolationmode none
attr recordingmode sum(packetBytes)
attr source packetSent
attr title "packets echoed, sum(packetBytes)"

