version 3
run GenericScheduler-0-20230426-15:01:17-204654
attr configname GenericScheduler
attr datetime 20230426-15:01:17
attr datetimef 20230426-150117
attr experiment GenericScheduler
attr inifile omnetpp.ini
attr iterationvars ""
attr iterationvarsd ""
attr iterationvarsf ""
attr measurement ""
attr network GenericSchedulerTutorialStep
attr processid 204654
attr repetition 0
attr replication #0
attr resultdir results.omnetpp.ini_GenericScheduler_0
attr runnumber 0
attr seedset 0
config **.param-recording false
config **.vector-recording false
config image-path /home/levy/workspace/inet/images
config result-dir results.omnetpp.ini_GenericScheduler_0
config sim-time-limit 10s
config network GenericSchedulerTutorialStep
config sim-time-limit 10s
config *.provider*.providingInterval "uniform(0s, 2s)"
config *.provider*.packetLength 1B
config *.provider*.packetData intuniform(0,255)
config *.collector.collectionInterval 1s
config *.scheduler.schedulerClass "\"inet::queueing::PacketDataScheduler\""

scalar GenericSchedulerTutorialStep.provider1 packets:count 5
attr recordingmode count
attr source packetPulled
attr title "packets, count"
attr unit pk
scalar GenericSchedulerTutorialStep.provider1 packetLengths:sum 40
attr interpolationmode none
attr recordingmode sum
attr source packetLength(packetPulled)
attr title "packet lengths, sum"
attr unit b
statistic GenericSchedulerTutorialStep.provider1 packetLengths:histogram
field count 5
field mean 8
field stddev 0
field min 8
field max 8
field sum 40
field sqrsum 320
attr interpolationmode none
attr recordingmode histogram
attr source packetLength(packetPulled)
attr title "packet lengths"
attr unit b
bin	-inf	0
bin	7	0
bin	8	5
bin	9	0
scalar GenericSchedulerTutorialStep.provider2 packets:count 6
attr recordingmode count
attr source packetPulled
attr title "packets, count"
attr unit pk
scalar GenericSchedulerTutorialStep.provider2 packetLengths:sum 48
attr interpolationmode none
attr recordingmode sum
attr source packetLength(packetPulled)
attr title "packet lengths, sum"
attr unit b
statistic GenericSchedulerTutorialStep.provider2 packetLengths:histogram
field count 6
field mean 8
field stddev 0
field min 8
field max 8
field sum 48
field sqrsum 384
attr interpolationmode none
attr recordingmode histogram
attr source packetLength(packetPulled)
attr title "packet lengths"
attr unit b
bin	-inf	0
bin	7	0
bin	8	6
bin	9	0
scalar GenericSchedulerTutorialStep.scheduler packets:count 11
attr recordingmode count
attr source packetPulled
attr title "packets, count"
attr unit pk
scalar GenericSchedulerTutorialStep.scheduler packetLengths:sum 88
attr interpolationmode none
attr recordingmode sum
attr source packetLength(packetPulled)
attr title "packet lengths, sum"
attr unit b
statistic GenericSchedulerTutorialStep.scheduler packetLengths:histogram
field count 11
field mean 8
field stddev 0
field min 8
field max 8
field sum 88
field sqrsum 704
attr interpolationmode none
attr recordingmode histogram
attr source packetLength(packetPulled)
attr title "packet lengths"
attr unit b
bin	-inf	0
bin	7	0
bin	8	11
bin	9	0
scalar GenericSchedulerTutorialStep.collector packets:count 11
attr recordingmode count
attr source packetPulled
attr title "packets, count"
attr unit pk
scalar GenericSchedulerTutorialStep.collector packetLengths:sum 88
attr interpolationmode none
attr recordingmode sum
attr source packetLength(packetPulled)
attr title "packet lengths, sum"
attr unit b
statistic GenericSchedulerTutorialStep.collector packetLengths:histogram
field count 11
field mean 8
field stddev 0
field min 8
field max 8
field sum 88
field sqrsum 704
attr interpolationmode none
attr recordingmode histogram
attr source packetLength(packetPulled)
attr title "packet lengths"
attr unit b
bin	-inf	0
bin	7	0
bin	8	11
bin	9	0
statistic GenericSchedulerTutorialStep.collector meanBitLifeTimePerPacket:histogram
field count 11
field mean 0.36363636363636
field stddev 0.67419986246324
field min 0
field max 2
field sum 4
field sqrsum 6
attr interpolationmode none
attr recordingmode histogram
attr source weightedMeanPerGroup(groupRegionsPerPacket(lifeTimePerRegion(packetPulled)))
attr title "mean bit life time per packet"
attr unit s
bin	-inf	0
bin	0	8
bin	1	2
bin	2	1
bin	3	0
statistic GenericSchedulerTutorialStep.collector packetJitter:histogram
field count 11
field mean 0.18181818181818
field stddev 0.8738628975053
field min -1
field max 2
field sum 2
field sqrsum 8
attr interpolationmode none
attr recordingmode histogram
attr source jitter(weightedMeanPerGroup(groupRegionsPerPacket(lifeTimePerRegion(packetPulled))))
attr title "packet jitter"
attr unit s
bin	-inf	0
bin	-2	0
bin	-1	2
bin	0	6
bin	1	2
bin	2	1
bin	3	0
statistic GenericSchedulerTutorialStep.collector packetDelayDifferenceToMean:histogram
field count 11
field mean -0.12466220648039
field stddev 0.60583978044089
field min -1.6363636363636
field max 0.33333333333333
field sum -1.3712842712843
field sqrsum 3.8413657186168
attr interpolationmode none
attr recordingmode histogram
attr source differenceToMean(weightedMeanPerGroup(groupRegionsPerPacket(lifeTimePerRegion(packetPulled))))
attr title "packet delay difference to mean"
attr unit s
bin	-inf	0
bin	-2.15	0
bin	-2.1	0
bin	-2.05	0
bin	-2	0
bin	-1.95	0
bin	-1.9	0
bin	-1.85	0
bin	-1.8	0
bin	-1.75	0
bin	-1.7	0
bin	-1.65	1
bin	-1.6	0
bin	-1.55	0
bin	-1.5	0
bin	-1.45	0
bin	-1.4	0
bin	-1.35	0
bin	-1.3	0
bin	-1.25	0
bin	-1.2	0
bin	-1.15	0
bin	-1.1	0
bin	-1.05	0
bin	-1	0
bin	-0.95	0
bin	-0.9	0
bin	-0.85	0
bin	-0.8	1
bin	-0.75	0
bin	-0.7	0
bin	-0.65	0
bin	-0.6	0
bin	-0.55	1
bin	-0.5	0
bin	-0.45	0
bin	-0.4	0
bin	-0.35	0
bin	-0.3	0
bin	-0.25	0
bin	-0.2	0
bin	-0.15	0
bin	-0.1	0
bin	-0.05	0
bin	0	1
bin	0.05	0
bin	0.1	1
bin	0.15	3
bin	0.2	2
bin	0.25	0
bin	0.3	1
bin	0.35	0
bin	0.4	0
bin	0.45	0
bin	0.5	0
bin	0.55	0
bin	0.6	0
bin	0.65	0
bin	0.7	0
bin	0.75	0
bin	0.8	0
bin	0.85	0
statistic GenericSchedulerTutorialStep.collector packetDelayVariation:histogram
field count 11
field mean 0.41715292732397
field stddev 0.16507162751997
field min 0
field max 0.65938047339579
field sum 4.5886822005637
field sqrsum 2.1866686346454
attr recordingmode histogram
attr source stddev(weightedMeanPerGroup(groupRegionsPerPacket(lifeTimePerRegion(packetPulled))))
attr title "packet delay variation"
attr unit s
bin	-inf	0
bin	0	1
bin	0.01	0
bin	0.02	0
bin	0.03	0
bin	0.04	0
bin	0.05	0
bin	0.06	0
bin	0.07	0
bin	0.08	0
bin	0.09	0
bin	0.1	0
bin	0.11	0
bin	0.12	0
bin	0.13	0
bin	0.14	0
bin	0.15	0
bin	0.16	0
bin	0.17	0
bin	0.18	0
bin	0.19	0
bin	0.2	0
bin	0.21	0
bin	0.22	0
bin	0.23	0
bin	0.24	0
bin	0.25	0
bin	0.26	0
bin	0.27	0
bin	0.28	0
bin	0.29	0
bin	0.3	0
bin	0.31	0
bin	0.32	0
bin	0.33	0
bin	0.34	0
bin	0.35	1
bin	0.36	0
bin	0.37	1
bin	0.38	0
bin	0.39	0
bin	0.4	2
bin	0.41	0
bin	0.42	1
bin	0.43	1
bin	0.44	1
bin	0.45	0
bin	0.46	0
bin	0.47	0
bin	0.48	0
bin	0.49	0
bin	0.5	1
bin	0.51	0
bin	0.52	0
bin	0.53	0
bin	0.54	0
bin	0.55	0
bin	0.56	0
bin	0.57	1
bin	0.58	0
bin	0.59	0
bin	0.6	0
bin	0.61	0
bin	0.62	0
bin	0.63	0
bin	0.64	0
bin	0.65	1
bin	0.66	0
bin	0.67	0
bin	0.68	0
bin	0.69	0
bin	0.7	0
bin	0.71	0
bin	0.72	0
bin	0.73	0
bin	0.74	0
bin	0.75	0
bin	0.76	0
bin	0.77	0
bin	0.78	0
bin	0.79	0
bin	0.8	0
bin	0.81	0
bin	0.82	0
bin	0.83	0
scalar GenericSchedulerTutorialStep.collector droppedPackets:count 11
attr recordingmode count
attr source packetDropped
attr title "dropped packets, count"
attr unit pk
scalar GenericSchedulerTutorialStep.collector droppedPacketLengths:sum 88
attr interpolationmode none
attr recordingmode sum
attr source packetLength(packetDropped)
attr title "dropped packet lengths, sum"
attr unit b
statistic GenericSchedulerTutorialStep.collector droppedPacketLengths:histogram
field count 11
field mean 8
field stddev 0
field min 8
field max 8
field sum 88
field sqrsum 704
attr interpolationmode none
attr recordingmode histogram
attr source packetLength(packetDropped)
attr title "dropped packet lengths"
attr unit b
bin	-inf	0
bin	7	0
bin	8	11
bin	9	0

