version 3
run QueueBasedTokenGenerator-0-20251118-12:02:01-115406
attr configname QueueBasedTokenGenerator
attr datetime 20251118-12:02:01
attr datetimef 20251118-120201
attr experiment QueueBasedTokenGenerator
attr inifile omnetpp.ini
attr iterationvars ""
attr iterationvarsd ""
attr iterationvarsf ""
attr measurement ""
attr network QueueBasedTokenGeneratorTutorialStep
attr processid 115406
attr repetition 0
attr replication #0
attr resultdir results
attr runnumber 0
attr seedset 0
config **.param-recording false
config image-path /home/zoli/Projects/OMNET/inet/images
config output-scalar-file results/omnetpp.ini-QueueBasedTokenGenerator-#0.sca
config output-scalar-precision 17
config output-vector-file results/omnetpp.ini-QueueBasedTokenGenerator-#0.vec
config output-vector-precision 17
config record-eventlog false
config sim-time-limit 10s
config network QueueBasedTokenGeneratorTutorialStep
config sim-time-limit 10s
config *.provider.packetLength 1B
config *.collector.collectionInterval 1s

scalar QueueBasedTokenGeneratorTutorialStep.provider packets:count 12
scalar QueueBasedTokenGeneratorTutorialStep.provider packetLengths:sum 96
scalar QueueBasedTokenGeneratorTutorialStep.server numTokensDepleted:count 11
scalar QueueBasedTokenGeneratorTutorialStep.server removedTokens:sum 1
scalar QueueBasedTokenGeneratorTutorialStep.server addedTokens:sum 13
scalar QueueBasedTokenGeneratorTutorialStep.server incomingPackets:count 12
scalar QueueBasedTokenGeneratorTutorialStep.server incomingPacketLengths:sum 96
scalar QueueBasedTokenGeneratorTutorialStep.server outgoingPackets:count 12
scalar QueueBasedTokenGeneratorTutorialStep.server outgoingPacketLengths:sum 96
scalar QueueBasedTokenGeneratorTutorialStep.queue queueLength:last 1
scalar QueueBasedTokenGeneratorTutorialStep.queue queueLength:max 1
scalar QueueBasedTokenGeneratorTutorialStep.queue queueLength:timeavg 1
scalar QueueBasedTokenGeneratorTutorialStep.queue queueBitLength:last 8
scalar QueueBasedTokenGeneratorTutorialStep.queue queueBitLength:max 8
scalar QueueBasedTokenGeneratorTutorialStep.queue queueBitLength:timeavg 8
scalar QueueBasedTokenGeneratorTutorialStep.queue outgoingPackets:count 11
scalar QueueBasedTokenGeneratorTutorialStep.queue outgoingPacketLengths:sum 88
scalar QueueBasedTokenGeneratorTutorialStep.queue incomingPackets:count 12
scalar QueueBasedTokenGeneratorTutorialStep.queue incomingPacketLengths:sum 96
scalar QueueBasedTokenGeneratorTutorialStep.queue droppedPacketsQueueOverflow:count 0
scalar QueueBasedTokenGeneratorTutorialStep.queue droppedPacketLengthsQueueOverflow:sum 0
scalar QueueBasedTokenGeneratorTutorialStep.collector packets:count 11
scalar QueueBasedTokenGeneratorTutorialStep.collector packetLengths:sum 88
scalar QueueBasedTokenGeneratorTutorialStep.collector droppedPackets:count 11
scalar QueueBasedTokenGeneratorTutorialStep.collector droppedPacketLengths:sum 88
scalar QueueBasedTokenGeneratorTutorialStep.tokenGenerator tokensCreated:count 13
scalar QueueBasedTokenGeneratorTutorialStep.tokenGenerator numTokensCreated:sum 12
scalar QueueBasedTokenGeneratorTutorialStep.provider packetLengths:histogram:count 12
scalar QueueBasedTokenGeneratorTutorialStep.provider packetLengths:histogram:sumweights 12
scalar QueueBasedTokenGeneratorTutorialStep.provider packetLengths:histogram:mean 8
scalar QueueBasedTokenGeneratorTutorialStep.provider packetLengths:histogram:stddev 0
scalar QueueBasedTokenGeneratorTutorialStep.provider packetLengths:histogram:min 8
scalar QueueBasedTokenGeneratorTutorialStep.provider packetLengths:histogram:max 8
scalar QueueBasedTokenGeneratorTutorialStep.provider packetLengths:histogram:numbins 2
scalar QueueBasedTokenGeneratorTutorialStep.provider packetLengths:histogram:rangemin 7
scalar QueueBasedTokenGeneratorTutorialStep.provider packetLengths:histogram:rangemax 9
scalar QueueBasedTokenGeneratorTutorialStep.provider packetLengths:histogram:underflows 0
scalar QueueBasedTokenGeneratorTutorialStep.provider packetLengths:histogram:overflows 0
scalar QueueBasedTokenGeneratorTutorialStep.server incomingPacketLengths:histogram:count 12
scalar QueueBasedTokenGeneratorTutorialStep.server incomingPacketLengths:histogram:sumweights 12
scalar QueueBasedTokenGeneratorTutorialStep.server incomingPacketLengths:histogram:mean 8
scalar QueueBasedTokenGeneratorTutorialStep.server incomingPacketLengths:histogram:stddev 0
scalar QueueBasedTokenGeneratorTutorialStep.server incomingPacketLengths:histogram:min 8
scalar QueueBasedTokenGeneratorTutorialStep.server incomingPacketLengths:histogram:max 8
scalar QueueBasedTokenGeneratorTutorialStep.server incomingPacketLengths:histogram:numbins 2
scalar QueueBasedTokenGeneratorTutorialStep.server incomingPacketLengths:histogram:rangemin 7
scalar QueueBasedTokenGeneratorTutorialStep.server incomingPacketLengths:histogram:rangemax 9
scalar QueueBasedTokenGeneratorTutorialStep.server incomingPacketLengths:histogram:underflows 0
scalar QueueBasedTokenGeneratorTutorialStep.server incomingPacketLengths:histogram:overflows 0
scalar QueueBasedTokenGeneratorTutorialStep.server outgoingPacketLengths:histogram:count 12
scalar QueueBasedTokenGeneratorTutorialStep.server outgoingPacketLengths:histogram:sumweights 12
scalar QueueBasedTokenGeneratorTutorialStep.server outgoingPacketLengths:histogram:mean 8
scalar QueueBasedTokenGeneratorTutorialStep.server outgoingPacketLengths:histogram:stddev 0
scalar QueueBasedTokenGeneratorTutorialStep.server outgoingPacketLengths:histogram:min 8
scalar QueueBasedTokenGeneratorTutorialStep.server outgoingPacketLengths:histogram:max 8
scalar QueueBasedTokenGeneratorTutorialStep.server outgoingPacketLengths:histogram:numbins 2
scalar QueueBasedTokenGeneratorTutorialStep.server outgoingPacketLengths:histogram:rangemin 7
scalar QueueBasedTokenGeneratorTutorialStep.server outgoingPacketLengths:histogram:rangemax 9
scalar QueueBasedTokenGeneratorTutorialStep.server outgoingPacketLengths:histogram:underflows 0
scalar QueueBasedTokenGeneratorTutorialStep.server outgoingPacketLengths:histogram:overflows 0
scalar QueueBasedTokenGeneratorTutorialStep.queue queueingTime:histogram:count 11
scalar QueueBasedTokenGeneratorTutorialStep.queue queueingTime:histogram:sumweights 11
scalar QueueBasedTokenGeneratorTutorialStep.queue queueingTime:histogram:mean 0.90909090909090906
scalar QueueBasedTokenGeneratorTutorialStep.queue queueingTime:histogram:stddev 0.30151134457776346
scalar QueueBasedTokenGeneratorTutorialStep.queue queueingTime:histogram:min 0
scalar QueueBasedTokenGeneratorTutorialStep.queue queueingTime:histogram:max 1
scalar QueueBasedTokenGeneratorTutorialStep.queue queueingTime:histogram:numbins 2
scalar QueueBasedTokenGeneratorTutorialStep.queue queueingTime:histogram:rangemin 0
scalar QueueBasedTokenGeneratorTutorialStep.queue queueingTime:histogram:rangemax 2
scalar QueueBasedTokenGeneratorTutorialStep.queue queueingTime:histogram:underflows 0
scalar QueueBasedTokenGeneratorTutorialStep.queue queueingTime:histogram:overflows 0
scalar QueueBasedTokenGeneratorTutorialStep.queue outgoingPacketLengths:histogram:count 11
scalar QueueBasedTokenGeneratorTutorialStep.queue outgoingPacketLengths:histogram:sumweights 11
scalar QueueBasedTokenGeneratorTutorialStep.queue outgoingPacketLengths:histogram:mean 8
scalar QueueBasedTokenGeneratorTutorialStep.queue outgoingPacketLengths:histogram:stddev 0
scalar QueueBasedTokenGeneratorTutorialStep.queue outgoingPacketLengths:histogram:min 8
scalar QueueBasedTokenGeneratorTutorialStep.queue outgoingPacketLengths:histogram:max 8
scalar QueueBasedTokenGeneratorTutorialStep.queue outgoingPacketLengths:histogram:numbins 2
scalar QueueBasedTokenGeneratorTutorialStep.queue outgoingPacketLengths:histogram:rangemin 7
scalar QueueBasedTokenGeneratorTutorialStep.queue outgoingPacketLengths:histogram:rangemax 9
scalar QueueBasedTokenGeneratorTutorialStep.queue outgoingPacketLengths:histogram:underflows 0
scalar QueueBasedTokenGeneratorTutorialStep.queue outgoingPacketLengths:histogram:overflows 0
scalar QueueBasedTokenGeneratorTutorialStep.queue flowQueueingTime:histogram:count 0
scalar QueueBasedTokenGeneratorTutorialStep.queue flowQueueingTime:histogram:sumweights 0
scalar QueueBasedTokenGeneratorTutorialStep.queue flowQueueingTime:histogram:mean -nan
scalar QueueBasedTokenGeneratorTutorialStep.queue flowQueueingTime:histogram:stddev nan
scalar QueueBasedTokenGeneratorTutorialStep.queue flowQueueingTime:histogram:min nan
scalar QueueBasedTokenGeneratorTutorialStep.queue flowQueueingTime:histogram:max nan
scalar QueueBasedTokenGeneratorTutorialStep.queue flowQueueingTime:histogram:numbins 1
scalar QueueBasedTokenGeneratorTutorialStep.queue flowQueueingTime:histogram:rangemin 0
scalar QueueBasedTokenGeneratorTutorialStep.queue flowQueueingTime:histogram:rangemax 1
scalar QueueBasedTokenGeneratorTutorialStep.queue flowQueueingTime:histogram:underflows 0
scalar QueueBasedTokenGeneratorTutorialStep.queue flowQueueingTime:histogram:overflows 0
scalar QueueBasedTokenGeneratorTutorialStep.queue incomingPacketLengths:histogram:count 12
scalar QueueBasedTokenGeneratorTutorialStep.queue incomingPacketLengths:histogram:sumweights 12
scalar QueueBasedTokenGeneratorTutorialStep.queue incomingPacketLengths:histogram:mean 8
scalar QueueBasedTokenGeneratorTutorialStep.queue incomingPacketLengths:histogram:stddev 0
scalar QueueBasedTokenGeneratorTutorialStep.queue incomingPacketLengths:histogram:min 8
scalar QueueBasedTokenGeneratorTutorialStep.queue incomingPacketLengths:histogram:max 8
scalar QueueBasedTokenGeneratorTutorialStep.queue incomingPacketLengths:histogram:numbins 2
scalar QueueBasedTokenGeneratorTutorialStep.queue incomingPacketLengths:histogram:rangemin 7
scalar QueueBasedTokenGeneratorTutorialStep.queue incomingPacketLengths:histogram:rangemax 9
scalar QueueBasedTokenGeneratorTutorialStep.queue incomingPacketLengths:histogram:underflows 0
scalar QueueBasedTokenGeneratorTutorialStep.queue incomingPacketLengths:histogram:overflows 0
scalar QueueBasedTokenGeneratorTutorialStep.collector packetLengths:histogram:count 11
scalar QueueBasedTokenGeneratorTutorialStep.collector packetLengths:histogram:sumweights 11
scalar QueueBasedTokenGeneratorTutorialStep.collector packetLengths:histogram:mean 8
scalar QueueBasedTokenGeneratorTutorialStep.collector packetLengths:histogram:stddev 0
scalar QueueBasedTokenGeneratorTutorialStep.collector packetLengths:histogram:min 8
scalar QueueBasedTokenGeneratorTutorialStep.collector packetLengths:histogram:max 8
scalar QueueBasedTokenGeneratorTutorialStep.collector packetLengths:histogram:numbins 2
scalar QueueBasedTokenGeneratorTutorialStep.collector packetLengths:histogram:rangemin 7
scalar QueueBasedTokenGeneratorTutorialStep.collector packetLengths:histogram:rangemax 9
scalar QueueBasedTokenGeneratorTutorialStep.collector packetLengths:histogram:underflows 0
scalar QueueBasedTokenGeneratorTutorialStep.collector packetLengths:histogram:overflows 0
scalar QueueBasedTokenGeneratorTutorialStep.collector meanBitLifeTimePerPacket:histogram:count 11
scalar QueueBasedTokenGeneratorTutorialStep.collector meanBitLifeTimePerPacket:histogram:sumweights 11
scalar QueueBasedTokenGeneratorTutorialStep.collector meanBitLifeTimePerPacket:histogram:mean 1.7272727272727273
scalar QueueBasedTokenGeneratorTutorialStep.collector meanBitLifeTimePerPacket:histogram:stddev 0.64666979068286312
scalar QueueBasedTokenGeneratorTutorialStep.collector meanBitLifeTimePerPacket:histogram:min 0
scalar QueueBasedTokenGeneratorTutorialStep.collector meanBitLifeTimePerPacket:histogram:max 2
scalar QueueBasedTokenGeneratorTutorialStep.collector meanBitLifeTimePerPacket:histogram:numbins 3
scalar QueueBasedTokenGeneratorTutorialStep.collector meanBitLifeTimePerPacket:histogram:rangemin 0
scalar QueueBasedTokenGeneratorTutorialStep.collector meanBitLifeTimePerPacket:histogram:rangemax 3
scalar QueueBasedTokenGeneratorTutorialStep.collector meanBitLifeTimePerPacket:histogram:underflows 0
scalar QueueBasedTokenGeneratorTutorialStep.collector meanBitLifeTimePerPacket:histogram:overflows 0
scalar QueueBasedTokenGeneratorTutorialStep.collector packetLifeTime:histogram:count 11
scalar QueueBasedTokenGeneratorTutorialStep.collector packetLifeTime:histogram:sumweights 11
scalar QueueBasedTokenGeneratorTutorialStep.collector packetLifeTime:histogram:mean 1.7272727272727273
scalar QueueBasedTokenGeneratorTutorialStep.collector packetLifeTime:histogram:stddev 0.64666979068286312
scalar QueueBasedTokenGeneratorTutorialStep.collector packetLifeTime:histogram:min 0
scalar QueueBasedTokenGeneratorTutorialStep.collector packetLifeTime:histogram:max 2
scalar QueueBasedTokenGeneratorTutorialStep.collector packetLifeTime:histogram:numbins 3
scalar QueueBasedTokenGeneratorTutorialStep.collector packetLifeTime:histogram:rangemin 0
scalar QueueBasedTokenGeneratorTutorialStep.collector packetLifeTime:histogram:rangemax 3
scalar QueueBasedTokenGeneratorTutorialStep.collector packetLifeTime:histogram:underflows 0
scalar QueueBasedTokenGeneratorTutorialStep.collector packetLifeTime:histogram:overflows 0
scalar QueueBasedTokenGeneratorTutorialStep.collector packetJitter:histogram:count 11
scalar QueueBasedTokenGeneratorTutorialStep.collector packetJitter:histogram:sumweights 11
scalar QueueBasedTokenGeneratorTutorialStep.collector packetJitter:histogram:mean 0.18181818181818182
scalar QueueBasedTokenGeneratorTutorialStep.collector packetJitter:histogram:stddev 0.40451991747794525
scalar QueueBasedTokenGeneratorTutorialStep.collector packetJitter:histogram:min 0
scalar QueueBasedTokenGeneratorTutorialStep.collector packetJitter:histogram:max 1
scalar QueueBasedTokenGeneratorTutorialStep.collector packetJitter:histogram:numbins 2
scalar QueueBasedTokenGeneratorTutorialStep.collector packetJitter:histogram:rangemin 0
scalar QueueBasedTokenGeneratorTutorialStep.collector packetJitter:histogram:rangemax 2
scalar QueueBasedTokenGeneratorTutorialStep.collector packetJitter:histogram:underflows 0
scalar QueueBasedTokenGeneratorTutorialStep.collector packetJitter:histogram:overflows 0
scalar QueueBasedTokenGeneratorTutorialStep.collector packetDelayDifferenceToMean:histogram:count 11
scalar QueueBasedTokenGeneratorTutorialStep.collector packetDelayDifferenceToMean:histogram:sumweights 11
scalar QueueBasedTokenGeneratorTutorialStep.collector packetDelayDifferenceToMean:histogram:mean -0.45996654860291214
scalar QueueBasedTokenGeneratorTutorialStep.collector packetDelayDifferenceToMean:histogram:stddev 0.26363388659610815
scalar QueueBasedTokenGeneratorTutorialStep.collector packetDelayDifferenceToMean:histogram:min -1
scalar QueueBasedTokenGeneratorTutorialStep.collector packetDelayDifferenceToMean:histogram:max 0
scalar QueueBasedTokenGeneratorTutorialStep.collector packetDelayDifferenceToMean:histogram:numbins 76
scalar QueueBasedTokenGeneratorTutorialStep.collector packetDelayDifferenceToMean:histogram:rangemin -1.26
scalar QueueBasedTokenGeneratorTutorialStep.collector packetDelayDifferenceToMean:histogram:rangemax 0.26000000000000001
scalar QueueBasedTokenGeneratorTutorialStep.collector packetDelayDifferenceToMean:histogram:underflows 0
scalar QueueBasedTokenGeneratorTutorialStep.collector packetDelayDifferenceToMean:histogram:overflows 0
scalar QueueBasedTokenGeneratorTutorialStep.collector packetDelayVariation:histogram:count 11
scalar QueueBasedTokenGeneratorTutorialStep.collector packetDelayVariation:histogram:sumweights 11
scalar QueueBasedTokenGeneratorTutorialStep.collector packetDelayVariation:histogram:mean 0.86101692913306349
scalar QueueBasedTokenGeneratorTutorialStep.collector packetDelayVariation:histogram:stddev 0.35550203699505861
scalar QueueBasedTokenGeneratorTutorialStep.collector packetDelayVariation:histogram:min 0
scalar QueueBasedTokenGeneratorTutorialStep.collector packetDelayVariation:histogram:max 1.2535663410560174
scalar QueueBasedTokenGeneratorTutorialStep.collector packetDelayVariation:histogram:numbins 79
scalar QueueBasedTokenGeneratorTutorialStep.collector packetDelayVariation:histogram:rangemin 0
scalar QueueBasedTokenGeneratorTutorialStep.collector packetDelayVariation:histogram:rangemax 1.5800000000000001
scalar QueueBasedTokenGeneratorTutorialStep.collector packetDelayVariation:histogram:underflows 0
scalar QueueBasedTokenGeneratorTutorialStep.collector packetDelayVariation:histogram:overflows 0
scalar QueueBasedTokenGeneratorTutorialStep.collector droppedPacketLengths:histogram:count 11
scalar QueueBasedTokenGeneratorTutorialStep.collector droppedPacketLengths:histogram:sumweights 11
scalar QueueBasedTokenGeneratorTutorialStep.collector droppedPacketLengths:histogram:mean 8
scalar QueueBasedTokenGeneratorTutorialStep.collector droppedPacketLengths:histogram:stddev 0
scalar QueueBasedTokenGeneratorTutorialStep.collector droppedPacketLengths:histogram:min 8
scalar QueueBasedTokenGeneratorTutorialStep.collector droppedPacketLengths:histogram:max 8
scalar QueueBasedTokenGeneratorTutorialStep.collector droppedPacketLengths:histogram:numbins 2
scalar QueueBasedTokenGeneratorTutorialStep.collector droppedPacketLengths:histogram:rangemin 7
scalar QueueBasedTokenGeneratorTutorialStep.collector droppedPacketLengths:histogram:rangemax 9
scalar QueueBasedTokenGeneratorTutorialStep.collector droppedPacketLengths:histogram:underflows 0
scalar QueueBasedTokenGeneratorTutorialStep.collector droppedPacketLengths:histogram:overflows 0
statistic QueueBasedTokenGeneratorTutorialStep.provider packetLengths:histogram
field count 12
field mean 8
field stddev 0
field min 8
field max 8
field sum 96
field sqrsum 768
bin	-inf	0
bin	7	0
bin	8	12
bin	9	0
statistic QueueBasedTokenGeneratorTutorialStep.server incomingPacketLengths:histogram
field count 12
field mean 8
field stddev 0
field min 8
field max 8
field sum 96
field sqrsum 768
bin	-inf	0
bin	7	0
bin	8	12
bin	9	0
statistic QueueBasedTokenGeneratorTutorialStep.server outgoingPacketLengths:histogram
field count 12
field mean 8
field stddev 0
field min 8
field max 8
field sum 96
field sqrsum 768
bin	-inf	0
bin	7	0
bin	8	12
bin	9	0
statistic QueueBasedTokenGeneratorTutorialStep.queue queueingTime:histogram
field count 11
field mean 0.90909090909090906
field stddev 0.30151134457776346
field min 0
field max 1
field sum 10
field sqrsum 10
bin	-inf	0
bin	0	1
bin	1	10
bin	2	0
statistic QueueBasedTokenGeneratorTutorialStep.queue outgoingPacketLengths:histogram
field count 11
field mean 8
field stddev 0
field min 8
field max 8
field sum 88
field sqrsum 704
bin	-inf	0
bin	7	0
bin	8	11
bin	9	0
statistic QueueBasedTokenGeneratorTutorialStep.queue flowQueueingTime:histogram
field count 0
field mean -nan
field stddev nan
field min nan
field max nan
field sum 0
field sqrsum 0
bin	-inf	0
bin	0	0
bin	1	0
statistic QueueBasedTokenGeneratorTutorialStep.queue incomingPacketLengths:histogram
field count 12
field mean 8
field stddev 0
field min 8
field max 8
field sum 96
field sqrsum 768
bin	-inf	0
bin	7	0
bin	8	12
bin	9	0
statistic QueueBasedTokenGeneratorTutorialStep.collector packetLengths:histogram
field count 11
field mean 8
field stddev 0
field min 8
field max 8
field sum 88
field sqrsum 704
bin	-inf	0
bin	7	0
bin	8	11
bin	9	0
statistic QueueBasedTokenGeneratorTutorialStep.collector meanBitLifeTimePerPacket:histogram
field count 11
field mean 1.7272727272727273
field stddev 0.64666979068286312
field min 0
field max 2
field sum 19
field sqrsum 37
bin	-inf	0
bin	0	1
bin	1	1
bin	2	9
bin	3	0
statistic QueueBasedTokenGeneratorTutorialStep.collector packetLifeTime:histogram
field count 11
field mean 1.7272727272727273
field stddev 0.64666979068286312
field min 0
field max 2
field sum 19
field sqrsum 37
bin	-inf	0
bin	0	1
bin	1	1
bin	2	9
bin	3	0
statistic QueueBasedTokenGeneratorTutorialStep.collector packetJitter:histogram
field count 11
field mean 0.18181818181818182
field stddev 0.40451991747794525
field min 0
field max 1
field sum 2
field sqrsum 2
bin	-inf	0
bin	0	9
bin	1	2
bin	2	0
statistic QueueBasedTokenGeneratorTutorialStep.collector packetDelayDifferenceToMean:histogram
field count 11
field mean -0.45996654860291214
field stddev 0.26363388659610815
field min -1
field max 0
field sum -5.0596320346320338
field sqrsum 3.0222897457881226
bin	-inf	0
bin	-1.26	0
bin	-1.24	0
bin	-1.22	0
bin	-1.2	0
bin	-1.1799999999999999	0
bin	-1.1599999999999999	0
bin	-1.1400000000000001	0
bin	-1.1200000000000001	0
bin	-1.1000000000000001	0
bin	-1.0800000000000001	0
bin	-1.0600000000000001	0
bin	-1.04	0
bin	-1.02	0
bin	-1	1
bin	-0.97999999999999998	0
bin	-0.95999999999999996	0
bin	-0.93999999999999995	0
bin	-0.91999999999999993	0
bin	-0.90000000000000002	0
bin	-0.88	0
bin	-0.85999999999999999	0
bin	-0.84000000000000008	0
bin	-0.82000000000000006	0
bin	-0.80000000000000004	0
bin	-0.78000000000000003	0
bin	-0.76000000000000001	1
bin	-0.73999999999999999	0
bin	-0.71999999999999997	0
bin	-0.69999999999999996	0
bin	-0.68000000000000005	0
bin	-0.66000000000000003	0
bin	-0.64000000000000001	0
bin	-0.62	1
bin	-0.59999999999999998	0
bin	-0.57999999999999996	0
bin	-0.55999999999999994	0
bin	-0.54000000000000004	0
bin	-0.52000000000000002	0
bin	-0.5	2
bin	-0.47999999999999998	0
bin	-0.45999999999999996	0
bin	-0.43999999999999995	1
bin	-0.42000000000000004	0
bin	-0.40000000000000002	0
bin	-0.38	1
bin	-0.35999999999999999	0
bin	-0.33999999999999997	1
bin	-0.31999999999999995	0
bin	-0.30000000000000004	1
bin	-0.28000000000000003	1
bin	-0.26000000000000001	0
bin	-0.23999999999999999	0
bin	-0.21999999999999997	0
bin	-0.19999999999999996	0
bin	-0.17999999999999994	0
bin	-0.15999999999999992	0
bin	-0.1399999999999999	0
bin	-0.11999999999999988	0
bin	-0.10000000000000009	0
bin	-0.080000000000000071	0
bin	-0.060000000000000053	0
bin	-0.040000000000000036	0
bin	-0.020000000000000018	0
bin	0	1
bin	0.020000000000000018	0
bin	0.040000000000000036	0
bin	0.060000000000000053	0
bin	0.080000000000000071	0
bin	0.10000000000000009	0
bin	0.12000000000000011	0
bin	0.14000000000000012	0
bin	0.15999999999999992	0
bin	0.17999999999999994	0
bin	0.19999999999999996	0
bin	0.21999999999999997	0
bin	0.23999999999999999	0
bin	0.26000000000000001	0
statistic QueueBasedTokenGeneratorTutorialStep.collector packetDelayVariation:histogram
field count 11
field mean 0.86101692913306349
field stddev 0.35550203699505861
field min 0
field max 1.2535663410560174
field sum 9.4711862204636983
field sqrsum 9.4186686578673999
bin	-inf	0
bin	0	1
bin	0.02	0
bin	0.040000000000000001	0
bin	0.059999999999999998	0
bin	0.080000000000000002	0
bin	0.10000000000000001	0
bin	0.12	0
bin	0.14000000000000001	0
bin	0.16	0
bin	0.17999999999999999	0
bin	0.20000000000000001	0
bin	0.22	0
bin	0.23999999999999999	0
bin	0.26000000000000001	0
bin	0.28000000000000003	0
bin	0.29999999999999999	0
bin	0.32000000000000001	0
bin	0.34000000000000002	0
bin	0.35999999999999999	0
bin	0.38	0
bin	0.40000000000000002	0
bin	0.41999999999999998	0
bin	0.44	0
bin	0.46000000000000002	0
bin	0.47999999999999998	0
bin	0.5	0
bin	0.52000000000000002	0
bin	0.54000000000000004	0
bin	0.56000000000000005	1
bin	0.57999999999999996	0
bin	0.59999999999999998	0
bin	0.62	0
bin	0.64000000000000001	0
bin	0.66000000000000003	0
bin	0.68000000000000005	0
bin	0.70000000000000007	0
bin	0.71999999999999997	0
bin	0.73999999999999999	1
bin	0.76000000000000001	0
bin	0.78000000000000003	1
bin	0.80000000000000004	0
bin	0.82000000000000006	1
bin	0.83999999999999997	0
bin	0.85999999999999999	0
bin	0.88	1
bin	0.90000000000000002	0
bin	0.92000000000000004	0
bin	0.94000000000000006	0
bin	0.95999999999999996	1
bin	0.97999999999999998	0
bin	1	0
bin	1.02	0
bin	1.04	1
bin	1.0600000000000001	0
bin	1.0800000000000001	0
bin	1.1000000000000001	0
bin	1.1200000000000001	0
bin	1.1400000000000001	1
bin	1.1599999999999999	0
bin	1.1799999999999999	0
bin	1.2	0
bin	1.22	1
bin	1.24	1
bin	1.26	0
bin	1.28	0
bin	1.3	0
bin	1.3200000000000001	0
bin	1.3400000000000001	0
bin	1.3600000000000001	0
bin	1.3800000000000001	0
bin	1.4000000000000001	0
bin	1.4199999999999999	0
bin	1.4399999999999999	0
bin	1.46	0
bin	1.48	0
bin	1.5	0
bin	1.52	0
bin	1.54	0
bin	1.5600000000000001	0
bin	1.5800000000000001	0
statistic QueueBasedTokenGeneratorTutorialStep.collector droppedPacketLengths:histogram
field count 11
field mean 8
field stddev 0
field min 8
field max 8
field sum 88
field sqrsum 704
bin	-inf	0
bin	7	0
bin	8	11
bin	9	0
scalar QueueBasedTokenGeneratorTutorialStep.provider packetLengths:vector:count 12
scalar QueueBasedTokenGeneratorTutorialStep.provider packetLengths:vector:sum 96
scalar QueueBasedTokenGeneratorTutorialStep.provider packetLengths:vector:sumweights 12
scalar QueueBasedTokenGeneratorTutorialStep.provider packetLengths:vector:mean 8
scalar QueueBasedTokenGeneratorTutorialStep.provider packetLengths:vector:stddev 0
scalar QueueBasedTokenGeneratorTutorialStep.provider packetLengths:vector:min 8
scalar QueueBasedTokenGeneratorTutorialStep.provider packetLengths:vector:max 8
scalar QueueBasedTokenGeneratorTutorialStep.provider packetLengths:vector:starttime 0
scalar QueueBasedTokenGeneratorTutorialStep.provider packetLengths:vector:endtime 10
scalar QueueBasedTokenGeneratorTutorialStep.provider dataRate:vector:count 100
scalar QueueBasedTokenGeneratorTutorialStep.provider dataRate:vector:sum 880
scalar QueueBasedTokenGeneratorTutorialStep.provider dataRate:vector:sumweights 100
scalar QueueBasedTokenGeneratorTutorialStep.provider dataRate:vector:mean 8.8000000000000007
scalar QueueBasedTokenGeneratorTutorialStep.provider dataRate:vector:stddev 27.60764057614881
scalar QueueBasedTokenGeneratorTutorialStep.provider dataRate:vector:min 0
scalar QueueBasedTokenGeneratorTutorialStep.provider dataRate:vector:max 160
scalar QueueBasedTokenGeneratorTutorialStep.provider dataRate:vector:starttime 0.10000000000000001
scalar QueueBasedTokenGeneratorTutorialStep.provider dataRate:vector:endtime 10
scalar QueueBasedTokenGeneratorTutorialStep.server incomingPacketLengths:vector:count 12
scalar QueueBasedTokenGeneratorTutorialStep.server incomingPacketLengths:vector:sum 96
scalar QueueBasedTokenGeneratorTutorialStep.server incomingPacketLengths:vector:sumweights 12
scalar QueueBasedTokenGeneratorTutorialStep.server incomingPacketLengths:vector:mean 8
scalar QueueBasedTokenGeneratorTutorialStep.server incomingPacketLengths:vector:stddev 0
scalar QueueBasedTokenGeneratorTutorialStep.server incomingPacketLengths:vector:min 8
scalar QueueBasedTokenGeneratorTutorialStep.server incomingPacketLengths:vector:max 8
scalar QueueBasedTokenGeneratorTutorialStep.server incomingPacketLengths:vector:starttime 0
scalar QueueBasedTokenGeneratorTutorialStep.server incomingPacketLengths:vector:endtime 10
scalar QueueBasedTokenGeneratorTutorialStep.server incomingDataRate:vector:count 100
scalar QueueBasedTokenGeneratorTutorialStep.server incomingDataRate:vector:sum 880
scalar QueueBasedTokenGeneratorTutorialStep.server incomingDataRate:vector:sumweights 100
scalar QueueBasedTokenGeneratorTutorialStep.server incomingDataRate:vector:mean 8.8000000000000007
scalar QueueBasedTokenGeneratorTutorialStep.server incomingDataRate:vector:stddev 27.60764057614881
scalar QueueBasedTokenGeneratorTutorialStep.server incomingDataRate:vector:min 0
scalar QueueBasedTokenGeneratorTutorialStep.server incomingDataRate:vector:max 160
scalar QueueBasedTokenGeneratorTutorialStep.server incomingDataRate:vector:starttime 0.10000000000000001
scalar QueueBasedTokenGeneratorTutorialStep.server incomingDataRate:vector:endtime 10
scalar QueueBasedTokenGeneratorTutorialStep.server outgoingPacketLengths:vector:count 12
scalar QueueBasedTokenGeneratorTutorialStep.server outgoingPacketLengths:vector:sum 96
scalar QueueBasedTokenGeneratorTutorialStep.server outgoingPacketLengths:vector:sumweights 12
scalar QueueBasedTokenGeneratorTutorialStep.server outgoingPacketLengths:vector:mean 8
scalar QueueBasedTokenGeneratorTutorialStep.server outgoingPacketLengths:vector:stddev 0
scalar QueueBasedTokenGeneratorTutorialStep.server outgoingPacketLengths:vector:min 8
scalar QueueBasedTokenGeneratorTutorialStep.server outgoingPacketLengths:vector:max 8
scalar QueueBasedTokenGeneratorTutorialStep.server outgoingPacketLengths:vector:starttime 0
scalar QueueBasedTokenGeneratorTutorialStep.server outgoingPacketLengths:vector:endtime 10
scalar QueueBasedTokenGeneratorTutorialStep.server outgoingDataRate:vector:count 100
scalar QueueBasedTokenGeneratorTutorialStep.server outgoingDataRate:vector:sum 880
scalar QueueBasedTokenGeneratorTutorialStep.server outgoingDataRate:vector:sumweights 100
scalar QueueBasedTokenGeneratorTutorialStep.server outgoingDataRate:vector:mean 8.8000000000000007
scalar QueueBasedTokenGeneratorTutorialStep.server outgoingDataRate:vector:stddev 27.60764057614881
scalar QueueBasedTokenGeneratorTutorialStep.server outgoingDataRate:vector:min 0
scalar QueueBasedTokenGeneratorTutorialStep.server outgoingDataRate:vector:max 160
scalar QueueBasedTokenGeneratorTutorialStep.server outgoingDataRate:vector:starttime 0.10000000000000001
scalar QueueBasedTokenGeneratorTutorialStep.server outgoingDataRate:vector:endtime 10
scalar QueueBasedTokenGeneratorTutorialStep.server numTokens:vector:count 26
scalar QueueBasedTokenGeneratorTutorialStep.server numTokens:vector:sum 158
scalar QueueBasedTokenGeneratorTutorialStep.server numTokens:vector:sumweights 26
scalar QueueBasedTokenGeneratorTutorialStep.server numTokens:vector:mean 6.0769230769230766
scalar QueueBasedTokenGeneratorTutorialStep.server numTokens:vector:stddev 3.7301268281180673
scalar QueueBasedTokenGeneratorTutorialStep.server numTokens:vector:min 0
scalar QueueBasedTokenGeneratorTutorialStep.server numTokens:vector:max 12
scalar QueueBasedTokenGeneratorTutorialStep.server numTokens:vector:starttime 0
scalar QueueBasedTokenGeneratorTutorialStep.server numTokens:vector:endtime 10
scalar QueueBasedTokenGeneratorTutorialStep.queue queueLength:vector:count 27
scalar QueueBasedTokenGeneratorTutorialStep.queue queueLength:vector:sum 11
scalar QueueBasedTokenGeneratorTutorialStep.queue queueLength:vector:sumweights 27
scalar QueueBasedTokenGeneratorTutorialStep.queue queueLength:vector:mean 0.40740740740740738
scalar QueueBasedTokenGeneratorTutorialStep.queue queueLength:vector:stddev 0.50071174413254049
scalar QueueBasedTokenGeneratorTutorialStep.queue queueLength:vector:min 0
scalar QueueBasedTokenGeneratorTutorialStep.queue queueLength:vector:max 1
scalar QueueBasedTokenGeneratorTutorialStep.queue queueLength:vector:starttime 0
scalar QueueBasedTokenGeneratorTutorialStep.queue queueLength:vector:endtime 10
scalar QueueBasedTokenGeneratorTutorialStep.queue queueBitLength:vector:count 27
scalar QueueBasedTokenGeneratorTutorialStep.queue queueBitLength:vector:sum 88
scalar QueueBasedTokenGeneratorTutorialStep.queue queueBitLength:vector:sumweights 27
scalar QueueBasedTokenGeneratorTutorialStep.queue queueBitLength:vector:mean 3.2592592592592591
scalar QueueBasedTokenGeneratorTutorialStep.queue queueBitLength:vector:stddev 4.0056939530603239
scalar QueueBasedTokenGeneratorTutorialStep.queue queueBitLength:vector:min 0
scalar QueueBasedTokenGeneratorTutorialStep.queue queueBitLength:vector:max 8
scalar QueueBasedTokenGeneratorTutorialStep.queue queueBitLength:vector:starttime 0
scalar QueueBasedTokenGeneratorTutorialStep.queue queueBitLength:vector:endtime 10
scalar QueueBasedTokenGeneratorTutorialStep.queue queueingTime:vector:count 11
scalar QueueBasedTokenGeneratorTutorialStep.queue queueingTime:vector:sum 10
scalar QueueBasedTokenGeneratorTutorialStep.queue queueingTime:vector:sumweights 11
scalar QueueBasedTokenGeneratorTutorialStep.queue queueingTime:vector:mean 0.90909090909090906
scalar QueueBasedTokenGeneratorTutorialStep.queue queueingTime:vector:stddev 0.30151134457776346
scalar QueueBasedTokenGeneratorTutorialStep.queue queueingTime:vector:min 0
scalar QueueBasedTokenGeneratorTutorialStep.queue queueingTime:vector:max 1
scalar QueueBasedTokenGeneratorTutorialStep.queue queueingTime:vector:starttime 0
scalar QueueBasedTokenGeneratorTutorialStep.queue queueingTime:vector:endtime 10
scalar QueueBasedTokenGeneratorTutorialStep.queue incomingPacketLengths:vector:count 12
scalar QueueBasedTokenGeneratorTutorialStep.queue incomingPacketLengths:vector:sum 96
scalar QueueBasedTokenGeneratorTutorialStep.queue incomingPacketLengths:vector:sumweights 12
scalar QueueBasedTokenGeneratorTutorialStep.queue incomingPacketLengths:vector:mean 8
scalar QueueBasedTokenGeneratorTutorialStep.queue incomingPacketLengths:vector:stddev 0
scalar QueueBasedTokenGeneratorTutorialStep.queue incomingPacketLengths:vector:min 8
scalar QueueBasedTokenGeneratorTutorialStep.queue incomingPacketLengths:vector:max 8
scalar QueueBasedTokenGeneratorTutorialStep.queue incomingPacketLengths:vector:starttime 0
scalar QueueBasedTokenGeneratorTutorialStep.queue incomingPacketLengths:vector:endtime 10
scalar QueueBasedTokenGeneratorTutorialStep.queue incomingDataRate:vector:count 100
scalar QueueBasedTokenGeneratorTutorialStep.queue incomingDataRate:vector:sum 880
scalar QueueBasedTokenGeneratorTutorialStep.queue incomingDataRate:vector:sumweights 100
scalar QueueBasedTokenGeneratorTutorialStep.queue incomingDataRate:vector:mean 8.8000000000000007
scalar QueueBasedTokenGeneratorTutorialStep.queue incomingDataRate:vector:stddev 27.60764057614881
scalar QueueBasedTokenGeneratorTutorialStep.queue incomingDataRate:vector:min 0
scalar QueueBasedTokenGeneratorTutorialStep.queue incomingDataRate:vector:max 160
scalar QueueBasedTokenGeneratorTutorialStep.queue incomingDataRate:vector:starttime 0.10000000000000001
scalar QueueBasedTokenGeneratorTutorialStep.queue incomingDataRate:vector:endtime 10
scalar QueueBasedTokenGeneratorTutorialStep.queue outgoingPacketLengths:vector:count 11
scalar QueueBasedTokenGeneratorTutorialStep.queue outgoingPacketLengths:vector:sum 88
scalar QueueBasedTokenGeneratorTutorialStep.queue outgoingPacketLengths:vector:sumweights 11
scalar QueueBasedTokenGeneratorTutorialStep.queue outgoingPacketLengths:vector:mean 8
scalar QueueBasedTokenGeneratorTutorialStep.queue outgoingPacketLengths:vector:stddev 0
scalar QueueBasedTokenGeneratorTutorialStep.queue outgoingPacketLengths:vector:min 8
scalar QueueBasedTokenGeneratorTutorialStep.queue outgoingPacketLengths:vector:max 8
scalar QueueBasedTokenGeneratorTutorialStep.queue outgoingPacketLengths:vector:starttime 0
scalar QueueBasedTokenGeneratorTutorialStep.queue outgoingPacketLengths:vector:endtime 10
scalar QueueBasedTokenGeneratorTutorialStep.queue outgoingDataRate:vector:count 100
scalar QueueBasedTokenGeneratorTutorialStep.queue outgoingDataRate:vector:sum 800
scalar QueueBasedTokenGeneratorTutorialStep.queue outgoingDataRate:vector:sumweights 100
scalar QueueBasedTokenGeneratorTutorialStep.queue outgoingDataRate:vector:mean 8
scalar QueueBasedTokenGeneratorTutorialStep.queue outgoingDataRate:vector:stddev 24.120907566221092
scalar QueueBasedTokenGeneratorTutorialStep.queue outgoingDataRate:vector:min 0
scalar QueueBasedTokenGeneratorTutorialStep.queue outgoingDataRate:vector:max 80
scalar QueueBasedTokenGeneratorTutorialStep.queue outgoingDataRate:vector:starttime 0.10000000000000001
scalar QueueBasedTokenGeneratorTutorialStep.queue outgoingDataRate:vector:endtime 10
scalar QueueBasedTokenGeneratorTutorialStep.queue droppedPacketLengthsQueueOverflow:vector:count 0
scalar QueueBasedTokenGeneratorTutorialStep.queue droppedPacketLengthsQueueOverflow:vector:sum 0
scalar QueueBasedTokenGeneratorTutorialStep.queue droppedPacketLengthsQueueOverflow:vector:sumweights 0
scalar QueueBasedTokenGeneratorTutorialStep.queue droppedPacketLengthsQueueOverflow:vector:mean -nan
scalar QueueBasedTokenGeneratorTutorialStep.queue droppedPacketLengthsQueueOverflow:vector:stddev nan
scalar QueueBasedTokenGeneratorTutorialStep.queue droppedPacketLengthsQueueOverflow:vector:min inf
scalar QueueBasedTokenGeneratorTutorialStep.queue droppedPacketLengthsQueueOverflow:vector:max -inf
scalar QueueBasedTokenGeneratorTutorialStep.queue droppedPacketLengthsQueueOverflow:vector:starttime nan
scalar QueueBasedTokenGeneratorTutorialStep.queue droppedPacketLengthsQueueOverflow:vector:endtime nan
scalar QueueBasedTokenGeneratorTutorialStep.queue flowQueueingTime:vector:count 0
scalar QueueBasedTokenGeneratorTutorialStep.queue flowQueueingTime:vector:sum 0
scalar QueueBasedTokenGeneratorTutorialStep.queue flowQueueingTime:vector:sumweights 0
scalar QueueBasedTokenGeneratorTutorialStep.queue flowQueueingTime:vector:mean -nan
scalar QueueBasedTokenGeneratorTutorialStep.queue flowQueueingTime:vector:stddev nan
scalar QueueBasedTokenGeneratorTutorialStep.queue flowQueueingTime:vector:min inf
scalar QueueBasedTokenGeneratorTutorialStep.queue flowQueueingTime:vector:max -inf
scalar QueueBasedTokenGeneratorTutorialStep.queue flowQueueingTime:vector:starttime nan
scalar QueueBasedTokenGeneratorTutorialStep.queue flowQueueingTime:vector:endtime nan
scalar QueueBasedTokenGeneratorTutorialStep.queue flowIncomingDataRate:vector:count 100
scalar QueueBasedTokenGeneratorTutorialStep.queue flowIncomingDataRate:vector:sum 0
scalar QueueBasedTokenGeneratorTutorialStep.queue flowIncomingDataRate:vector:sumweights 100
scalar QueueBasedTokenGeneratorTutorialStep.queue flowIncomingDataRate:vector:mean 0
scalar QueueBasedTokenGeneratorTutorialStep.queue flowIncomingDataRate:vector:stddev 0
scalar QueueBasedTokenGeneratorTutorialStep.queue flowIncomingDataRate:vector:min 0
scalar QueueBasedTokenGeneratorTutorialStep.queue flowIncomingDataRate:vector:max 0
scalar QueueBasedTokenGeneratorTutorialStep.queue flowIncomingDataRate:vector:starttime 0.10000000000000001
scalar QueueBasedTokenGeneratorTutorialStep.queue flowIncomingDataRate:vector:endtime 10
scalar QueueBasedTokenGeneratorTutorialStep.queue flowOutgoingDataRate:vector:count 100
scalar QueueBasedTokenGeneratorTutorialStep.queue flowOutgoingDataRate:vector:sum 0
scalar QueueBasedTokenGeneratorTutorialStep.queue flowOutgoingDataRate:vector:sumweights 100
scalar QueueBasedTokenGeneratorTutorialStep.queue flowOutgoingDataRate:vector:mean 0
scalar QueueBasedTokenGeneratorTutorialStep.queue flowOutgoingDataRate:vector:stddev 0
scalar QueueBasedTokenGeneratorTutorialStep.queue flowOutgoingDataRate:vector:min 0
scalar QueueBasedTokenGeneratorTutorialStep.queue flowOutgoingDataRate:vector:max 0
scalar QueueBasedTokenGeneratorTutorialStep.queue flowOutgoingDataRate:vector:starttime 0.10000000000000001
scalar QueueBasedTokenGeneratorTutorialStep.queue flowOutgoingDataRate:vector:endtime 10
scalar QueueBasedTokenGeneratorTutorialStep.collector droppedPacketLengths:vector:count 11
scalar QueueBasedTokenGeneratorTutorialStep.collector droppedPacketLengths:vector:sum 88
scalar QueueBasedTokenGeneratorTutorialStep.collector droppedPacketLengths:vector:sumweights 11
scalar QueueBasedTokenGeneratorTutorialStep.collector droppedPacketLengths:vector:mean 8
scalar QueueBasedTokenGeneratorTutorialStep.collector droppedPacketLengths:vector:stddev 0
scalar QueueBasedTokenGeneratorTutorialStep.collector droppedPacketLengths:vector:min 8
scalar QueueBasedTokenGeneratorTutorialStep.collector droppedPacketLengths:vector:max 8
scalar QueueBasedTokenGeneratorTutorialStep.collector droppedPacketLengths:vector:starttime 0
scalar QueueBasedTokenGeneratorTutorialStep.collector droppedPacketLengths:vector:endtime 10
scalar QueueBasedTokenGeneratorTutorialStep.collector droppedDataRate:vector:count 100
scalar QueueBasedTokenGeneratorTutorialStep.collector droppedDataRate:vector:sum 800
scalar QueueBasedTokenGeneratorTutorialStep.collector droppedDataRate:vector:sumweights 100
scalar QueueBasedTokenGeneratorTutorialStep.collector droppedDataRate:vector:mean 8
scalar QueueBasedTokenGeneratorTutorialStep.collector droppedDataRate:vector:stddev 24.120907566221092
scalar QueueBasedTokenGeneratorTutorialStep.collector droppedDataRate:vector:min 0
scalar QueueBasedTokenGeneratorTutorialStep.collector droppedDataRate:vector:max 80
scalar QueueBasedTokenGeneratorTutorialStep.collector droppedDataRate:vector:starttime 0.10000000000000001
scalar QueueBasedTokenGeneratorTutorialStep.collector droppedDataRate:vector:endtime 10
scalar QueueBasedTokenGeneratorTutorialStep.collector packetLengths:vector:count 11
scalar QueueBasedTokenGeneratorTutorialStep.collector packetLengths:vector:sum 88
scalar QueueBasedTokenGeneratorTutorialStep.collector packetLengths:vector:sumweights 11
scalar QueueBasedTokenGeneratorTutorialStep.collector packetLengths:vector:mean 8
scalar QueueBasedTokenGeneratorTutorialStep.collector packetLengths:vector:stddev 0
scalar QueueBasedTokenGeneratorTutorialStep.collector packetLengths:vector:min 8
scalar QueueBasedTokenGeneratorTutorialStep.collector packetLengths:vector:max 8
scalar QueueBasedTokenGeneratorTutorialStep.collector packetLengths:vector:starttime 0
scalar QueueBasedTokenGeneratorTutorialStep.collector packetLengths:vector:endtime 10
scalar QueueBasedTokenGeneratorTutorialStep.collector dataRate:vector:count 100
scalar QueueBasedTokenGeneratorTutorialStep.collector dataRate:vector:sum 800
scalar QueueBasedTokenGeneratorTutorialStep.collector dataRate:vector:sumweights 100
scalar QueueBasedTokenGeneratorTutorialStep.collector dataRate:vector:mean 8
scalar QueueBasedTokenGeneratorTutorialStep.collector dataRate:vector:stddev 24.120907566221092
scalar QueueBasedTokenGeneratorTutorialStep.collector dataRate:vector:min 0
scalar QueueBasedTokenGeneratorTutorialStep.collector dataRate:vector:max 80
scalar QueueBasedTokenGeneratorTutorialStep.collector dataRate:vector:starttime 0.10000000000000001
scalar QueueBasedTokenGeneratorTutorialStep.collector dataRate:vector:endtime 10
scalar QueueBasedTokenGeneratorTutorialStep.collector meanBitLifeTimePerPacket:vector:count 11
scalar QueueBasedTokenGeneratorTutorialStep.collector meanBitLifeTimePerPacket:vector:sum 19
scalar QueueBasedTokenGeneratorTutorialStep.collector meanBitLifeTimePerPacket:vector:sumweights 11
scalar QueueBasedTokenGeneratorTutorialStep.collector meanBitLifeTimePerPacket:vector:mean 1.7272727272727273
scalar QueueBasedTokenGeneratorTutorialStep.collector meanBitLifeTimePerPacket:vector:stddev 0.64666979068286312
scalar QueueBasedTokenGeneratorTutorialStep.collector meanBitLifeTimePerPacket:vector:min 0
scalar QueueBasedTokenGeneratorTutorialStep.collector meanBitLifeTimePerPacket:vector:max 2
scalar QueueBasedTokenGeneratorTutorialStep.collector meanBitLifeTimePerPacket:vector:starttime 0
scalar QueueBasedTokenGeneratorTutorialStep.collector meanBitLifeTimePerPacket:vector:endtime 10
scalar QueueBasedTokenGeneratorTutorialStep.collector packetLifeTime:vector:count 11
scalar QueueBasedTokenGeneratorTutorialStep.collector packetLifeTime:vector:sum 19
scalar QueueBasedTokenGeneratorTutorialStep.collector packetLifeTime:vector:sumweights 11
scalar QueueBasedTokenGeneratorTutorialStep.collector packetLifeTime:vector:mean 1.7272727272727273
scalar QueueBasedTokenGeneratorTutorialStep.collector packetLifeTime:vector:stddev 0.64666979068286312
scalar QueueBasedTokenGeneratorTutorialStep.collector packetLifeTime:vector:min 0
scalar QueueBasedTokenGeneratorTutorialStep.collector packetLifeTime:vector:max 2
scalar QueueBasedTokenGeneratorTutorialStep.collector packetLifeTime:vector:starttime 0
scalar QueueBasedTokenGeneratorTutorialStep.collector packetLifeTime:vector:endtime 10
scalar QueueBasedTokenGeneratorTutorialStep.collector packetJitter:vector:count 11
scalar QueueBasedTokenGeneratorTutorialStep.collector packetJitter:vector:sum 2
scalar QueueBasedTokenGeneratorTutorialStep.collector packetJitter:vector:sumweights 11
scalar QueueBasedTokenGeneratorTutorialStep.collector packetJitter:vector:mean 0.18181818181818182
scalar QueueBasedTokenGeneratorTutorialStep.collector packetJitter:vector:stddev 0.40451991747794525
scalar QueueBasedTokenGeneratorTutorialStep.collector packetJitter:vector:min 0
scalar QueueBasedTokenGeneratorTutorialStep.collector packetJitter:vector:max 1
scalar QueueBasedTokenGeneratorTutorialStep.collector packetJitter:vector:starttime 0
scalar QueueBasedTokenGeneratorTutorialStep.collector packetJitter:vector:endtime 10
scalar QueueBasedTokenGeneratorTutorialStep.collector packetDelayDifferenceToMean:vector:count 11
scalar QueueBasedTokenGeneratorTutorialStep.collector packetDelayDifferenceToMean:vector:sum -5.0596320346320338
scalar QueueBasedTokenGeneratorTutorialStep.collector packetDelayDifferenceToMean:vector:sumweights 11
scalar QueueBasedTokenGeneratorTutorialStep.collector packetDelayDifferenceToMean:vector:mean -0.45996654860291214
scalar QueueBasedTokenGeneratorTutorialStep.collector packetDelayDifferenceToMean:vector:stddev 0.26363388659610815
scalar QueueBasedTokenGeneratorTutorialStep.collector packetDelayDifferenceToMean:vector:min -1
scalar QueueBasedTokenGeneratorTutorialStep.collector packetDelayDifferenceToMean:vector:max 0
scalar QueueBasedTokenGeneratorTutorialStep.collector packetDelayDifferenceToMean:vector:starttime 0
scalar QueueBasedTokenGeneratorTutorialStep.collector packetDelayDifferenceToMean:vector:endtime 10
scalar QueueBasedTokenGeneratorTutorialStep.collector packetDelayVariation:vector:count 11
scalar QueueBasedTokenGeneratorTutorialStep.collector packetDelayVariation:vector:sum 9.4711862204636983
scalar QueueBasedTokenGeneratorTutorialStep.collector packetDelayVariation:vector:sumweights 11
scalar QueueBasedTokenGeneratorTutorialStep.collector packetDelayVariation:vector:mean 0.86101692913306349
scalar QueueBasedTokenGeneratorTutorialStep.collector packetDelayVariation:vector:stddev 0.35550203699505861
scalar QueueBasedTokenGeneratorTutorialStep.collector packetDelayVariation:vector:min 0
scalar QueueBasedTokenGeneratorTutorialStep.collector packetDelayVariation:vector:max 1.2535663410560174
scalar QueueBasedTokenGeneratorTutorialStep.collector packetDelayVariation:vector:starttime 0
scalar QueueBasedTokenGeneratorTutorialStep.collector packetDelayVariation:vector:endtime 10
scalar QueueBasedTokenGeneratorTutorialStep.tokenGenerator numTokensCreated:vector:count 12
scalar QueueBasedTokenGeneratorTutorialStep.tokenGenerator numTokensCreated:vector:sum 12
scalar QueueBasedTokenGeneratorTutorialStep.tokenGenerator numTokensCreated:vector:sumweights 12
scalar QueueBasedTokenGeneratorTutorialStep.tokenGenerator numTokensCreated:vector:mean 1
scalar QueueBasedTokenGeneratorTutorialStep.tokenGenerator numTokensCreated:vector:stddev 0
scalar QueueBasedTokenGeneratorTutorialStep.tokenGenerator numTokensCreated:vector:min 1
scalar QueueBasedTokenGeneratorTutorialStep.tokenGenerator numTokensCreated:vector:max 1
scalar QueueBasedTokenGeneratorTutorialStep.tokenGenerator numTokensCreated:vector:starttime 0
scalar QueueBasedTokenGeneratorTutorialStep.tokenGenerator numTokensCreated:vector:endtime 10

