version 3
run TimeBasedTokenGenerator-0-20251118-12:02:02-115455
attr configname TimeBasedTokenGenerator
attr datetime 20251118-12:02:02
attr datetimef 20251118-120202
attr experiment TimeBasedTokenGenerator
attr inifile omnetpp.ini
attr iterationvars ""
attr iterationvarsd ""
attr iterationvarsf ""
attr measurement ""
attr network TimeBasedTokenGeneratorTutorialStep
attr processid 115455
attr repetition 0
attr replication #0
attr resultdir results
attr runnumber 0
attr seedset 0
config **.param-recording false
config image-path /home/zoli/Projects/OMNET/inet/images
config output-scalar-file results/omnetpp.ini-TimeBasedTokenGenerator-#0.sca
config output-scalar-precision 17
config output-vector-file results/omnetpp.ini-TimeBasedTokenGenerator-#0.vec
config output-vector-precision 17
config record-eventlog false
config sim-time-limit 10s
config network TimeBasedTokenGeneratorTutorialStep
config sim-time-limit 10s
config *.provider.packetLength 1B
config *.tokenGenerator.generationInterval intuniform(1s,2s)
config *.tokenGenerator.numTokens intuniform(1,2)
config *.server.tokenConsumptionPerPacket intuniform(1,2)

scalar TimeBasedTokenGeneratorTutorialStep.provider packets:count 6
scalar TimeBasedTokenGeneratorTutorialStep.provider packetLengths:sum 48
scalar TimeBasedTokenGeneratorTutorialStep.server numTokensDepleted:count 5
scalar TimeBasedTokenGeneratorTutorialStep.server removedTokens:sum 6
scalar TimeBasedTokenGeneratorTutorialStep.server addedTokens:sum 11
scalar TimeBasedTokenGeneratorTutorialStep.server incomingPackets:count 6
scalar TimeBasedTokenGeneratorTutorialStep.server incomingPacketLengths:sum 48
scalar TimeBasedTokenGeneratorTutorialStep.server outgoingPackets:count 6
scalar TimeBasedTokenGeneratorTutorialStep.server outgoingPacketLengths:sum 48
scalar TimeBasedTokenGeneratorTutorialStep.consumer packets:count 6
scalar TimeBasedTokenGeneratorTutorialStep.consumer packetLengths:sum 48
scalar TimeBasedTokenGeneratorTutorialStep.consumer droppedPackets:count 6
scalar TimeBasedTokenGeneratorTutorialStep.consumer droppedPacketLengths:sum 48
scalar TimeBasedTokenGeneratorTutorialStep.tokenGenerator tokensCreated:count 6
scalar TimeBasedTokenGeneratorTutorialStep.tokenGenerator numTokensCreated:sum 8
scalar TimeBasedTokenGeneratorTutorialStep.provider packetLengths:histogram:count 6
scalar TimeBasedTokenGeneratorTutorialStep.provider packetLengths:histogram:sumweights 6
scalar TimeBasedTokenGeneratorTutorialStep.provider packetLengths:histogram:mean 8
scalar TimeBasedTokenGeneratorTutorialStep.provider packetLengths:histogram:stddev 0
scalar TimeBasedTokenGeneratorTutorialStep.provider packetLengths:histogram:min 8
scalar TimeBasedTokenGeneratorTutorialStep.provider packetLengths:histogram:max 8
scalar TimeBasedTokenGeneratorTutorialStep.provider packetLengths:histogram:numbins 2
scalar TimeBasedTokenGeneratorTutorialStep.provider packetLengths:histogram:rangemin 7
scalar TimeBasedTokenGeneratorTutorialStep.provider packetLengths:histogram:rangemax 9
scalar TimeBasedTokenGeneratorTutorialStep.provider packetLengths:histogram:underflows 0
scalar TimeBasedTokenGeneratorTutorialStep.provider packetLengths:histogram:overflows 0
scalar TimeBasedTokenGeneratorTutorialStep.server incomingPacketLengths:histogram:count 6
scalar TimeBasedTokenGeneratorTutorialStep.server incomingPacketLengths:histogram:sumweights 6
scalar TimeBasedTokenGeneratorTutorialStep.server incomingPacketLengths:histogram:mean 8
scalar TimeBasedTokenGeneratorTutorialStep.server incomingPacketLengths:histogram:stddev 0
scalar TimeBasedTokenGeneratorTutorialStep.server incomingPacketLengths:histogram:min 8
scalar TimeBasedTokenGeneratorTutorialStep.server incomingPacketLengths:histogram:max 8
scalar TimeBasedTokenGeneratorTutorialStep.server incomingPacketLengths:histogram:numbins 2
scalar TimeBasedTokenGeneratorTutorialStep.server incomingPacketLengths:histogram:rangemin 7
scalar TimeBasedTokenGeneratorTutorialStep.server incomingPacketLengths:histogram:rangemax 9
scalar TimeBasedTokenGeneratorTutorialStep.server incomingPacketLengths:histogram:underflows 0
scalar TimeBasedTokenGeneratorTutorialStep.server incomingPacketLengths:histogram:overflows 0
scalar TimeBasedTokenGeneratorTutorialStep.server outgoingPacketLengths:histogram:count 6
scalar TimeBasedTokenGeneratorTutorialStep.server outgoingPacketLengths:histogram:sumweights 6
scalar TimeBasedTokenGeneratorTutorialStep.server outgoingPacketLengths:histogram:mean 8
scalar TimeBasedTokenGeneratorTutorialStep.server outgoingPacketLengths:histogram:stddev 0
scalar TimeBasedTokenGeneratorTutorialStep.server outgoingPacketLengths:histogram:min 8
scalar TimeBasedTokenGeneratorTutorialStep.server outgoingPacketLengths:histogram:max 8
scalar TimeBasedTokenGeneratorTutorialStep.server outgoingPacketLengths:histogram:numbins 2
scalar TimeBasedTokenGeneratorTutorialStep.server outgoingPacketLengths:histogram:rangemin 7
scalar TimeBasedTokenGeneratorTutorialStep.server outgoingPacketLengths:histogram:rangemax 9
scalar TimeBasedTokenGeneratorTutorialStep.server outgoingPacketLengths:histogram:underflows 0
scalar TimeBasedTokenGeneratorTutorialStep.server outgoingPacketLengths:histogram:overflows 0
scalar TimeBasedTokenGeneratorTutorialStep.consumer packetLengths:histogram:count 6
scalar TimeBasedTokenGeneratorTutorialStep.consumer packetLengths:histogram:sumweights 6
scalar TimeBasedTokenGeneratorTutorialStep.consumer packetLengths:histogram:mean 8
scalar TimeBasedTokenGeneratorTutorialStep.consumer packetLengths:histogram:stddev 0
scalar TimeBasedTokenGeneratorTutorialStep.consumer packetLengths:histogram:min 8
scalar TimeBasedTokenGeneratorTutorialStep.consumer packetLengths:histogram:max 8
scalar TimeBasedTokenGeneratorTutorialStep.consumer packetLengths:histogram:numbins 2
scalar TimeBasedTokenGeneratorTutorialStep.consumer packetLengths:histogram:rangemin 7
scalar TimeBasedTokenGeneratorTutorialStep.consumer packetLengths:histogram:rangemax 9
scalar TimeBasedTokenGeneratorTutorialStep.consumer packetLengths:histogram:underflows 0
scalar TimeBasedTokenGeneratorTutorialStep.consumer packetLengths:histogram:overflows 0
scalar TimeBasedTokenGeneratorTutorialStep.consumer meanBitLifeTimePerPacket:histogram:count 6
scalar TimeBasedTokenGeneratorTutorialStep.consumer meanBitLifeTimePerPacket:histogram:sumweights 6
scalar TimeBasedTokenGeneratorTutorialStep.consumer meanBitLifeTimePerPacket:histogram:mean 1.1666666666666667
scalar TimeBasedTokenGeneratorTutorialStep.consumer meanBitLifeTimePerPacket:histogram:stddev 0.98319208025017513
scalar TimeBasedTokenGeneratorTutorialStep.consumer meanBitLifeTimePerPacket:histogram:min 0
scalar TimeBasedTokenGeneratorTutorialStep.consumer meanBitLifeTimePerPacket:histogram:max 2
scalar TimeBasedTokenGeneratorTutorialStep.consumer meanBitLifeTimePerPacket:histogram:numbins 3
scalar TimeBasedTokenGeneratorTutorialStep.consumer meanBitLifeTimePerPacket:histogram:rangemin 0
scalar TimeBasedTokenGeneratorTutorialStep.consumer meanBitLifeTimePerPacket:histogram:rangemax 3
scalar TimeBasedTokenGeneratorTutorialStep.consumer meanBitLifeTimePerPacket:histogram:underflows 0
scalar TimeBasedTokenGeneratorTutorialStep.consumer meanBitLifeTimePerPacket:histogram:overflows 0
scalar TimeBasedTokenGeneratorTutorialStep.consumer packetLifeTime:histogram:count 6
scalar TimeBasedTokenGeneratorTutorialStep.consumer packetLifeTime:histogram:sumweights 6
scalar TimeBasedTokenGeneratorTutorialStep.consumer packetLifeTime:histogram:mean 1.1666666666666667
scalar TimeBasedTokenGeneratorTutorialStep.consumer packetLifeTime:histogram:stddev 0.98319208025017513
scalar TimeBasedTokenGeneratorTutorialStep.consumer packetLifeTime:histogram:min 0
scalar TimeBasedTokenGeneratorTutorialStep.consumer packetLifeTime:histogram:max 2
scalar TimeBasedTokenGeneratorTutorialStep.consumer packetLifeTime:histogram:numbins 3
scalar TimeBasedTokenGeneratorTutorialStep.consumer packetLifeTime:histogram:rangemin 0
scalar TimeBasedTokenGeneratorTutorialStep.consumer packetLifeTime:histogram:rangemax 3
scalar TimeBasedTokenGeneratorTutorialStep.consumer packetLifeTime:histogram:underflows 0
scalar TimeBasedTokenGeneratorTutorialStep.consumer packetLifeTime:histogram:overflows 0
scalar TimeBasedTokenGeneratorTutorialStep.consumer packetJitter:histogram:count 6
scalar TimeBasedTokenGeneratorTutorialStep.consumer packetJitter:histogram:sumweights 6
scalar TimeBasedTokenGeneratorTutorialStep.consumer packetJitter:histogram:mean 0
scalar TimeBasedTokenGeneratorTutorialStep.consumer packetJitter:histogram:stddev 1.4142135623730951
scalar TimeBasedTokenGeneratorTutorialStep.consumer packetJitter:histogram:min -2
scalar TimeBasedTokenGeneratorTutorialStep.consumer packetJitter:histogram:max 2
scalar TimeBasedTokenGeneratorTutorialStep.consumer packetJitter:histogram:numbins 6
scalar TimeBasedTokenGeneratorTutorialStep.consumer packetJitter:histogram:rangemin -3
scalar TimeBasedTokenGeneratorTutorialStep.consumer packetJitter:histogram:rangemax 3
scalar TimeBasedTokenGeneratorTutorialStep.consumer packetJitter:histogram:underflows 0
scalar TimeBasedTokenGeneratorTutorialStep.consumer packetJitter:histogram:overflows 0
scalar TimeBasedTokenGeneratorTutorialStep.consumer packetDelayDifferenceToMean:histogram:count 6
scalar TimeBasedTokenGeneratorTutorialStep.consumer packetDelayDifferenceToMean:histogram:sumweights 6
scalar TimeBasedTokenGeneratorTutorialStep.consumer packetDelayDifferenceToMean:histogram:mean 0.51111111111111107
scalar TimeBasedTokenGeneratorTutorialStep.consumer packetDelayDifferenceToMean:histogram:stddev 0.66388307761287368
scalar TimeBasedTokenGeneratorTutorialStep.consumer packetDelayDifferenceToMean:histogram:min 0
scalar TimeBasedTokenGeneratorTutorialStep.consumer packetDelayDifferenceToMean:histogram:max 1.5
scalar TimeBasedTokenGeneratorTutorialStep.consumer packetDelayDifferenceToMean:histogram:numbins 94
scalar TimeBasedTokenGeneratorTutorialStep.consumer packetDelayDifferenceToMean:histogram:rangemin 0
scalar TimeBasedTokenGeneratorTutorialStep.consumer packetDelayDifferenceToMean:histogram:rangemax 1.8800000000000001
scalar TimeBasedTokenGeneratorTutorialStep.consumer packetDelayDifferenceToMean:histogram:underflows 0
scalar TimeBasedTokenGeneratorTutorialStep.consumer packetDelayDifferenceToMean:histogram:overflows 0
scalar TimeBasedTokenGeneratorTutorialStep.consumer packetDelayVariation:histogram:count 6
scalar TimeBasedTokenGeneratorTutorialStep.consumer packetDelayVariation:histogram:sumweights 6
scalar TimeBasedTokenGeneratorTutorialStep.consumer packetDelayVariation:histogram:mean 0.66827263838476003
scalar TimeBasedTokenGeneratorTutorialStep.consumer packetDelayVariation:histogram:stddev 0.76350153677230481
scalar TimeBasedTokenGeneratorTutorialStep.consumer packetDelayVariation:histogram:min -0
scalar TimeBasedTokenGeneratorTutorialStep.consumer packetDelayVariation:histogram:max 1.7320508075688772
scalar TimeBasedTokenGeneratorTutorialStep.consumer packetDelayVariation:histogram:numbins 44
scalar TimeBasedTokenGeneratorTutorialStep.consumer packetDelayVariation:histogram:rangemin 0
scalar TimeBasedTokenGeneratorTutorialStep.consumer packetDelayVariation:histogram:rangemax 2.2000000000000002
scalar TimeBasedTokenGeneratorTutorialStep.consumer packetDelayVariation:histogram:underflows 0
scalar TimeBasedTokenGeneratorTutorialStep.consumer packetDelayVariation:histogram:overflows 0
scalar TimeBasedTokenGeneratorTutorialStep.consumer droppedPacketLengths:histogram:count 6
scalar TimeBasedTokenGeneratorTutorialStep.consumer droppedPacketLengths:histogram:sumweights 6
scalar TimeBasedTokenGeneratorTutorialStep.consumer droppedPacketLengths:histogram:mean 8
scalar TimeBasedTokenGeneratorTutorialStep.consumer droppedPacketLengths:histogram:stddev 0
scalar TimeBasedTokenGeneratorTutorialStep.consumer droppedPacketLengths:histogram:min 8
scalar TimeBasedTokenGeneratorTutorialStep.consumer droppedPacketLengths:histogram:max 8
scalar TimeBasedTokenGeneratorTutorialStep.consumer droppedPacketLengths:histogram:numbins 2
scalar TimeBasedTokenGeneratorTutorialStep.consumer droppedPacketLengths:histogram:rangemin 7
scalar TimeBasedTokenGeneratorTutorialStep.consumer droppedPacketLengths:histogram:rangemax 9
scalar TimeBasedTokenGeneratorTutorialStep.consumer droppedPacketLengths:histogram:underflows 0
scalar TimeBasedTokenGeneratorTutorialStep.consumer droppedPacketLengths:histogram:overflows 0
statistic TimeBasedTokenGeneratorTutorialStep.provider packetLengths:histogram
field count 6
field mean 8
field stddev 0
field min 8
field max 8
field sum 48
field sqrsum 384
bin	-inf	0
bin	7	0
bin	8	6
bin	9	0
statistic TimeBasedTokenGeneratorTutorialStep.server incomingPacketLengths:histogram
field count 6
field mean 8
field stddev 0
field min 8
field max 8
field sum 48
field sqrsum 384
bin	-inf	0
bin	7	0
bin	8	6
bin	9	0
statistic TimeBasedTokenGeneratorTutorialStep.server outgoingPacketLengths:histogram
field count 6
field mean 8
field stddev 0
field min 8
field max 8
field sum 48
field sqrsum 384
bin	-inf	0
bin	7	0
bin	8	6
bin	9	0
statistic TimeBasedTokenGeneratorTutorialStep.consumer packetLengths:histogram
field count 6
field mean 8
field stddev 0
field min 8
field max 8
field sum 48
field sqrsum 384
bin	-inf	0
bin	7	0
bin	8	6
bin	9	0
statistic TimeBasedTokenGeneratorTutorialStep.consumer meanBitLifeTimePerPacket:histogram
field count 6
field mean 1.1666666666666667
field stddev 0.98319208025017513
field min 0
field max 2
field sum 7
field sqrsum 13
bin	-inf	0
bin	0	2
bin	1	1
bin	2	3
bin	3	0
statistic TimeBasedTokenGeneratorTutorialStep.consumer packetLifeTime:histogram
field count 6
field mean 1.1666666666666667
field stddev 0.98319208025017513
field min 0
field max 2
field sum 7
field sqrsum 13
bin	-inf	0
bin	0	2
bin	1	1
bin	2	3
bin	3	0
statistic TimeBasedTokenGeneratorTutorialStep.consumer packetJitter:histogram
field count 6
field mean 0
field stddev 1.4142135623730951
field min -2
field max 2
field sum 0
field sqrsum 10
bin	-inf	0
bin	-3	0
bin	-2	1
bin	-1	1
bin	0	2
bin	1	1
bin	2	1
bin	3	0
statistic TimeBasedTokenGeneratorTutorialStep.consumer packetDelayDifferenceToMean:histogram
field count 6
field mean 0.51111111111111107
field stddev 0.66388307761287368
field min 0
field max 1.5
field sum 3.0666666666666664
field sqrsum 3.7711111111111117
bin	-inf	0
bin	0	3
bin	0.02	0
bin	0.040000000000000001	0
bin	0.059999999999999998	0
bin	0.080000000000000002	0
bin	0.10000000000000001	0
bin	0.12	0
bin	0.14000000000000001	0
bin	0.16	0
bin	0.17999999999999999	0
bin	0.20000000000000001	0
bin	0.22	0
bin	0.23999999999999999	0
bin	0.26000000000000001	0
bin	0.28000000000000003	0
bin	0.29999999999999999	0
bin	0.32000000000000001	0
bin	0.34000000000000002	0
bin	0.35999999999999999	0
bin	0.38	1
bin	0.40000000000000002	0
bin	0.41999999999999998	0
bin	0.44	0
bin	0.46000000000000002	0
bin	0.47999999999999998	0
bin	0.5	0
bin	0.52000000000000002	0
bin	0.54000000000000004	0
bin	0.56000000000000005	0
bin	0.57999999999999996	0
bin	0.59999999999999998	0
bin	0.62	0
bin	0.64000000000000001	0
bin	0.66000000000000003	0
bin	0.68000000000000005	0
bin	0.70000000000000007	0
bin	0.71999999999999997	0
bin	0.73999999999999999	0
bin	0.76000000000000001	0
bin	0.78000000000000003	0
bin	0.80000000000000004	0
bin	0.82000000000000006	0
bin	0.83999999999999997	0
bin	0.85999999999999999	0
bin	0.88	0
bin	0.90000000000000002	0
bin	0.92000000000000004	0
bin	0.94000000000000006	0
bin	0.95999999999999996	0
bin	0.97999999999999998	0
bin	1	0
bin	1.02	0
bin	1.04	0
bin	1.0600000000000001	0
bin	1.0800000000000001	0
bin	1.1000000000000001	0
bin	1.1200000000000001	0
bin	1.1400000000000001	0
bin	1.1599999999999999	1
bin	1.1799999999999999	0
bin	1.2	0
bin	1.22	0
bin	1.24	0
bin	1.26	0
bin	1.28	0
bin	1.3	0
bin	1.3200000000000001	0
bin	1.3400000000000001	0
bin	1.3600000000000001	0
bin	1.3800000000000001	0
bin	1.4000000000000001	0
bin	1.4199999999999999	0
bin	1.4399999999999999	0
bin	1.46	0
bin	1.48	0
bin	1.5	1
bin	1.52	0
bin	1.54	0
bin	1.5600000000000001	0
bin	1.5800000000000001	0
bin	1.6000000000000001	0
bin	1.6200000000000001	0
bin	1.6400000000000001	0
bin	1.6600000000000001	0
bin	1.6799999999999999	0
bin	1.7	0
bin	1.72	0
bin	1.74	0
bin	1.76	0
bin	1.78	0
bin	1.8	0
bin	1.8200000000000001	0
bin	1.8400000000000001	0
bin	1.8600000000000001	0
bin	1.8800000000000001	0
statistic TimeBasedTokenGeneratorTutorialStep.consumer packetDelayVariation:histogram
field count 6
field mean 0.66827263838476003
field stddev 0.76350153677230481
field min -0
field max 1.7320508075688772
field sum 4.00963583030856
field sqrsum 5.5942028985507246
bin	-inf	0
bin	0	3
bin	0.050000000000000003	0
bin	0.10000000000000001	0
bin	0.15000000000000002	0
bin	0.20000000000000001	0
bin	0.25	0
bin	0.30000000000000004	0
bin	0.35000000000000003	0
bin	0.40000000000000002	0
bin	0.45000000000000001	0
bin	0.5	0
bin	0.55000000000000004	0
bin	0.60000000000000009	0
bin	0.65000000000000002	0
bin	0.70000000000000007	0
bin	0.75	0
bin	0.80000000000000004	0
bin	0.85000000000000009	0
bin	0.90000000000000002	0
bin	0.95000000000000007	0
bin	1	0
bin	1.05	0
bin	1.1000000000000001	1
bin	1.1500000000000001	1
bin	1.2000000000000002	0
bin	1.25	0
bin	1.3	0
bin	1.3500000000000001	0
bin	1.4000000000000001	0
bin	1.4500000000000002	0
bin	1.5	0
bin	1.55	0
bin	1.6000000000000001	0
bin	1.6500000000000001	0
bin	1.7000000000000002	1
bin	1.75	0
bin	1.8	0
bin	1.8500000000000001	0
bin	1.9000000000000001	0
bin	1.9500000000000002	0
bin	2	0
bin	2.0500000000000003	0
bin	2.1000000000000001	0
bin	2.1499999999999999	0
bin	2.2000000000000002	0
statistic TimeBasedTokenGeneratorTutorialStep.consumer droppedPacketLengths:histogram
field count 6
field mean 8
field stddev 0
field min 8
field max 8
field sum 48
field sqrsum 384
bin	-inf	0
bin	7	0
bin	8	6
bin	9	0
scalar TimeBasedTokenGeneratorTutorialStep.provider packetLengths:vector:count 6
scalar TimeBasedTokenGeneratorTutorialStep.provider packetLengths:vector:sum 48
scalar TimeBasedTokenGeneratorTutorialStep.provider packetLengths:vector:sumweights 6
scalar TimeBasedTokenGeneratorTutorialStep.provider packetLengths:vector:mean 8
scalar TimeBasedTokenGeneratorTutorialStep.provider packetLengths:vector:stddev 0
scalar TimeBasedTokenGeneratorTutorialStep.provider packetLengths:vector:min 8
scalar TimeBasedTokenGeneratorTutorialStep.provider packetLengths:vector:max 8
scalar TimeBasedTokenGeneratorTutorialStep.provider packetLengths:vector:starttime 2
scalar TimeBasedTokenGeneratorTutorialStep.provider packetLengths:vector:endtime 7
scalar TimeBasedTokenGeneratorTutorialStep.provider dataRate:vector:count 100
scalar TimeBasedTokenGeneratorTutorialStep.provider dataRate:vector:sum 480
scalar TimeBasedTokenGeneratorTutorialStep.provider dataRate:vector:sumweights 100
scalar TimeBasedTokenGeneratorTutorialStep.provider dataRate:vector:mean 4.7999999999999998
scalar TimeBasedTokenGeneratorTutorialStep.provider dataRate:vector:stddev 24.963812192690426
scalar TimeBasedTokenGeneratorTutorialStep.provider dataRate:vector:min 0
scalar TimeBasedTokenGeneratorTutorialStep.provider dataRate:vector:max 160
scalar TimeBasedTokenGeneratorTutorialStep.provider dataRate:vector:starttime 0.10000000000000001
scalar TimeBasedTokenGeneratorTutorialStep.provider dataRate:vector:endtime 10
scalar TimeBasedTokenGeneratorTutorialStep.server incomingPacketLengths:vector:count 6
scalar TimeBasedTokenGeneratorTutorialStep.server incomingPacketLengths:vector:sum 48
scalar TimeBasedTokenGeneratorTutorialStep.server incomingPacketLengths:vector:sumweights 6
scalar TimeBasedTokenGeneratorTutorialStep.server incomingPacketLengths:vector:mean 8
scalar TimeBasedTokenGeneratorTutorialStep.server incomingPacketLengths:vector:stddev 0
scalar TimeBasedTokenGeneratorTutorialStep.server incomingPacketLengths:vector:min 8
scalar TimeBasedTokenGeneratorTutorialStep.server incomingPacketLengths:vector:max 8
scalar TimeBasedTokenGeneratorTutorialStep.server incomingPacketLengths:vector:starttime 2
scalar TimeBasedTokenGeneratorTutorialStep.server incomingPacketLengths:vector:endtime 7
scalar TimeBasedTokenGeneratorTutorialStep.server incomingDataRate:vector:count 100
scalar TimeBasedTokenGeneratorTutorialStep.server incomingDataRate:vector:sum 480
scalar TimeBasedTokenGeneratorTutorialStep.server incomingDataRate:vector:sumweights 100
scalar TimeBasedTokenGeneratorTutorialStep.server incomingDataRate:vector:mean 4.7999999999999998
scalar TimeBasedTokenGeneratorTutorialStep.server incomingDataRate:vector:stddev 24.963812192690426
scalar TimeBasedTokenGeneratorTutorialStep.server incomingDataRate:vector:min 0
scalar TimeBasedTokenGeneratorTutorialStep.server incomingDataRate:vector:max 160
scalar TimeBasedTokenGeneratorTutorialStep.server incomingDataRate:vector:starttime 0.10000000000000001
scalar TimeBasedTokenGeneratorTutorialStep.server incomingDataRate:vector:endtime 10
scalar TimeBasedTokenGeneratorTutorialStep.server outgoingPacketLengths:vector:count 6
scalar TimeBasedTokenGeneratorTutorialStep.server outgoingPacketLengths:vector:sum 48
scalar TimeBasedTokenGeneratorTutorialStep.server outgoingPacketLengths:vector:sumweights 6
scalar TimeBasedTokenGeneratorTutorialStep.server outgoingPacketLengths:vector:mean 8
scalar TimeBasedTokenGeneratorTutorialStep.server outgoingPacketLengths:vector:stddev 0
scalar TimeBasedTokenGeneratorTutorialStep.server outgoingPacketLengths:vector:min 8
scalar TimeBasedTokenGeneratorTutorialStep.server outgoingPacketLengths:vector:max 8
scalar TimeBasedTokenGeneratorTutorialStep.server outgoingPacketLengths:vector:starttime 2
scalar TimeBasedTokenGeneratorTutorialStep.server outgoingPacketLengths:vector:endtime 7
scalar TimeBasedTokenGeneratorTutorialStep.server outgoingDataRate:vector:count 100
scalar TimeBasedTokenGeneratorTutorialStep.server outgoingDataRate:vector:sum 480
scalar TimeBasedTokenGeneratorTutorialStep.server outgoingDataRate:vector:sumweights 100
scalar TimeBasedTokenGeneratorTutorialStep.server outgoingDataRate:vector:mean 4.7999999999999998
scalar TimeBasedTokenGeneratorTutorialStep.server outgoingDataRate:vector:stddev 24.963812192690426
scalar TimeBasedTokenGeneratorTutorialStep.server outgoingDataRate:vector:min 0
scalar TimeBasedTokenGeneratorTutorialStep.server outgoingDataRate:vector:max 160
scalar TimeBasedTokenGeneratorTutorialStep.server outgoingDataRate:vector:starttime 0.10000000000000001
scalar TimeBasedTokenGeneratorTutorialStep.server outgoingDataRate:vector:endtime 10
scalar TimeBasedTokenGeneratorTutorialStep.server numTokens:vector:count 13
scalar TimeBasedTokenGeneratorTutorialStep.server numTokens:vector:sum 41
scalar TimeBasedTokenGeneratorTutorialStep.server numTokens:vector:sumweights 13
scalar TimeBasedTokenGeneratorTutorialStep.server numTokens:vector:mean 3.1538461538461537
scalar TimeBasedTokenGeneratorTutorialStep.server numTokens:vector:stddev 1.9081471748860568
scalar TimeBasedTokenGeneratorTutorialStep.server numTokens:vector:min 0
scalar TimeBasedTokenGeneratorTutorialStep.server numTokens:vector:max 6
scalar TimeBasedTokenGeneratorTutorialStep.server numTokens:vector:starttime 0
scalar TimeBasedTokenGeneratorTutorialStep.server numTokens:vector:endtime 9
scalar TimeBasedTokenGeneratorTutorialStep.consumer droppedPacketLengths:vector:count 6
scalar TimeBasedTokenGeneratorTutorialStep.consumer droppedPacketLengths:vector:sum 48
scalar TimeBasedTokenGeneratorTutorialStep.consumer droppedPacketLengths:vector:sumweights 6
scalar TimeBasedTokenGeneratorTutorialStep.consumer droppedPacketLengths:vector:mean 8
scalar TimeBasedTokenGeneratorTutorialStep.consumer droppedPacketLengths:vector:stddev 0
scalar TimeBasedTokenGeneratorTutorialStep.consumer droppedPacketLengths:vector:min 8
scalar TimeBasedTokenGeneratorTutorialStep.consumer droppedPacketLengths:vector:max 8
scalar TimeBasedTokenGeneratorTutorialStep.consumer droppedPacketLengths:vector:starttime 2
scalar TimeBasedTokenGeneratorTutorialStep.consumer droppedPacketLengths:vector:endtime 7
scalar TimeBasedTokenGeneratorTutorialStep.consumer droppedDataRate:vector:count 100
scalar TimeBasedTokenGeneratorTutorialStep.consumer droppedDataRate:vector:sum 480
scalar TimeBasedTokenGeneratorTutorialStep.consumer droppedDataRate:vector:sumweights 100
scalar TimeBasedTokenGeneratorTutorialStep.consumer droppedDataRate:vector:mean 4.7999999999999998
scalar TimeBasedTokenGeneratorTutorialStep.consumer droppedDataRate:vector:stddev 24.963812192690426
scalar TimeBasedTokenGeneratorTutorialStep.consumer droppedDataRate:vector:min 0
scalar TimeBasedTokenGeneratorTutorialStep.consumer droppedDataRate:vector:max 160
scalar TimeBasedTokenGeneratorTutorialStep.consumer droppedDataRate:vector:starttime 0.10000000000000001
scalar TimeBasedTokenGeneratorTutorialStep.consumer droppedDataRate:vector:endtime 10
scalar TimeBasedTokenGeneratorTutorialStep.consumer packetLengths:vector:count 6
scalar TimeBasedTokenGeneratorTutorialStep.consumer packetLengths:vector:sum 48
scalar TimeBasedTokenGeneratorTutorialStep.consumer packetLengths:vector:sumweights 6
scalar TimeBasedTokenGeneratorTutorialStep.consumer packetLengths:vector:mean 8
scalar TimeBasedTokenGeneratorTutorialStep.consumer packetLengths:vector:stddev 0
scalar TimeBasedTokenGeneratorTutorialStep.consumer packetLengths:vector:min 8
scalar TimeBasedTokenGeneratorTutorialStep.consumer packetLengths:vector:max 8
scalar TimeBasedTokenGeneratorTutorialStep.consumer packetLengths:vector:starttime 2
scalar TimeBasedTokenGeneratorTutorialStep.consumer packetLengths:vector:endtime 7
scalar TimeBasedTokenGeneratorTutorialStep.consumer dataRate:vector:count 100
scalar TimeBasedTokenGeneratorTutorialStep.consumer dataRate:vector:sum 480
scalar TimeBasedTokenGeneratorTutorialStep.consumer dataRate:vector:sumweights 100
scalar TimeBasedTokenGeneratorTutorialStep.consumer dataRate:vector:mean 4.7999999999999998
scalar TimeBasedTokenGeneratorTutorialStep.consumer dataRate:vector:stddev 24.963812192690426
scalar TimeBasedTokenGeneratorTutorialStep.consumer dataRate:vector:min 0
scalar TimeBasedTokenGeneratorTutorialStep.consumer dataRate:vector:max 160
scalar TimeBasedTokenGeneratorTutorialStep.consumer dataRate:vector:starttime 0.10000000000000001
scalar TimeBasedTokenGeneratorTutorialStep.consumer dataRate:vector:endtime 10
scalar TimeBasedTokenGeneratorTutorialStep.consumer meanBitLifeTimePerPacket:vector:count 6
scalar TimeBasedTokenGeneratorTutorialStep.consumer meanBitLifeTimePerPacket:vector:sum 7
scalar TimeBasedTokenGeneratorTutorialStep.consumer meanBitLifeTimePerPacket:vector:sumweights 6
scalar TimeBasedTokenGeneratorTutorialStep.consumer meanBitLifeTimePerPacket:vector:mean 1.1666666666666667
scalar TimeBasedTokenGeneratorTutorialStep.consumer meanBitLifeTimePerPacket:vector:stddev 0.98319208025017513
scalar TimeBasedTokenGeneratorTutorialStep.consumer meanBitLifeTimePerPacket:vector:min 0
scalar TimeBasedTokenGeneratorTutorialStep.consumer meanBitLifeTimePerPacket:vector:max 2
scalar TimeBasedTokenGeneratorTutorialStep.consumer meanBitLifeTimePerPacket:vector:starttime 2
scalar TimeBasedTokenGeneratorTutorialStep.consumer meanBitLifeTimePerPacket:vector:endtime 7
scalar TimeBasedTokenGeneratorTutorialStep.consumer packetLifeTime:vector:count 6
scalar TimeBasedTokenGeneratorTutorialStep.consumer packetLifeTime:vector:sum 7
scalar TimeBasedTokenGeneratorTutorialStep.consumer packetLifeTime:vector:sumweights 6
scalar TimeBasedTokenGeneratorTutorialStep.consumer packetLifeTime:vector:mean 1.1666666666666667
scalar TimeBasedTokenGeneratorTutorialStep.consumer packetLifeTime:vector:stddev 0.98319208025017513
scalar TimeBasedTokenGeneratorTutorialStep.consumer packetLifeTime:vector:min 0
scalar TimeBasedTokenGeneratorTutorialStep.consumer packetLifeTime:vector:max 2
scalar TimeBasedTokenGeneratorTutorialStep.consumer packetLifeTime:vector:starttime 2
scalar TimeBasedTokenGeneratorTutorialStep.consumer packetLifeTime:vector:endtime 7
scalar TimeBasedTokenGeneratorTutorialStep.consumer packetJitter:vector:count 6
scalar TimeBasedTokenGeneratorTutorialStep.consumer packetJitter:vector:sum 0
scalar TimeBasedTokenGeneratorTutorialStep.consumer packetJitter:vector:sumweights 6
scalar TimeBasedTokenGeneratorTutorialStep.consumer packetJitter:vector:mean 0
scalar TimeBasedTokenGeneratorTutorialStep.consumer packetJitter:vector:stddev 1.4142135623730951
scalar TimeBasedTokenGeneratorTutorialStep.consumer packetJitter:vector:min -2
scalar TimeBasedTokenGeneratorTutorialStep.consumer packetJitter:vector:max 2
scalar TimeBasedTokenGeneratorTutorialStep.consumer packetJitter:vector:starttime 2
scalar TimeBasedTokenGeneratorTutorialStep.consumer packetJitter:vector:endtime 7
scalar TimeBasedTokenGeneratorTutorialStep.consumer packetDelayDifferenceToMean:vector:count 6
scalar TimeBasedTokenGeneratorTutorialStep.consumer packetDelayDifferenceToMean:vector:sum 3.0666666666666664
scalar TimeBasedTokenGeneratorTutorialStep.consumer packetDelayDifferenceToMean:vector:sumweights 6
scalar TimeBasedTokenGeneratorTutorialStep.consumer packetDelayDifferenceToMean:vector:mean 0.51111111111111107
scalar TimeBasedTokenGeneratorTutorialStep.consumer packetDelayDifferenceToMean:vector:stddev 0.66388307761287368
scalar TimeBasedTokenGeneratorTutorialStep.consumer packetDelayDifferenceToMean:vector:min 0
scalar TimeBasedTokenGeneratorTutorialStep.consumer packetDelayDifferenceToMean:vector:max 1.5
scalar TimeBasedTokenGeneratorTutorialStep.consumer packetDelayDifferenceToMean:vector:starttime 2
scalar TimeBasedTokenGeneratorTutorialStep.consumer packetDelayDifferenceToMean:vector:endtime 7
scalar TimeBasedTokenGeneratorTutorialStep.consumer packetDelayVariation:vector:count 6
scalar TimeBasedTokenGeneratorTutorialStep.consumer packetDelayVariation:vector:sum 4.00963583030856
scalar TimeBasedTokenGeneratorTutorialStep.consumer packetDelayVariation:vector:sumweights 6
scalar TimeBasedTokenGeneratorTutorialStep.consumer packetDelayVariation:vector:mean 0.66827263838476003
scalar TimeBasedTokenGeneratorTutorialStep.consumer packetDelayVariation:vector:stddev 0.76350153677230481
scalar TimeBasedTokenGeneratorTutorialStep.consumer packetDelayVariation:vector:min -0
scalar TimeBasedTokenGeneratorTutorialStep.consumer packetDelayVariation:vector:max 1.7320508075688772
scalar TimeBasedTokenGeneratorTutorialStep.consumer packetDelayVariation:vector:starttime 2
scalar TimeBasedTokenGeneratorTutorialStep.consumer packetDelayVariation:vector:endtime 7
scalar TimeBasedTokenGeneratorTutorialStep.tokenGenerator numTokensCreated:vector:count 5
scalar TimeBasedTokenGeneratorTutorialStep.tokenGenerator numTokensCreated:vector:sum 8
scalar TimeBasedTokenGeneratorTutorialStep.tokenGenerator numTokensCreated:vector:sumweights 5
scalar TimeBasedTokenGeneratorTutorialStep.tokenGenerator numTokensCreated:vector:mean 1.6000000000000001
scalar TimeBasedTokenGeneratorTutorialStep.tokenGenerator numTokensCreated:vector:stddev 0.54772255750516596
scalar TimeBasedTokenGeneratorTutorialStep.tokenGenerator numTokensCreated:vector:min 1
scalar TimeBasedTokenGeneratorTutorialStep.tokenGenerator numTokensCreated:vector:max 2
scalar TimeBasedTokenGeneratorTutorialStep.tokenGenerator numTokensCreated:vector:starttime 2
scalar TimeBasedTokenGeneratorTutorialStep.tokenGenerator numTokensCreated:vector:endtime 9

