version 3
run PriorityBuffer-0-20251118-12:02:00-115375
attr configname PriorityBuffer
attr datetime 20251118-12:02:00
attr datetimef 20251118-120200
attr experiment PriorityBuffer
attr inifile omnetpp.ini
attr iterationvars ""
attr iterationvarsd ""
attr iterationvarsf ""
attr measurement ""
attr network PriorityBufferTutorialStep
attr processid 115375
attr repetition 0
attr replication #0
attr resultdir results
attr runnumber 0
attr seedset 0
config **.param-recording false
config image-path /home/zoli/Projects/OMNET/inet/images
config output-scalar-file results/omnetpp.ini-PriorityBuffer-#0.sca
config output-scalar-precision 17
config output-vector-file results/omnetpp.ini-PriorityBuffer-#0.vec
config output-vector-precision 17
config record-eventlog false
config sim-time-limit 10s
config network PriorityBufferTutorialStep
config sim-time-limit 10s
config *.producer*.packetLength 1B
config *.producer*.productionInterval "uniform(0s, 1s)"
config *.collector*.collectionInterval "uniform(0s, 2s)"
config *.buffer.packetCapacity 2

scalar PriorityBufferTutorialStep.buffer bufferLength:last 2
scalar PriorityBufferTutorialStep.buffer bufferLength:max 3
scalar PriorityBufferTutorialStep.buffer bufferLength:timeavg 1.3780193882297005
scalar PriorityBufferTutorialStep.buffer bufferBitLength:last 16
scalar PriorityBufferTutorialStep.buffer bufferBitLength:max 24
scalar PriorityBufferTutorialStep.buffer bufferBitLength:timeavg 11.024155105837604
scalar PriorityBufferTutorialStep.buffer droppedPacketsQueueOverflow:count 19
scalar PriorityBufferTutorialStep.buffer droppedPacketLengthsQueueOverflow:sum 152
scalar PriorityBufferTutorialStep.buffer removedPackets:count 15
scalar PriorityBufferTutorialStep.buffer removedPacketLengths:sum 120
scalar PriorityBufferTutorialStep.buffer addedPackets:count 36
scalar PriorityBufferTutorialStep.buffer addedPacketLengths:sum 288
scalar PriorityBufferTutorialStep.producer1 packets:count 18
scalar PriorityBufferTutorialStep.producer1 packetLengths:sum 144
scalar PriorityBufferTutorialStep.producer2 packets:count 18
scalar PriorityBufferTutorialStep.producer2 packetLengths:sum 144
scalar PriorityBufferTutorialStep.queue1 queueLength:last 2
scalar PriorityBufferTutorialStep.queue1 queueLength:max 2
scalar PriorityBufferTutorialStep.queue1 queueLength:timeavg 1.1377545700865002
scalar PriorityBufferTutorialStep.queue1 queueBitLength:last 16
scalar PriorityBufferTutorialStep.queue1 queueBitLength:max 16
scalar PriorityBufferTutorialStep.queue1 queueBitLength:timeavg 9.1020365606920013
scalar PriorityBufferTutorialStep.queue1 outgoingPackets:count 10
scalar PriorityBufferTutorialStep.queue1 outgoingPacketLengths:sum 80
scalar PriorityBufferTutorialStep.queue1 incomingPackets:count 18
scalar PriorityBufferTutorialStep.queue1 incomingPacketLengths:sum 144
scalar PriorityBufferTutorialStep.queue1 droppedPacketsQueueOverflow:count 0
scalar PriorityBufferTutorialStep.queue1 droppedPacketLengthsQueueOverflow:sum 0
scalar PriorityBufferTutorialStep.queue2 queueLength:last 0
scalar PriorityBufferTutorialStep.queue2 queueLength:max 2
scalar PriorityBufferTutorialStep.queue2 queueLength:timeavg 0.24026481814319994
scalar PriorityBufferTutorialStep.queue2 queueBitLength:last 0
scalar PriorityBufferTutorialStep.queue2 queueBitLength:max 16
scalar PriorityBufferTutorialStep.queue2 queueBitLength:timeavg 1.9221185451455995
scalar PriorityBufferTutorialStep.queue2 outgoingPackets:count 5
scalar PriorityBufferTutorialStep.queue2 outgoingPacketLengths:sum 40
scalar PriorityBufferTutorialStep.queue2 incomingPackets:count 18
scalar PriorityBufferTutorialStep.queue2 incomingPacketLengths:sum 144
scalar PriorityBufferTutorialStep.queue2 droppedPacketsQueueOverflow:count 0
scalar PriorityBufferTutorialStep.queue2 droppedPacketLengthsQueueOverflow:sum 0
scalar PriorityBufferTutorialStep.collector1 packets:count 10
scalar PriorityBufferTutorialStep.collector1 packetLengths:sum 80
scalar PriorityBufferTutorialStep.collector1 droppedPackets:count 10
scalar PriorityBufferTutorialStep.collector1 droppedPacketLengths:sum 80
scalar PriorityBufferTutorialStep.collector2 packets:count 5
scalar PriorityBufferTutorialStep.collector2 packetLengths:sum 40
scalar PriorityBufferTutorialStep.collector2 droppedPackets:count 5
scalar PriorityBufferTutorialStep.collector2 droppedPacketLengths:sum 40
scalar PriorityBufferTutorialStep.producer1 packetLengths:histogram:count 18
scalar PriorityBufferTutorialStep.producer1 packetLengths:histogram:sumweights 18
scalar PriorityBufferTutorialStep.producer1 packetLengths:histogram:mean 8
scalar PriorityBufferTutorialStep.producer1 packetLengths:histogram:stddev 0
scalar PriorityBufferTutorialStep.producer1 packetLengths:histogram:min 8
scalar PriorityBufferTutorialStep.producer1 packetLengths:histogram:max 8
scalar PriorityBufferTutorialStep.producer1 packetLengths:histogram:numbins 2
scalar PriorityBufferTutorialStep.producer1 packetLengths:histogram:rangemin 7
scalar PriorityBufferTutorialStep.producer1 packetLengths:histogram:rangemax 9
scalar PriorityBufferTutorialStep.producer1 packetLengths:histogram:underflows 0
scalar PriorityBufferTutorialStep.producer1 packetLengths:histogram:overflows 0
scalar PriorityBufferTutorialStep.producer2 packetLengths:histogram:count 18
scalar PriorityBufferTutorialStep.producer2 packetLengths:histogram:sumweights 18
scalar PriorityBufferTutorialStep.producer2 packetLengths:histogram:mean 8
scalar PriorityBufferTutorialStep.producer2 packetLengths:histogram:stddev 0
scalar PriorityBufferTutorialStep.producer2 packetLengths:histogram:min 8
scalar PriorityBufferTutorialStep.producer2 packetLengths:histogram:max 8
scalar PriorityBufferTutorialStep.producer2 packetLengths:histogram:numbins 2
scalar PriorityBufferTutorialStep.producer2 packetLengths:histogram:rangemin 7
scalar PriorityBufferTutorialStep.producer2 packetLengths:histogram:rangemax 9
scalar PriorityBufferTutorialStep.producer2 packetLengths:histogram:underflows 0
scalar PriorityBufferTutorialStep.producer2 packetLengths:histogram:overflows 0
scalar PriorityBufferTutorialStep.queue1 queueingTime:histogram:count 10
scalar PriorityBufferTutorialStep.queue1 queueingTime:histogram:sumweights 10
scalar PriorityBufferTutorialStep.queue1 queueingTime:histogram:mean 0.44113344300939994
scalar PriorityBufferTutorialStep.queue1 queueingTime:histogram:stddev 0.37082275546525656
scalar PriorityBufferTutorialStep.queue1 queueingTime:histogram:min 0
scalar PriorityBufferTutorialStep.queue1 queueingTime:histogram:max 1.2475543108280001
scalar PriorityBufferTutorialStep.queue1 queueingTime:histogram:numbins 78
scalar PriorityBufferTutorialStep.queue1 queueingTime:histogram:rangemin 0
scalar PriorityBufferTutorialStep.queue1 queueingTime:histogram:rangemax 1.5600000000000001
scalar PriorityBufferTutorialStep.queue1 queueingTime:histogram:underflows 0
scalar PriorityBufferTutorialStep.queue1 queueingTime:histogram:overflows 0
scalar PriorityBufferTutorialStep.queue1 outgoingPacketLengths:histogram:count 10
scalar PriorityBufferTutorialStep.queue1 outgoingPacketLengths:histogram:sumweights 10
scalar PriorityBufferTutorialStep.queue1 outgoingPacketLengths:histogram:mean 8
scalar PriorityBufferTutorialStep.queue1 outgoingPacketLengths:histogram:stddev 0
scalar PriorityBufferTutorialStep.queue1 outgoingPacketLengths:histogram:min 8
scalar PriorityBufferTutorialStep.queue1 outgoingPacketLengths:histogram:max 8
scalar PriorityBufferTutorialStep.queue1 outgoingPacketLengths:histogram:numbins 2
scalar PriorityBufferTutorialStep.queue1 outgoingPacketLengths:histogram:rangemin 7
scalar PriorityBufferTutorialStep.queue1 outgoingPacketLengths:histogram:rangemax 9
scalar PriorityBufferTutorialStep.queue1 outgoingPacketLengths:histogram:underflows 0
scalar PriorityBufferTutorialStep.queue1 outgoingPacketLengths:histogram:overflows 0
scalar PriorityBufferTutorialStep.queue1 flowQueueingTime:histogram:count 0
scalar PriorityBufferTutorialStep.queue1 flowQueueingTime:histogram:sumweights 0
scalar PriorityBufferTutorialStep.queue1 flowQueueingTime:histogram:mean -nan
scalar PriorityBufferTutorialStep.queue1 flowQueueingTime:histogram:stddev nan
scalar PriorityBufferTutorialStep.queue1 flowQueueingTime:histogram:min nan
scalar PriorityBufferTutorialStep.queue1 flowQueueingTime:histogram:max nan
scalar PriorityBufferTutorialStep.queue1 flowQueueingTime:histogram:numbins 1
scalar PriorityBufferTutorialStep.queue1 flowQueueingTime:histogram:rangemin 0
scalar PriorityBufferTutorialStep.queue1 flowQueueingTime:histogram:rangemax 1
scalar PriorityBufferTutorialStep.queue1 flowQueueingTime:histogram:underflows 0
scalar PriorityBufferTutorialStep.queue1 flowQueueingTime:histogram:overflows 0
scalar PriorityBufferTutorialStep.queue1 incomingPacketLengths:histogram:count 18
scalar PriorityBufferTutorialStep.queue1 incomingPacketLengths:histogram:sumweights 18
scalar PriorityBufferTutorialStep.queue1 incomingPacketLengths:histogram:mean 8
scalar PriorityBufferTutorialStep.queue1 incomingPacketLengths:histogram:stddev 0
scalar PriorityBufferTutorialStep.queue1 incomingPacketLengths:histogram:min 8
scalar PriorityBufferTutorialStep.queue1 incomingPacketLengths:histogram:max 8
scalar PriorityBufferTutorialStep.queue1 incomingPacketLengths:histogram:numbins 2
scalar PriorityBufferTutorialStep.queue1 incomingPacketLengths:histogram:rangemin 7
scalar PriorityBufferTutorialStep.queue1 incomingPacketLengths:histogram:rangemax 9
scalar PriorityBufferTutorialStep.queue1 incomingPacketLengths:histogram:underflows 0
scalar PriorityBufferTutorialStep.queue1 incomingPacketLengths:histogram:overflows 0
scalar PriorityBufferTutorialStep.queue2 queueingTime:histogram:count 5
scalar PriorityBufferTutorialStep.queue2 queueingTime:histogram:sumweights 5
scalar PriorityBufferTutorialStep.queue2 queueingTime:histogram:mean 0.16633223579279999
scalar PriorityBufferTutorialStep.queue2 queueingTime:histogram:stddev 0.31145600619825164
scalar PriorityBufferTutorialStep.queue2 queueingTime:histogram:min 0
scalar PriorityBufferTutorialStep.queue2 queueingTime:histogram:max 0.71626467560499996
scalar PriorityBufferTutorialStep.queue2 queueingTime:histogram:numbins 90
scalar PriorityBufferTutorialStep.queue2 queueingTime:histogram:rangemin 0
scalar PriorityBufferTutorialStep.queue2 queueingTime:histogram:rangemax 0.90000000000000002
scalar PriorityBufferTutorialStep.queue2 queueingTime:histogram:underflows 0
scalar PriorityBufferTutorialStep.queue2 queueingTime:histogram:overflows 0
scalar PriorityBufferTutorialStep.queue2 outgoingPacketLengths:histogram:count 5
scalar PriorityBufferTutorialStep.queue2 outgoingPacketLengths:histogram:sumweights 5
scalar PriorityBufferTutorialStep.queue2 outgoingPacketLengths:histogram:mean 8
scalar PriorityBufferTutorialStep.queue2 outgoingPacketLengths:histogram:stddev 0
scalar PriorityBufferTutorialStep.queue2 outgoingPacketLengths:histogram:min 8
scalar PriorityBufferTutorialStep.queue2 outgoingPacketLengths:histogram:max 8
scalar PriorityBufferTutorialStep.queue2 outgoingPacketLengths:histogram:numbins 2
scalar PriorityBufferTutorialStep.queue2 outgoingPacketLengths:histogram:rangemin 7
scalar PriorityBufferTutorialStep.queue2 outgoingPacketLengths:histogram:rangemax 9
scalar PriorityBufferTutorialStep.queue2 outgoingPacketLengths:histogram:underflows 0
scalar PriorityBufferTutorialStep.queue2 outgoingPacketLengths:histogram:overflows 0
scalar PriorityBufferTutorialStep.queue2 flowQueueingTime:histogram:count 0
scalar PriorityBufferTutorialStep.queue2 flowQueueingTime:histogram:sumweights 0
scalar PriorityBufferTutorialStep.queue2 flowQueueingTime:histogram:mean -nan
scalar PriorityBufferTutorialStep.queue2 flowQueueingTime:histogram:stddev nan
scalar PriorityBufferTutorialStep.queue2 flowQueueingTime:histogram:min nan
scalar PriorityBufferTutorialStep.queue2 flowQueueingTime:histogram:max nan
scalar PriorityBufferTutorialStep.queue2 flowQueueingTime:histogram:numbins 1
scalar PriorityBufferTutorialStep.queue2 flowQueueingTime:histogram:rangemin 0
scalar PriorityBufferTutorialStep.queue2 flowQueueingTime:histogram:rangemax 1
scalar PriorityBufferTutorialStep.queue2 flowQueueingTime:histogram:underflows 0
scalar PriorityBufferTutorialStep.queue2 flowQueueingTime:histogram:overflows 0
scalar PriorityBufferTutorialStep.queue2 incomingPacketLengths:histogram:count 18
scalar PriorityBufferTutorialStep.queue2 incomingPacketLengths:histogram:sumweights 18
scalar PriorityBufferTutorialStep.queue2 incomingPacketLengths:histogram:mean 8
scalar PriorityBufferTutorialStep.queue2 incomingPacketLengths:histogram:stddev 0
scalar PriorityBufferTutorialStep.queue2 incomingPacketLengths:histogram:min 8
scalar PriorityBufferTutorialStep.queue2 incomingPacketLengths:histogram:max 8
scalar PriorityBufferTutorialStep.queue2 incomingPacketLengths:histogram:numbins 2
scalar PriorityBufferTutorialStep.queue2 incomingPacketLengths:histogram:rangemin 7
scalar PriorityBufferTutorialStep.queue2 incomingPacketLengths:histogram:rangemax 9
scalar PriorityBufferTutorialStep.queue2 incomingPacketLengths:histogram:underflows 0
scalar PriorityBufferTutorialStep.queue2 incomingPacketLengths:histogram:overflows 0
scalar PriorityBufferTutorialStep.collector1 packetLengths:histogram:count 10
scalar PriorityBufferTutorialStep.collector1 packetLengths:histogram:sumweights 10
scalar PriorityBufferTutorialStep.collector1 packetLengths:histogram:mean 8
scalar PriorityBufferTutorialStep.collector1 packetLengths:histogram:stddev 0
scalar PriorityBufferTutorialStep.collector1 packetLengths:histogram:min 8
scalar PriorityBufferTutorialStep.collector1 packetLengths:histogram:max 8
scalar PriorityBufferTutorialStep.collector1 packetLengths:histogram:numbins 2
scalar PriorityBufferTutorialStep.collector1 packetLengths:histogram:rangemin 7
scalar PriorityBufferTutorialStep.collector1 packetLengths:histogram:rangemax 9
scalar PriorityBufferTutorialStep.collector1 packetLengths:histogram:underflows 0
scalar PriorityBufferTutorialStep.collector1 packetLengths:histogram:overflows 0
scalar PriorityBufferTutorialStep.collector1 meanBitLifeTimePerPacket:histogram:count 10
scalar PriorityBufferTutorialStep.collector1 meanBitLifeTimePerPacket:histogram:sumweights 10
scalar PriorityBufferTutorialStep.collector1 meanBitLifeTimePerPacket:histogram:mean 0.44113344300939994
scalar PriorityBufferTutorialStep.collector1 meanBitLifeTimePerPacket:histogram:stddev 0.37082275546525656
scalar PriorityBufferTutorialStep.collector1 meanBitLifeTimePerPacket:histogram:min 0
scalar PriorityBufferTutorialStep.collector1 meanBitLifeTimePerPacket:histogram:max 1.2475543108280001
scalar PriorityBufferTutorialStep.collector1 meanBitLifeTimePerPacket:histogram:numbins 78
scalar PriorityBufferTutorialStep.collector1 meanBitLifeTimePerPacket:histogram:rangemin 0
scalar PriorityBufferTutorialStep.collector1 meanBitLifeTimePerPacket:histogram:rangemax 1.5600000000000001
scalar PriorityBufferTutorialStep.collector1 meanBitLifeTimePerPacket:histogram:underflows 0
scalar PriorityBufferTutorialStep.collector1 meanBitLifeTimePerPacket:histogram:overflows 0
scalar PriorityBufferTutorialStep.collector1 packetLifeTime:histogram:count 10
scalar PriorityBufferTutorialStep.collector1 packetLifeTime:histogram:sumweights 10
scalar PriorityBufferTutorialStep.collector1 packetLifeTime:histogram:mean 0.44113344300939994
scalar PriorityBufferTutorialStep.collector1 packetLifeTime:histogram:stddev 0.37082275546525656
scalar PriorityBufferTutorialStep.collector1 packetLifeTime:histogram:min 0
scalar PriorityBufferTutorialStep.collector1 packetLifeTime:histogram:max 1.2475543108280001
scalar PriorityBufferTutorialStep.collector1 packetLifeTime:histogram:numbins 78
scalar PriorityBufferTutorialStep.collector1 packetLifeTime:histogram:rangemin 0
scalar PriorityBufferTutorialStep.collector1 packetLifeTime:histogram:rangemax 1.5600000000000001
scalar PriorityBufferTutorialStep.collector1 packetLifeTime:histogram:underflows 0
scalar PriorityBufferTutorialStep.collector1 packetLifeTime:histogram:overflows 0
scalar PriorityBufferTutorialStep.collector1 packetJitter:histogram:count 10
scalar PriorityBufferTutorialStep.collector1 packetJitter:histogram:sumweights 10
scalar PriorityBufferTutorialStep.collector1 packetJitter:histogram:mean 0.057839002739500003
scalar PriorityBufferTutorialStep.collector1 packetJitter:histogram:stddev 0.57688391425037466
scalar PriorityBufferTutorialStep.collector1 packetJitter:histogram:min -0.66916428343300005
scalar PriorityBufferTutorialStep.collector1 packetJitter:histogram:max 1.2092144561460001
scalar PriorityBufferTutorialStep.collector1 packetJitter:histogram:numbins 57
scalar PriorityBufferTutorialStep.collector1 packetJitter:histogram:rangemin -1.1500000000000001
scalar PriorityBufferTutorialStep.collector1 packetJitter:histogram:rangemax 1.7
scalar PriorityBufferTutorialStep.collector1 packetJitter:histogram:underflows 0
scalar PriorityBufferTutorialStep.collector1 packetJitter:histogram:overflows 0
scalar PriorityBufferTutorialStep.collector1 packetDelayDifferenceToMean:histogram:count 10
scalar PriorityBufferTutorialStep.collector1 packetDelayDifferenceToMean:histogram:sumweights 10
scalar PriorityBufferTutorialStep.collector1 packetDelayDifferenceToMean:histogram:mean -0.12417112812649633
scalar PriorityBufferTutorialStep.collector1 packetDelayDifferenceToMean:histogram:stddev 0.30630392810936835
scalar PriorityBufferTutorialStep.collector1 packetDelayDifferenceToMean:histogram:min -0.82167159941700008
scalar PriorityBufferTutorialStep.collector1 packetDelayDifferenceToMean:histogram:max 0.28483390680187498
scalar PriorityBufferTutorialStep.collector1 packetDelayDifferenceToMean:histogram:numbins 84
scalar PriorityBufferTutorialStep.collector1 packetDelayDifferenceToMean:histogram:rangemin -1.1000000000000001
scalar PriorityBufferTutorialStep.collector1 packetDelayDifferenceToMean:histogram:rangemax 0.57999999999999985
scalar PriorityBufferTutorialStep.collector1 packetDelayDifferenceToMean:histogram:underflows 0
scalar PriorityBufferTutorialStep.collector1 packetDelayDifferenceToMean:histogram:overflows 0
scalar PriorityBufferTutorialStep.collector1 packetDelayVariation:histogram:count 10
scalar PriorityBufferTutorialStep.collector1 packetDelayVariation:histogram:sumweights 10
scalar PriorityBufferTutorialStep.collector1 packetDelayVariation:histogram:mean 0.26264034997594499
scalar PriorityBufferTutorialStep.collector1 packetDelayVariation:histogram:stddev 0.10479587937378497
scalar PriorityBufferTutorialStep.collector1 packetDelayVariation:histogram:min 0
scalar PriorityBufferTutorialStep.collector1 packetDelayVariation:histogram:max 0.37431519512955841
scalar PriorityBufferTutorialStep.collector1 packetDelayVariation:histogram:numbins 47
scalar PriorityBufferTutorialStep.collector1 packetDelayVariation:histogram:rangemin 0
scalar PriorityBufferTutorialStep.collector1 packetDelayVariation:histogram:rangemax 0.47000000000000003
scalar PriorityBufferTutorialStep.collector1 packetDelayVariation:histogram:underflows 0
scalar PriorityBufferTutorialStep.collector1 packetDelayVariation:histogram:overflows 0
scalar PriorityBufferTutorialStep.collector1 droppedPacketLengths:histogram:count 10
scalar PriorityBufferTutorialStep.collector1 droppedPacketLengths:histogram:sumweights 10
scalar PriorityBufferTutorialStep.collector1 droppedPacketLengths:histogram:mean 8
scalar PriorityBufferTutorialStep.collector1 droppedPacketLengths:histogram:stddev 0
scalar PriorityBufferTutorialStep.collector1 droppedPacketLengths:histogram:min 8
scalar PriorityBufferTutorialStep.collector1 droppedPacketLengths:histogram:max 8
scalar PriorityBufferTutorialStep.collector1 droppedPacketLengths:histogram:numbins 2
scalar PriorityBufferTutorialStep.collector1 droppedPacketLengths:histogram:rangemin 7
scalar PriorityBufferTutorialStep.collector1 droppedPacketLengths:histogram:rangemax 9
scalar PriorityBufferTutorialStep.collector1 droppedPacketLengths:histogram:underflows 0
scalar PriorityBufferTutorialStep.collector1 droppedPacketLengths:histogram:overflows 0
scalar PriorityBufferTutorialStep.collector2 packetLengths:histogram:count 5
scalar PriorityBufferTutorialStep.collector2 packetLengths:histogram:sumweights 5
scalar PriorityBufferTutorialStep.collector2 packetLengths:histogram:mean 8
scalar PriorityBufferTutorialStep.collector2 packetLengths:histogram:stddev 0
scalar PriorityBufferTutorialStep.collector2 packetLengths:histogram:min 8
scalar PriorityBufferTutorialStep.collector2 packetLengths:histogram:max 8
scalar PriorityBufferTutorialStep.collector2 packetLengths:histogram:numbins 2
scalar PriorityBufferTutorialStep.collector2 packetLengths:histogram:rangemin 7
scalar PriorityBufferTutorialStep.collector2 packetLengths:histogram:rangemax 9
scalar PriorityBufferTutorialStep.collector2 packetLengths:histogram:underflows 0
scalar PriorityBufferTutorialStep.collector2 packetLengths:histogram:overflows 0
scalar PriorityBufferTutorialStep.collector2 meanBitLifeTimePerPacket:histogram:count 5
scalar PriorityBufferTutorialStep.collector2 meanBitLifeTimePerPacket:histogram:sumweights 5
scalar PriorityBufferTutorialStep.collector2 meanBitLifeTimePerPacket:histogram:mean 0.16633223579279999
scalar PriorityBufferTutorialStep.collector2 meanBitLifeTimePerPacket:histogram:stddev 0.31145600619825164
scalar PriorityBufferTutorialStep.collector2 meanBitLifeTimePerPacket:histogram:min 0
scalar PriorityBufferTutorialStep.collector2 meanBitLifeTimePerPacket:histogram:max 0.71626467560499996
scalar PriorityBufferTutorialStep.collector2 meanBitLifeTimePerPacket:histogram:numbins 90
scalar PriorityBufferTutorialStep.collector2 meanBitLifeTimePerPacket:histogram:rangemin 0
scalar PriorityBufferTutorialStep.collector2 meanBitLifeTimePerPacket:histogram:rangemax 0.90000000000000002
scalar PriorityBufferTutorialStep.collector2 meanBitLifeTimePerPacket:histogram:underflows 0
scalar PriorityBufferTutorialStep.collector2 meanBitLifeTimePerPacket:histogram:overflows 0
scalar PriorityBufferTutorialStep.collector2 packetLifeTime:histogram:count 5
scalar PriorityBufferTutorialStep.collector2 packetLifeTime:histogram:sumweights 5
scalar PriorityBufferTutorialStep.collector2 packetLifeTime:histogram:mean 0.16633223579279999
scalar PriorityBufferTutorialStep.collector2 packetLifeTime:histogram:stddev 0.31145600619825164
scalar PriorityBufferTutorialStep.collector2 packetLifeTime:histogram:min 0
scalar PriorityBufferTutorialStep.collector2 packetLifeTime:histogram:max 0.71626467560499996
scalar PriorityBufferTutorialStep.collector2 packetLifeTime:histogram:numbins 90
scalar PriorityBufferTutorialStep.collector2 packetLifeTime:histogram:rangemin 0
scalar PriorityBufferTutorialStep.collector2 packetLifeTime:histogram:rangemax 0.90000000000000002
scalar PriorityBufferTutorialStep.collector2 packetLifeTime:histogram:underflows 0
scalar PriorityBufferTutorialStep.collector2 packetLifeTime:histogram:overflows 0
scalar PriorityBufferTutorialStep.collector2 packetJitter:histogram:count 5
scalar PriorityBufferTutorialStep.collector2 packetJitter:histogram:sumweights 5
scalar PriorityBufferTutorialStep.collector2 packetJitter:histogram:mean 0.14325293512099999
scalar PriorityBufferTutorialStep.collector2 packetJitter:histogram:stddev 0.33055286051953775
scalar PriorityBufferTutorialStep.collector2 packetJitter:histogram:min -0.11539650335899999
scalar PriorityBufferTutorialStep.collector2 packetJitter:histogram:max 0.71626467560499996
scalar PriorityBufferTutorialStep.collector2 packetJitter:histogram:numbins 64
scalar PriorityBufferTutorialStep.collector2 packetJitter:histogram:rangemin -0.34000000000000002
scalar PriorityBufferTutorialStep.collector2 packetJitter:histogram:rangemax 0.93999999999999995
scalar PriorityBufferTutorialStep.collector2 packetJitter:histogram:underflows 0
scalar PriorityBufferTutorialStep.collector2 packetJitter:histogram:overflows 0
scalar PriorityBufferTutorialStep.collector2 packetDelayDifferenceToMean:histogram:count 5
scalar PriorityBufferTutorialStep.collector2 packetDelayDifferenceToMean:histogram:sumweights 5
scalar PriorityBufferTutorialStep.collector2 packetDelayDifferenceToMean:histogram:mean -0.10806321290645667
scalar PriorityBufferTutorialStep.collector2 packetDelayDifferenceToMean:histogram:stddev 0.24983912500069108
scalar PriorityBufferTutorialStep.collector2 packetDelayDifferenceToMean:histogram:min -0.54993243981219997
scalar PriorityBufferTutorialStep.collector2 packetDelayDifferenceToMean:histogram:max 0.038465501119666665
scalar PriorityBufferTutorialStep.collector2 packetDelayDifferenceToMean:histogram:numbins 89
scalar PriorityBufferTutorialStep.collector2 packetDelayDifferenceToMean:histogram:rangemin -0.70000000000000007
scalar PriorityBufferTutorialStep.collector2 packetDelayDifferenceToMean:histogram:rangemax 0.18999999999999995
scalar PriorityBufferTutorialStep.collector2 packetDelayDifferenceToMean:histogram:underflows 0
scalar PriorityBufferTutorialStep.collector2 packetDelayDifferenceToMean:histogram:overflows 0
scalar PriorityBufferTutorialStep.collector2 packetDelayVariation:histogram:count 5
scalar PriorityBufferTutorialStep.collector2 packetDelayVariation:histogram:sumweights 5
scalar PriorityBufferTutorialStep.collector2 packetDelayVariation:histogram:mean 0.08875532658188208
scalar PriorityBufferTutorialStep.collector2 packetDelayVariation:histogram:stddev 0.11032682079466379
scalar PriorityBufferTutorialStep.collector2 packetDelayVariation:histogram:min 0
scalar PriorityBufferTutorialStep.collector2 packetDelayVariation:histogram:max 0.28155441933498671
scalar PriorityBufferTutorialStep.collector2 packetDelayVariation:histogram:numbins 71
scalar PriorityBufferTutorialStep.collector2 packetDelayVariation:histogram:rangemin 0
scalar PriorityBufferTutorialStep.collector2 packetDelayVariation:histogram:rangemax 0.35499999999999998
scalar PriorityBufferTutorialStep.collector2 packetDelayVariation:histogram:underflows 0
scalar PriorityBufferTutorialStep.collector2 packetDelayVariation:histogram:overflows 0
scalar PriorityBufferTutorialStep.collector2 droppedPacketLengths:histogram:count 5
scalar PriorityBufferTutorialStep.collector2 droppedPacketLengths:histogram:sumweights 5
scalar PriorityBufferTutorialStep.collector2 droppedPacketLengths:histogram:mean 8
scalar PriorityBufferTutorialStep.collector2 droppedPacketLengths:histogram:stddev 0
scalar PriorityBufferTutorialStep.collector2 droppedPacketLengths:histogram:min 8
scalar PriorityBufferTutorialStep.collector2 droppedPacketLengths:histogram:max 8
scalar PriorityBufferTutorialStep.collector2 droppedPacketLengths:histogram:numbins 2
scalar PriorityBufferTutorialStep.collector2 droppedPacketLengths:histogram:rangemin 7
scalar PriorityBufferTutorialStep.collector2 droppedPacketLengths:histogram:rangemax 9
scalar PriorityBufferTutorialStep.collector2 droppedPacketLengths:histogram:underflows 0
scalar PriorityBufferTutorialStep.collector2 droppedPacketLengths:histogram:overflows 0
statistic PriorityBufferTutorialStep.producer1 packetLengths:histogram
field count 18
field mean 8
field stddev 0
field min 8
field max 8
field sum 144
field sqrsum 1152
bin	-inf	0
bin	7	0
bin	8	18
bin	9	0
statistic PriorityBufferTutorialStep.producer2 packetLengths:histogram
field count 18
field mean 8
field stddev 0
field min 8
field max 8
field sum 144
field sqrsum 1152
bin	-inf	0
bin	7	0
bin	8	18
bin	9	0
statistic PriorityBufferTutorialStep.queue1 queueingTime:histogram
field count 10
field mean 0.44113344300939994
field stddev 0.37082275546525656
field min 0
field max 1.2475543108280001
field sum 4.4113344300939996
field sqrsum 3.1835727891508845
bin	-inf	0
bin	0	1
bin	0.02	1
bin	0.040000000000000001	0
bin	0.059999999999999998	0
bin	0.080000000000000002	0
bin	0.10000000000000001	1
bin	0.12	0
bin	0.14000000000000001	0
bin	0.16	0
bin	0.17999999999999999	0
bin	0.20000000000000001	0
bin	0.22	0
bin	0.23999999999999999	0
bin	0.26000000000000001	0
bin	0.28000000000000003	1
bin	0.29999999999999999	0
bin	0.32000000000000001	0
bin	0.34000000000000002	0
bin	0.35999999999999999	0
bin	0.38	1
bin	0.40000000000000002	0
bin	0.41999999999999998	0
bin	0.44	0
bin	0.46000000000000002	0
bin	0.47999999999999998	0
bin	0.5	0
bin	0.52000000000000002	1
bin	0.54000000000000004	0
bin	0.56000000000000005	1
bin	0.57999999999999996	1
bin	0.59999999999999998	0
bin	0.62	1
bin	0.64000000000000001	0
bin	0.66000000000000003	0
bin	0.68000000000000005	0
bin	0.70000000000000007	0
bin	0.71999999999999997	0
bin	0.73999999999999999	0
bin	0.76000000000000001	0
bin	0.78000000000000003	0
bin	0.80000000000000004	0
bin	0.82000000000000006	0
bin	0.83999999999999997	0
bin	0.85999999999999999	0
bin	0.88	0
bin	0.90000000000000002	0
bin	0.92000000000000004	0
bin	0.94000000000000006	0
bin	0.95999999999999996	0
bin	0.97999999999999998	0
bin	1	0
bin	1.02	0
bin	1.04	0
bin	1.0600000000000001	0
bin	1.0800000000000001	0
bin	1.1000000000000001	0
bin	1.1200000000000001	0
bin	1.1400000000000001	0
bin	1.1599999999999999	0
bin	1.1799999999999999	0
bin	1.2	0
bin	1.22	0
bin	1.24	1
bin	1.26	0
bin	1.28	0
bin	1.3	0
bin	1.3200000000000001	0
bin	1.3400000000000001	0
bin	1.3600000000000001	0
bin	1.3800000000000001	0
bin	1.4000000000000001	0
bin	1.4199999999999999	0
bin	1.4399999999999999	0
bin	1.46	0
bin	1.48	0
bin	1.5	0
bin	1.52	0
bin	1.54	0
bin	1.5600000000000001	0
statistic PriorityBufferTutorialStep.queue1 outgoingPacketLengths:histogram
field count 10
field mean 8
field stddev 0
field min 8
field max 8
field sum 80
field sqrsum 640
bin	-inf	0
bin	7	0
bin	8	10
bin	9	0
statistic PriorityBufferTutorialStep.queue1 flowQueueingTime:histogram
field count 0
field mean -nan
field stddev nan
field min nan
field max nan
field sum 0
field sqrsum 0
bin	-inf	0
bin	0	0
bin	1	0
statistic PriorityBufferTutorialStep.queue1 incomingPacketLengths:histogram
field count 18
field mean 8
field stddev 0
field min 8
field max 8
field sum 144
field sqrsum 1152
bin	-inf	0
bin	7	0
bin	8	18
bin	9	0
statistic PriorityBufferTutorialStep.queue2 queueingTime:histogram
field count 5
field mean 0.16633223579279999
field stddev 0.31145600619825164
field min 0
field max 0.71626467560499996
field sum 0.83166117896399994
field sqrsum 0.52635143850701949
bin	-inf	0
bin	0	3
bin	0.01	0
bin	0.02	0
bin	0.029999999999999999	0
bin	0.040000000000000001	0
bin	0.050000000000000003	0
bin	0.059999999999999998	0
bin	0.070000000000000007	0
bin	0.080000000000000002	0
bin	0.089999999999999997	0
bin	0.10000000000000001	0
bin	0.11	1
bin	0.12	0
bin	0.13	0
bin	0.14000000000000001	0
bin	0.14999999999999999	0
bin	0.16	0
bin	0.17000000000000001	0
bin	0.17999999999999999	0
bin	0.19	0
bin	0.20000000000000001	0
bin	0.20999999999999999	0
bin	0.22	0
bin	0.23000000000000001	0
bin	0.23999999999999999	0
bin	0.25	0
bin	0.26000000000000001	0
bin	0.27000000000000002	0
bin	0.28000000000000003	0
bin	0.28999999999999998	0
bin	0.29999999999999999	0
bin	0.31	0
bin	0.32000000000000001	0
bin	0.33000000000000002	0
bin	0.34000000000000002	0
bin	0.35000000000000003	0
bin	0.35999999999999999	0
bin	0.37	0
bin	0.38	0
bin	0.39000000000000001	0
bin	0.40000000000000002	0
bin	0.41000000000000003	0
bin	0.41999999999999998	0
bin	0.42999999999999999	0
bin	0.44	0
bin	0.45000000000000001	0
bin	0.46000000000000002	0
bin	0.47000000000000003	0
bin	0.47999999999999998	0
bin	0.48999999999999999	0
bin	0.5	0
bin	0.51000000000000001	0
bin	0.52000000000000002	0
bin	0.53000000000000003	0
bin	0.54000000000000004	0
bin	0.55000000000000004	0
bin	0.56000000000000005	0
bin	0.57000000000000006	0
bin	0.57999999999999996	0
bin	0.58999999999999997	0
bin	0.59999999999999998	0
bin	0.60999999999999999	0
bin	0.62	0
bin	0.63	0
bin	0.64000000000000001	0
bin	0.65000000000000002	0
bin	0.66000000000000003	0
bin	0.67000000000000004	0
bin	0.68000000000000005	0
bin	0.69000000000000006	0
bin	0.70000000000000007	0
bin	0.70999999999999996	1
bin	0.71999999999999997	0
bin	0.72999999999999998	0
bin	0.73999999999999999	0
bin	0.75	0
bin	0.76000000000000001	0
bin	0.77000000000000002	0
bin	0.78000000000000003	0
bin	0.79000000000000004	0
bin	0.80000000000000004	0
bin	0.81000000000000005	0
bin	0.82000000000000006	0
bin	0.83000000000000007	0
bin	0.83999999999999997	0
bin	0.84999999999999998	0
bin	0.85999999999999999	0
bin	0.87	0
bin	0.88	0
bin	0.89000000000000001	0
bin	0.90000000000000002	0
statistic PriorityBufferTutorialStep.queue2 outgoingPacketLengths:histogram
field count 5
field mean 8
field stddev 0
field min 8
field max 8
field sum 40
field sqrsum 320
bin	-inf	0
bin	7	0
bin	8	5
bin	9	0
statistic PriorityBufferTutorialStep.queue2 flowQueueingTime:histogram
field count 0
field mean -nan
field stddev nan
field min nan
field max nan
field sum 0
field sqrsum 0
bin	-inf	0
bin	0	0
bin	1	0
statistic PriorityBufferTutorialStep.queue2 incomingPacketLengths:histogram
field count 18
field mean 8
field stddev 0
field min 8
field max 8
field sum 144
field sqrsum 1152
bin	-inf	0
bin	7	0
bin	8	18
bin	9	0
statistic PriorityBufferTutorialStep.collector1 packetLengths:histogram
field count 10
field mean 8
field stddev 0
field min 8
field max 8
field sum 80
field sqrsum 640
bin	-inf	0
bin	7	0
bin	8	10
bin	9	0
statistic PriorityBufferTutorialStep.collector1 meanBitLifeTimePerPacket:histogram
field count 10
field mean 0.44113344300939994
field stddev 0.37082275546525656
field min 0
field max 1.2475543108280001
field sum 4.4113344300939996
field sqrsum 3.1835727891508845
bin	-inf	0
bin	0	1
bin	0.02	1
bin	0.040000000000000001	0
bin	0.059999999999999998	0
bin	0.080000000000000002	0
bin	0.10000000000000001	1
bin	0.12	0
bin	0.14000000000000001	0
bin	0.16	0
bin	0.17999999999999999	0
bin	0.20000000000000001	0
bin	0.22	0
bin	0.23999999999999999	0
bin	0.26000000000000001	0
bin	0.28000000000000003	1
bin	0.29999999999999999	0
bin	0.32000000000000001	0
bin	0.34000000000000002	0
bin	0.35999999999999999	0
bin	0.38	1
bin	0.40000000000000002	0
bin	0.41999999999999998	0
bin	0.44	0
bin	0.46000000000000002	0
bin	0.47999999999999998	0
bin	0.5	0
bin	0.52000000000000002	1
bin	0.54000000000000004	0
bin	0.56000000000000005	1
bin	0.57999999999999996	1
bin	0.59999999999999998	0
bin	0.62	1
bin	0.64000000000000001	0
bin	0.66000000000000003	0
bin	0.68000000000000005	0
bin	0.70000000000000007	0
bin	0.71999999999999997	0
bin	0.73999999999999999	0
bin	0.76000000000000001	0
bin	0.78000000000000003	0
bin	0.80000000000000004	0
bin	0.82000000000000006	0
bin	0.83999999999999997	0
bin	0.85999999999999999	0
bin	0.88	0
bin	0.90000000000000002	0
bin	0.92000000000000004	0
bin	0.94000000000000006	0
bin	0.95999999999999996	0
bin	0.97999999999999998	0
bin	1	0
bin	1.02	0
bin	1.04	0
bin	1.0600000000000001	0
bin	1.0800000000000001	0
bin	1.1000000000000001	0
bin	1.1200000000000001	0
bin	1.1400000000000001	0
bin	1.1599999999999999	0
bin	1.1799999999999999	0
bin	1.2	0
bin	1.22	0
bin	1.24	1
bin	1.26	0
bin	1.28	0
bin	1.3	0
bin	1.3200000000000001	0
bin	1.3400000000000001	0
bin	1.3600000000000001	0
bin	1.3800000000000001	0
bin	1.4000000000000001	0
bin	1.4199999999999999	0
bin	1.4399999999999999	0
bin	1.46	0
bin	1.48	0
bin	1.5	0
bin	1.52	0
bin	1.54	0
bin	1.5600000000000001	0
statistic PriorityBufferTutorialStep.collector1 packetLifeTime:histogram
field count 10
field mean 0.44113344300939994
field stddev 0.37082275546525656
field min 0
field max 1.2475543108280001
field sum 4.4113344300939996
field sqrsum 3.1835727891508845
bin	-inf	0
bin	0	1
bin	0.02	1
bin	0.040000000000000001	0
bin	0.059999999999999998	0
bin	0.080000000000000002	0
bin	0.10000000000000001	1
bin	0.12	0
bin	0.14000000000000001	0
bin	0.16	0
bin	0.17999999999999999	0
bin	0.20000000000000001	0
bin	0.22	0
bin	0.23999999999999999	0
bin	0.26000000000000001	0
bin	0.28000000000000003	1
bin	0.29999999999999999	0
bin	0.32000000000000001	0
bin	0.34000000000000002	0
bin	0.35999999999999999	0
bin	0.38	1
bin	0.40000000000000002	0
bin	0.41999999999999998	0
bin	0.44	0
bin	0.46000000000000002	0
bin	0.47999999999999998	0
bin	0.5	0
bin	0.52000000000000002	1
bin	0.54000000000000004	0
bin	0.56000000000000005	1
bin	0.57999999999999996	1
bin	0.59999999999999998	0
bin	0.62	1
bin	0.64000000000000001	0
bin	0.66000000000000003	0
bin	0.68000000000000005	0
bin	0.70000000000000007	0
bin	0.71999999999999997	0
bin	0.73999999999999999	0
bin	0.76000000000000001	0
bin	0.78000000000000003	0
bin	0.80000000000000004	0
bin	0.82000000000000006	0
bin	0.83999999999999997	0
bin	0.85999999999999999	0
bin	0.88	0
bin	0.90000000000000002	0
bin	0.92000000000000004	0
bin	0.94000000000000006	0
bin	0.95999999999999996	0
bin	0.97999999999999998	0
bin	1	0
bin	1.02	0
bin	1.04	0
bin	1.0600000000000001	0
bin	1.0800000000000001	0
bin	1.1000000000000001	0
bin	1.1200000000000001	0
bin	1.1400000000000001	0
bin	1.1599999999999999	0
bin	1.1799999999999999	0
bin	1.2	0
bin	1.22	0
bin	1.24	1
bin	1.26	0
bin	1.28	0
bin	1.3	0
bin	1.3200000000000001	0
bin	1.3400000000000001	0
bin	1.3600000000000001	0
bin	1.3800000000000001	0
bin	1.4000000000000001	0
bin	1.4199999999999999	0
bin	1.4399999999999999	0
bin	1.46	0
bin	1.48	0
bin	1.5	0
bin	1.52	0
bin	1.54	0
bin	1.5600000000000001	0
statistic PriorityBufferTutorialStep.collector1 packetJitter:histogram
field count 10
field mean 0.057839002739500003
field stddev 0.57688391425037466
field min -0.66916428343300005
field max 1.2092144561460001
field sum 0.57839002739500001
field sqrsum 3.0286089570665018
bin	-inf	0
bin	-1.1500000000000001	0
bin	-1.1000000000000001	0
bin	-1.05	0
bin	-1	0
bin	-0.95000000000000018	0
bin	-0.90000000000000013	0
bin	-0.85000000000000009	0
bin	-0.80000000000000004	0
bin	-0.75000000000000011	0
bin	-0.70000000000000018	1
bin	-0.65000000000000013	0
bin	-0.60000000000000009	0
bin	-0.55000000000000004	1
bin	-0.50000000000000011	0
bin	-0.45000000000000007	0
bin	-0.40000000000000013	0
bin	-0.35000000000000009	0
bin	-0.30000000000000004	2
bin	-0.25000000000000011	0
bin	-0.20000000000000007	1
bin	-0.15000000000000013	0
bin	-0.10000000000000009	0
bin	-0.050000000000000044	0
bin	0	1
bin	0.050000000000000044	0
bin	0.099999999999999867	1
bin	0.14999999999999991	0
bin	0.19999999999999996	0
bin	0.25	0
bin	0.30000000000000004	0
bin	0.34999999999999987	0
bin	0.39999999999999991	0
bin	0.44999999999999996	1
bin	0.5	0
bin	0.55000000000000004	0
bin	0.59999999999999987	1
bin	0.64999999999999991	0
bin	0.69999999999999996	0
bin	0.75	0
bin	0.80000000000000004	0
bin	0.84999999999999987	0
bin	0.90000000000000013	0
bin	0.94999999999999996	0
bin	0.99999999999999978	0
bin	1.05	0
bin	1.0999999999999999	0
bin	1.1500000000000001	0
bin	1.2	1
bin	1.2500000000000002	0
bin	1.3	0
bin	1.3499999999999999	0
bin	1.4000000000000001	0
bin	1.45	0
bin	1.5000000000000002	0
bin	1.55	0
bin	1.5999999999999999	0
bin	1.6500000000000001	0
bin	1.7	0
statistic PriorityBufferTutorialStep.collector1 packetDelayDifferenceToMean:histogram
field count 10
field mean -0.12417112812649633
field stddev 0.30630392810936835
field min -0.82167159941700008
field max 0.28483390680187498
field sum -1.2417112812649633
field sqrsum 0.99858355797912968
bin	-inf	0
bin	-1.1000000000000001	0
bin	-1.0800000000000001	0
bin	-1.0600000000000001	0
bin	-1.04	0
bin	-1.02	0
bin	-1	0
bin	-0.98000000000000009	0
bin	-0.96000000000000008	0
bin	-0.94000000000000006	0
bin	-0.92000000000000015	0
bin	-0.90000000000000013	0
bin	-0.88000000000000012	0
bin	-0.8600000000000001	0
bin	-0.84000000000000008	1
bin	-0.82000000000000006	0
bin	-0.80000000000000004	0
bin	-0.78000000000000003	0
bin	-0.76000000000000001	0
bin	-0.7400000000000001	0
bin	-0.72000000000000008	0
bin	-0.70000000000000007	0
bin	-0.68000000000000016	0
bin	-0.66000000000000014	0
bin	-0.64000000000000012	0
bin	-0.62000000000000011	0
bin	-0.60000000000000009	0
bin	-0.58000000000000007	0
bin	-0.56000000000000005	0
bin	-0.54000000000000004	0
bin	-0.52000000000000013	0
bin	-0.50000000000000011	0
bin	-0.48000000000000009	0
bin	-0.46000000000000008	0
bin	-0.44000000000000006	0
bin	-0.42000000000000004	0
bin	-0.40000000000000002	0
bin	-0.38000000000000012	0
bin	-0.3600000000000001	0
bin	-0.34000000000000008	0
bin	-0.32000000000000006	1
bin	-0.30000000000000004	0
bin	-0.28000000000000003	0
bin	-0.26000000000000012	1
bin	-0.2400000000000001	0
bin	-0.22000000000000008	0
bin	-0.20000000000000007	0
bin	-0.18000000000000005	1
bin	-0.16000000000000003	0
bin	-0.14000000000000012	1
bin	-0.12000000000000011	0
bin	-0.10000000000000009	0
bin	-0.080000000000000071	0
bin	-0.060000000000000053	1
bin	-0.040000000000000036	0
bin	-0.020000000000000018	0
bin	0	1
bin	0.020000000000000018	0
bin	0.040000000000000036	0
bin	0.059999999999999831	1
bin	0.079999999999999849	0
bin	0.099999999999999867	0
bin	0.11999999999999988	0
bin	0.1399999999999999	1
bin	0.15999999999999992	0
bin	0.17999999999999994	0
bin	0.19999999999999996	0
bin	0.21999999999999997	0
bin	0.23999999999999999	0
bin	0.26000000000000001	0
bin	0.28000000000000003	1
bin	0.30000000000000004	0
bin	0.31999999999999984	0
bin	0.33999999999999986	0
bin	0.35999999999999988	0
bin	0.37999999999999989	0
bin	0.39999999999999991	0
bin	0.41999999999999993	0
bin	0.43999999999999995	0
bin	0.45999999999999996	0
bin	0.47999999999999998	0
bin	0.5	0
bin	0.52000000000000002	0
bin	0.54000000000000004	0
bin	0.56000000000000005	0
bin	0.57999999999999985	0
statistic PriorityBufferTutorialStep.collector1 packetDelayVariation:histogram
field count 10
field mean 0.26264034997594499
field stddev 0.10479587937378497
field min 0
field max 0.37431519512955841
field sum 2.6264034997594501
field sqrsum 0.78863912135839287
bin	-inf	0
bin	0	1
bin	0.01	0
bin	0.02	0
bin	0.029999999999999999	0
bin	0.040000000000000001	0
bin	0.050000000000000003	0
bin	0.059999999999999998	0
bin	0.070000000000000007	0
bin	0.080000000000000002	0
bin	0.089999999999999997	0
bin	0.10000000000000001	0
bin	0.11	0
bin	0.12	0
bin	0.13	0
bin	0.14000000000000001	0
bin	0.14999999999999999	0
bin	0.16	0
bin	0.17000000000000001	0
bin	0.17999999999999999	0
bin	0.19	0
bin	0.20000000000000001	0
bin	0.20999999999999999	0
bin	0.22	0
bin	0.23000000000000001	1
bin	0.23999999999999999	2
bin	0.25	0
bin	0.26000000000000001	1
bin	0.27000000000000002	0
bin	0.28000000000000003	1
bin	0.28999999999999998	1
bin	0.29999999999999999	0
bin	0.31	0
bin	0.32000000000000001	0
bin	0.33000000000000002	1
bin	0.34000000000000002	0
bin	0.35000000000000003	1
bin	0.35999999999999999	0
bin	0.37	1
bin	0.38	0
bin	0.39000000000000001	0
bin	0.40000000000000002	0
bin	0.41000000000000003	0
bin	0.41999999999999998	0
bin	0.42999999999999999	0
bin	0.44	0
bin	0.45000000000000001	0
bin	0.46000000000000002	0
bin	0.47000000000000003	0
statistic PriorityBufferTutorialStep.collector1 droppedPacketLengths:histogram
field count 10
field mean 8
field stddev 0
field min 8
field max 8
field sum 80
field sqrsum 640
bin	-inf	0
bin	7	0
bin	8	10
bin	9	0
statistic PriorityBufferTutorialStep.collector2 packetLengths:histogram
field count 5
field mean 8
field stddev 0
field min 8
field max 8
field sum 40
field sqrsum 320
bin	-inf	0
bin	7	0
bin	8	5
bin	9	0
statistic PriorityBufferTutorialStep.collector2 meanBitLifeTimePerPacket:histogram
field count 5
field mean 0.16633223579279999
field stddev 0.31145600619825164
field min 0
field max 0.71626467560499996
field sum 0.83166117896399994
field sqrsum 0.52635143850701949
bin	-inf	0
bin	0	3
bin	0.01	0
bin	0.02	0
bin	0.029999999999999999	0
bin	0.040000000000000001	0
bin	0.050000000000000003	0
bin	0.059999999999999998	0
bin	0.070000000000000007	0
bin	0.080000000000000002	0
bin	0.089999999999999997	0
bin	0.10000000000000001	0
bin	0.11	1
bin	0.12	0
bin	0.13	0
bin	0.14000000000000001	0
bin	0.14999999999999999	0
bin	0.16	0
bin	0.17000000000000001	0
bin	0.17999999999999999	0
bin	0.19	0
bin	0.20000000000000001	0
bin	0.20999999999999999	0
bin	0.22	0
bin	0.23000000000000001	0
bin	0.23999999999999999	0
bin	0.25	0
bin	0.26000000000000001	0
bin	0.27000000000000002	0
bin	0.28000000000000003	0
bin	0.28999999999999998	0
bin	0.29999999999999999	0
bin	0.31	0
bin	0.32000000000000001	0
bin	0.33000000000000002	0
bin	0.34000000000000002	0
bin	0.35000000000000003	0
bin	0.35999999999999999	0
bin	0.37	0
bin	0.38	0
bin	0.39000000000000001	0
bin	0.40000000000000002	0
bin	0.41000000000000003	0
bin	0.41999999999999998	0
bin	0.42999999999999999	0
bin	0.44	0
bin	0.45000000000000001	0
bin	0.46000000000000002	0
bin	0.47000000000000003	0
bin	0.47999999999999998	0
bin	0.48999999999999999	0
bin	0.5	0
bin	0.51000000000000001	0
bin	0.52000000000000002	0
bin	0.53000000000000003	0
bin	0.54000000000000004	0
bin	0.55000000000000004	0
bin	0.56000000000000005	0
bin	0.57000000000000006	0
bin	0.57999999999999996	0
bin	0.58999999999999997	0
bin	0.59999999999999998	0
bin	0.60999999999999999	0
bin	0.62	0
bin	0.63	0
bin	0.64000000000000001	0
bin	0.65000000000000002	0
bin	0.66000000000000003	0
bin	0.67000000000000004	0
bin	0.68000000000000005	0
bin	0.69000000000000006	0
bin	0.70000000000000007	0
bin	0.70999999999999996	1
bin	0.71999999999999997	0
bin	0.72999999999999998	0
bin	0.73999999999999999	0
bin	0.75	0
bin	0.76000000000000001	0
bin	0.77000000000000002	0
bin	0.78000000000000003	0
bin	0.79000000000000004	0
bin	0.80000000000000004	0
bin	0.81000000000000005	0
bin	0.82000000000000006	0
bin	0.83000000000000007	0
bin	0.83999999999999997	0
bin	0.84999999999999998	0
bin	0.85999999999999999	0
bin	0.87	0
bin	0.88	0
bin	0.89000000000000001	0
bin	0.90000000000000002	0
statistic PriorityBufferTutorialStep.collector2 packetLifeTime:histogram
field count 5
field mean 0.16633223579279999
field stddev 0.31145600619825164
field min 0
field max 0.71626467560499996
field sum 0.83166117896399994
field sqrsum 0.52635143850701949
bin	-inf	0
bin	0	3
bin	0.01	0
bin	0.02	0
bin	0.029999999999999999	0
bin	0.040000000000000001	0
bin	0.050000000000000003	0
bin	0.059999999999999998	0
bin	0.070000000000000007	0
bin	0.080000000000000002	0
bin	0.089999999999999997	0
bin	0.10000000000000001	0
bin	0.11	1
bin	0.12	0
bin	0.13	0
bin	0.14000000000000001	0
bin	0.14999999999999999	0
bin	0.16	0
bin	0.17000000000000001	0
bin	0.17999999999999999	0
bin	0.19	0
bin	0.20000000000000001	0
bin	0.20999999999999999	0
bin	0.22	0
bin	0.23000000000000001	0
bin	0.23999999999999999	0
bin	0.25	0
bin	0.26000000000000001	0
bin	0.27000000000000002	0
bin	0.28000000000000003	0
bin	0.28999999999999998	0
bin	0.29999999999999999	0
bin	0.31	0
bin	0.32000000000000001	0
bin	0.33000000000000002	0
bin	0.34000000000000002	0
bin	0.35000000000000003	0
bin	0.35999999999999999	0
bin	0.37	0
bin	0.38	0
bin	0.39000000000000001	0
bin	0.40000000000000002	0
bin	0.41000000000000003	0
bin	0.41999999999999998	0
bin	0.42999999999999999	0
bin	0.44	0
bin	0.45000000000000001	0
bin	0.46000000000000002	0
bin	0.47000000000000003	0
bin	0.47999999999999998	0
bin	0.48999999999999999	0
bin	0.5	0
bin	0.51000000000000001	0
bin	0.52000000000000002	0
bin	0.53000000000000003	0
bin	0.54000000000000004	0
bin	0.55000000000000004	0
bin	0.56000000000000005	0
bin	0.57000000000000006	0
bin	0.57999999999999996	0
bin	0.58999999999999997	0
bin	0.59999999999999998	0
bin	0.60999999999999999	0
bin	0.62	0
bin	0.63	0
bin	0.64000000000000001	0
bin	0.65000000000000002	0
bin	0.66000000000000003	0
bin	0.67000000000000004	0
bin	0.68000000000000005	0
bin	0.69000000000000006	0
bin	0.70000000000000007	0
bin	0.70999999999999996	1
bin	0.71999999999999997	0
bin	0.72999999999999998	0
bin	0.73999999999999999	0
bin	0.75	0
bin	0.76000000000000001	0
bin	0.77000000000000002	0
bin	0.78000000000000003	0
bin	0.79000000000000004	0
bin	0.80000000000000004	0
bin	0.81000000000000005	0
bin	0.82000000000000006	0
bin	0.83000000000000007	0
bin	0.83999999999999997	0
bin	0.84999999999999998	0
bin	0.85999999999999999	0
bin	0.87	0
bin	0.88	0
bin	0.89000000000000001	0
bin	0.90000000000000002	0
statistic PriorityBufferTutorialStep.collector2 packetJitter:histogram
field count 5
field mean 0.14325293512099999
field stddev 0.33055286051953775
field min -0.11539650335899999
field max 0.71626467560499996
field sum 0.71626467560499996
field sqrsum 0.53966779149450317
bin	-inf	0
bin	-0.34000000000000002	0
bin	-0.32000000000000001	0
bin	-0.30000000000000004	0
bin	-0.28000000000000003	0
bin	-0.26000000000000001	0
bin	-0.24000000000000002	0
bin	-0.22000000000000003	0
bin	-0.20000000000000001	0
bin	-0.18000000000000002	0
bin	-0.16000000000000003	0
bin	-0.14000000000000001	0
bin	-0.12000000000000002	1
bin	-0.10000000000000003	0
bin	-0.080000000000000016	0
bin	-0.059999999999999998	0
bin	-0.040000000000000036	0
bin	-0.020000000000000018	0
bin	0	2
bin	0.019999999999999962	0
bin	0.03999999999999998	0
bin	0.059999999999999998	0
bin	0.07999999999999996	0
bin	0.099999999999999978	1
bin	0.12	0
bin	0.13999999999999996	0
bin	0.15999999999999998	0
bin	0.17999999999999999	0
bin	0.20000000000000001	0
bin	0.22000000000000003	0
bin	0.23999999999999994	0
bin	0.25999999999999995	0
bin	0.27999999999999997	0
bin	0.29999999999999999	0
bin	0.32000000000000001	0
bin	0.34000000000000002	0
bin	0.36000000000000004	0
bin	0.37999999999999995	0
bin	0.39999999999999997	0
bin	0.41999999999999998	0
bin	0.44	0
bin	0.46000000000000002	0
bin	0.48000000000000004	0
bin	0.49999999999999994	0
bin	0.52000000000000002	0
bin	0.54000000000000004	0
bin	0.56000000000000005	0
bin	0.58000000000000007	0
bin	0.60000000000000009	0
bin	0.61999999999999988	0
bin	0.6399999999999999	0
bin	0.65999999999999992	0
bin	0.67999999999999994	0
bin	0.69999999999999996	1
bin	0.71999999999999997	0
bin	0.73999999999999999	0
bin	0.76000000000000001	0
bin	0.78000000000000003	0
bin	0.80000000000000004	0
bin	0.81999999999999984	0
bin	0.83999999999999986	0
bin	0.85999999999999988	0
bin	0.87999999999999989	0
bin	0.89999999999999991	0
bin	0.91999999999999993	0
bin	0.93999999999999995	0
statistic PriorityBufferTutorialStep.collector2 packetDelayDifferenceToMean:histogram
field count 5
field mean -0.10806321290645667
field stddev 0.24983912500069108
field min -0.54993243981219997
field max 0.038465501119666665
field sum -0.54031606453228331
field sqrsum 0.30806664344277468
bin	-inf	0
bin	-0.70000000000000007	0
bin	-0.69000000000000006	0
bin	-0.68000000000000005	0
bin	-0.67000000000000004	0
bin	-0.66000000000000003	0
bin	-0.65000000000000002	0
bin	-0.64000000000000012	0
bin	-0.63000000000000012	0
bin	-0.62000000000000011	0
bin	-0.6100000000000001	0
bin	-0.60000000000000009	0
bin	-0.59000000000000008	0
bin	-0.58000000000000007	0
bin	-0.57000000000000006	0
bin	-0.56000000000000005	0
bin	-0.55000000000000004	1
bin	-0.54000000000000004	0
bin	-0.53000000000000003	0
bin	-0.52000000000000002	0
bin	-0.51000000000000001	0
bin	-0.5	0
bin	-0.4900000000000001	0
bin	-0.48000000000000009	0
bin	-0.47000000000000008	0
bin	-0.46000000000000008	0
bin	-0.45000000000000007	0
bin	-0.44000000000000006	0
bin	-0.43000000000000005	0
bin	-0.42000000000000004	0
bin	-0.41000000000000009	0
bin	-0.40000000000000008	0
bin	-0.39000000000000007	0
bin	-0.38000000000000006	0
bin	-0.37000000000000005	0
bin	-0.36000000000000004	0
bin	-0.35000000000000003	0
bin	-0.34000000000000008	0
bin	-0.33000000000000007	0
bin	-0.32000000000000006	0
bin	-0.31000000000000005	0
bin	-0.30000000000000004	0
bin	-0.29000000000000004	0
bin	-0.28000000000000008	0
bin	-0.27000000000000007	0
bin	-0.26000000000000006	0
bin	-0.25000000000000006	0
bin	-0.24000000000000005	0
bin	-0.23000000000000004	0
bin	-0.22000000000000008	0
bin	-0.21000000000000008	0
bin	-0.20000000000000007	0
bin	-0.19000000000000006	0
bin	-0.18000000000000005	0
bin	-0.17000000000000004	0
bin	-0.16000000000000003	0
bin	-0.15000000000000002	0
bin	-0.14000000000000001	0
bin	-0.13	0
bin	-0.12000000000000011	0
bin	-0.1100000000000001	0
bin	-0.10000000000000009	0
bin	-0.09000000000000008	0
bin	-0.080000000000000071	0
bin	-0.070000000000000062	0
bin	-0.060000000000000053	1
bin	-0.050000000000000044	0
bin	-0.040000000000000036	0
bin	-0.030000000000000027	0
bin	-0.020000000000000018	0
bin	-0.010000000000000009	0
bin	0	1
bin	0.0099999999999998979	0
bin	0.019999999999999907	1
bin	0.029999999999999916	1
bin	0.039999999999999925	0
bin	0.049999999999999933	0
bin	0.059999999999999942	0
bin	0.069999999999999951	0
bin	0.07999999999999996	0
bin	0.089999999999999969	0
bin	0.099999999999999978	0
bin	0.10999999999999999	0
bin	0.12	0
bin	0.13	0
bin	0.1399999999999999	0
bin	0.14999999999999991	0
bin	0.15999999999999992	0
bin	0.16999999999999993	0
bin	0.17999999999999994	0
bin	0.18999999999999995	0
statistic PriorityBufferTutorialStep.collector2 packetDelayVariation:histogram
field count 5
field mean 0.08875532658188208
field stddev 0.11032682079466379
field min 0
field max 0.28155441933498671
field sum 0.44377663290941038
field sqrsum 0.088075569529914147
bin	-inf	0
bin	0	1
bin	0.0050000000000000001	0
bin	0.01	0
bin	0.014999999999999999	0
bin	0.02	0
bin	0.025000000000000001	0
bin	0.029999999999999999	0
bin	0.035000000000000003	0
bin	0.040000000000000001	0
bin	0.044999999999999998	1
bin	0.050000000000000003	1
bin	0.055	1
bin	0.059999999999999998	0
bin	0.065000000000000002	0
bin	0.070000000000000007	0
bin	0.074999999999999997	0
bin	0.080000000000000002	0
bin	0.085000000000000006	0
bin	0.089999999999999997	0
bin	0.095000000000000001	0
bin	0.10000000000000001	0
bin	0.105	0
bin	0.11	0
bin	0.115	0
bin	0.12	0
bin	0.125	0
bin	0.13	0
bin	0.13500000000000001	0
bin	0.14000000000000001	0
bin	0.14499999999999999	0
bin	0.14999999999999999	0
bin	0.155	0
bin	0.16	0
bin	0.16500000000000001	0
bin	0.17000000000000001	0
bin	0.17500000000000002	0
bin	0.17999999999999999	0
bin	0.185	0
bin	0.19	0
bin	0.19500000000000001	0
bin	0.20000000000000001	0
bin	0.20500000000000002	0
bin	0.20999999999999999	0
bin	0.215	0
bin	0.22	0
bin	0.22500000000000001	0
bin	0.23000000000000001	0
bin	0.23500000000000001	0
bin	0.23999999999999999	0
bin	0.245	0
bin	0.25	0
bin	0.255	0
bin	0.26000000000000001	0
bin	0.26500000000000001	0
bin	0.27000000000000002	0
bin	0.27500000000000002	0
bin	0.28000000000000003	1
bin	0.28500000000000003	0
bin	0.28999999999999998	0
bin	0.29499999999999998	0
bin	0.29999999999999999	0
bin	0.30499999999999999	0
bin	0.31	0
bin	0.315	0
bin	0.32000000000000001	0
bin	0.32500000000000001	0
bin	0.33000000000000002	0
bin	0.33500000000000002	0
bin	0.34000000000000002	0
bin	0.34500000000000003	0
bin	0.35000000000000003	0
bin	0.35499999999999998	0
statistic PriorityBufferTutorialStep.collector2 droppedPacketLengths:histogram
field count 5
field mean 8
field stddev 0
field min 8
field max 8
field sum 40
field sqrsum 320
bin	-inf	0
bin	7	0
bin	8	5
bin	9	0
scalar PriorityBufferTutorialStep.buffer addedPacketLengths:vector:count 36
scalar PriorityBufferTutorialStep.buffer addedPacketLengths:vector:sum 288
scalar PriorityBufferTutorialStep.buffer addedPacketLengths:vector:sumweights 36
scalar PriorityBufferTutorialStep.buffer addedPacketLengths:vector:mean 8
scalar PriorityBufferTutorialStep.buffer addedPacketLengths:vector:stddev 0
scalar PriorityBufferTutorialStep.buffer addedPacketLengths:vector:min 8
scalar PriorityBufferTutorialStep.buffer addedPacketLengths:vector:max 8
scalar PriorityBufferTutorialStep.buffer addedPacketLengths:vector:starttime 0
scalar PriorityBufferTutorialStep.buffer addedPacketLengths:vector:endtime 9.8994115954240023
scalar PriorityBufferTutorialStep.buffer removedPacketLengths:vector:count 15
scalar PriorityBufferTutorialStep.buffer removedPacketLengths:vector:sum 120
scalar PriorityBufferTutorialStep.buffer removedPacketLengths:vector:sumweights 15
scalar PriorityBufferTutorialStep.buffer removedPacketLengths:vector:mean 8
scalar PriorityBufferTutorialStep.buffer removedPacketLengths:vector:stddev 0
scalar PriorityBufferTutorialStep.buffer removedPacketLengths:vector:min 8
scalar PriorityBufferTutorialStep.buffer removedPacketLengths:vector:max 8
scalar PriorityBufferTutorialStep.buffer removedPacketLengths:vector:starttime 0
scalar PriorityBufferTutorialStep.buffer removedPacketLengths:vector:endtime 9.2227875613600023
scalar PriorityBufferTutorialStep.buffer bufferLength:vector:count 73
scalar PriorityBufferTutorialStep.buffer bufferLength:vector:sum 129
scalar PriorityBufferTutorialStep.buffer bufferLength:vector:sumweights 73
scalar PriorityBufferTutorialStep.buffer bufferLength:vector:mean 1.7671232876712328
scalar PriorityBufferTutorialStep.buffer bufferLength:vector:stddev 0.99331862328601228
scalar PriorityBufferTutorialStep.buffer bufferLength:vector:min 0
scalar PriorityBufferTutorialStep.buffer bufferLength:vector:max 3
scalar PriorityBufferTutorialStep.buffer bufferLength:vector:starttime 0
scalar PriorityBufferTutorialStep.buffer bufferLength:vector:endtime 9.8994115954240023
scalar PriorityBufferTutorialStep.buffer bufferBitLength:vector:count 73
scalar PriorityBufferTutorialStep.buffer bufferBitLength:vector:sum 1032
scalar PriorityBufferTutorialStep.buffer bufferBitLength:vector:sumweights 73
scalar PriorityBufferTutorialStep.buffer bufferBitLength:vector:mean 14.136986301369863
scalar PriorityBufferTutorialStep.buffer bufferBitLength:vector:stddev 7.9465489862880982
scalar PriorityBufferTutorialStep.buffer bufferBitLength:vector:min 0
scalar PriorityBufferTutorialStep.buffer bufferBitLength:vector:max 24
scalar PriorityBufferTutorialStep.buffer bufferBitLength:vector:starttime 0
scalar PriorityBufferTutorialStep.buffer bufferBitLength:vector:endtime 9.8994115954240023
scalar PriorityBufferTutorialStep.buffer droppedPacketLengthsQueueOverflow:vector:count 19
scalar PriorityBufferTutorialStep.buffer droppedPacketLengthsQueueOverflow:vector:sum 152
scalar PriorityBufferTutorialStep.buffer droppedPacketLengthsQueueOverflow:vector:sumweights 19
scalar PriorityBufferTutorialStep.buffer droppedPacketLengthsQueueOverflow:vector:mean 8
scalar PriorityBufferTutorialStep.buffer droppedPacketLengthsQueueOverflow:vector:stddev 0
scalar PriorityBufferTutorialStep.buffer droppedPacketLengthsQueueOverflow:vector:min 8
scalar PriorityBufferTutorialStep.buffer droppedPacketLengthsQueueOverflow:vector:max 8
scalar PriorityBufferTutorialStep.buffer droppedPacketLengthsQueueOverflow:vector:starttime 1.1515768726820002
scalar PriorityBufferTutorialStep.buffer droppedPacketLengthsQueueOverflow:vector:endtime 9.8994115954240023
scalar PriorityBufferTutorialStep.producer1 packetLengths:vector:count 18
scalar PriorityBufferTutorialStep.producer1 packetLengths:vector:sum 144
scalar PriorityBufferTutorialStep.producer1 packetLengths:vector:sumweights 18
scalar PriorityBufferTutorialStep.producer1 packetLengths:vector:mean 8
scalar PriorityBufferTutorialStep.producer1 packetLengths:vector:stddev 0
scalar PriorityBufferTutorialStep.producer1 packetLengths:vector:min 8
scalar PriorityBufferTutorialStep.producer1 packetLengths:vector:max 8
scalar PriorityBufferTutorialStep.producer1 packetLengths:vector:starttime 0
scalar PriorityBufferTutorialStep.producer1 packetLengths:vector:endtime 9.744628801011002
scalar PriorityBufferTutorialStep.producer1 dataRate:vector:count 100
scalar PriorityBufferTutorialStep.producer1 dataRate:vector:sum 1440
scalar PriorityBufferTutorialStep.producer1 dataRate:vector:sumweights 100
scalar PriorityBufferTutorialStep.producer1 dataRate:vector:mean 14.4
scalar PriorityBufferTutorialStep.producer1 dataRate:vector:stddev 30.889833573229527
scalar PriorityBufferTutorialStep.producer1 dataRate:vector:min 0
scalar PriorityBufferTutorialStep.producer1 dataRate:vector:max 80
scalar PriorityBufferTutorialStep.producer1 dataRate:vector:starttime 0.10000000000000001
scalar PriorityBufferTutorialStep.producer1 dataRate:vector:endtime 10
scalar PriorityBufferTutorialStep.producer2 packetLengths:vector:count 18
scalar PriorityBufferTutorialStep.producer2 packetLengths:vector:sum 144
scalar PriorityBufferTutorialStep.producer2 packetLengths:vector:sumweights 18
scalar PriorityBufferTutorialStep.producer2 packetLengths:vector:mean 8
scalar PriorityBufferTutorialStep.producer2 packetLengths:vector:stddev 0
scalar PriorityBufferTutorialStep.producer2 packetLengths:vector:min 8
scalar PriorityBufferTutorialStep.producer2 packetLengths:vector:max 8
scalar PriorityBufferTutorialStep.producer2 packetLengths:vector:starttime 0
scalar PriorityBufferTutorialStep.producer2 packetLengths:vector:endtime 9.8994115954240023
scalar PriorityBufferTutorialStep.producer2 dataRate:vector:count 100
scalar PriorityBufferTutorialStep.producer2 dataRate:vector:sum 1440
scalar PriorityBufferTutorialStep.producer2 dataRate:vector:sumweights 100
scalar PriorityBufferTutorialStep.producer2 dataRate:vector:mean 14.4
scalar PriorityBufferTutorialStep.producer2 dataRate:vector:stddev 30.889833573229527
scalar PriorityBufferTutorialStep.producer2 dataRate:vector:min 0
scalar PriorityBufferTutorialStep.producer2 dataRate:vector:max 80
scalar PriorityBufferTutorialStep.producer2 dataRate:vector:starttime 0.10000000000000001
scalar PriorityBufferTutorialStep.producer2 dataRate:vector:endtime 10
scalar PriorityBufferTutorialStep.queue1 queueLength:vector:count 32
scalar PriorityBufferTutorialStep.queue1 queueLength:vector:sum 34
scalar PriorityBufferTutorialStep.queue1 queueLength:vector:sumweights 32
scalar PriorityBufferTutorialStep.queue1 queueLength:vector:mean 1.0625
scalar PriorityBufferTutorialStep.queue1 queueLength:vector:stddev 0.84002688129030889
scalar PriorityBufferTutorialStep.queue1 queueLength:vector:min 0
scalar PriorityBufferTutorialStep.queue1 queueLength:vector:max 2
scalar PriorityBufferTutorialStep.queue1 queueLength:vector:starttime 0
scalar PriorityBufferTutorialStep.queue1 queueLength:vector:endtime 9.744628801011002
scalar PriorityBufferTutorialStep.queue1 queueBitLength:vector:count 32
scalar PriorityBufferTutorialStep.queue1 queueBitLength:vector:sum 272
scalar PriorityBufferTutorialStep.queue1 queueBitLength:vector:sumweights 32
scalar PriorityBufferTutorialStep.queue1 queueBitLength:vector:mean 8.5
scalar PriorityBufferTutorialStep.queue1 queueBitLength:vector:stddev 6.7202150503224711
scalar PriorityBufferTutorialStep.queue1 queueBitLength:vector:min 0
scalar PriorityBufferTutorialStep.queue1 queueBitLength:vector:max 16
scalar PriorityBufferTutorialStep.queue1 queueBitLength:vector:starttime 0
scalar PriorityBufferTutorialStep.queue1 queueBitLength:vector:endtime 9.744628801011002
scalar PriorityBufferTutorialStep.queue1 queueingTime:vector:count 10
scalar PriorityBufferTutorialStep.queue1 queueingTime:vector:sum 4.4113344300939996
scalar PriorityBufferTutorialStep.queue1 queueingTime:vector:sumweights 10
scalar PriorityBufferTutorialStep.queue1 queueingTime:vector:mean 0.44113344300939994
scalar PriorityBufferTutorialStep.queue1 queueingTime:vector:stddev 0.37082275546525656
scalar PriorityBufferTutorialStep.queue1 queueingTime:vector:min 0
scalar PriorityBufferTutorialStep.queue1 queueingTime:vector:max 1.2475543108280001
scalar PriorityBufferTutorialStep.queue1 queueingTime:vector:starttime 0
scalar PriorityBufferTutorialStep.queue1 queueingTime:vector:endtime 9.2227875613600023
scalar PriorityBufferTutorialStep.queue1 incomingPacketLengths:vector:count 18
scalar PriorityBufferTutorialStep.queue1 incomingPacketLengths:vector:sum 144
scalar PriorityBufferTutorialStep.queue1 incomingPacketLengths:vector:sumweights 18
scalar PriorityBufferTutorialStep.queue1 incomingPacketLengths:vector:mean 8
scalar PriorityBufferTutorialStep.queue1 incomingPacketLengths:vector:stddev 0
scalar PriorityBufferTutorialStep.queue1 incomingPacketLengths:vector:min 8
scalar PriorityBufferTutorialStep.queue1 incomingPacketLengths:vector:max 8
scalar PriorityBufferTutorialStep.queue1 incomingPacketLengths:vector:starttime 0
scalar PriorityBufferTutorialStep.queue1 incomingPacketLengths:vector:endtime 9.744628801011002
scalar PriorityBufferTutorialStep.queue1 incomingDataRate:vector:count 100
scalar PriorityBufferTutorialStep.queue1 incomingDataRate:vector:sum 1440
scalar PriorityBufferTutorialStep.queue1 incomingDataRate:vector:sumweights 100
scalar PriorityBufferTutorialStep.queue1 incomingDataRate:vector:mean 14.4
scalar PriorityBufferTutorialStep.queue1 incomingDataRate:vector:stddev 30.889833573229527
scalar PriorityBufferTutorialStep.queue1 incomingDataRate:vector:min 0
scalar PriorityBufferTutorialStep.queue1 incomingDataRate:vector:max 80
scalar PriorityBufferTutorialStep.queue1 incomingDataRate:vector:starttime 0.10000000000000001
scalar PriorityBufferTutorialStep.queue1 incomingDataRate:vector:endtime 10
scalar PriorityBufferTutorialStep.queue1 outgoingPacketLengths:vector:count 10
scalar PriorityBufferTutorialStep.queue1 outgoingPacketLengths:vector:sum 80
scalar PriorityBufferTutorialStep.queue1 outgoingPacketLengths:vector:sumweights 10
scalar PriorityBufferTutorialStep.queue1 outgoingPacketLengths:vector:mean 8
scalar PriorityBufferTutorialStep.queue1 outgoingPacketLengths:vector:stddev 0
scalar PriorityBufferTutorialStep.queue1 outgoingPacketLengths:vector:min 8
scalar PriorityBufferTutorialStep.queue1 outgoingPacketLengths:vector:max 8
scalar PriorityBufferTutorialStep.queue1 outgoingPacketLengths:vector:starttime 0
scalar PriorityBufferTutorialStep.queue1 outgoingPacketLengths:vector:endtime 9.2227875613600023
scalar PriorityBufferTutorialStep.queue1 outgoingDataRate:vector:count 100
scalar PriorityBufferTutorialStep.queue1 outgoingDataRate:vector:sum 800
scalar PriorityBufferTutorialStep.queue1 outgoingDataRate:vector:sumweights 100
scalar PriorityBufferTutorialStep.queue1 outgoingDataRate:vector:mean 8
scalar PriorityBufferTutorialStep.queue1 outgoingDataRate:vector:stddev 24.120907566221092
scalar PriorityBufferTutorialStep.queue1 outgoingDataRate:vector:min 0
scalar PriorityBufferTutorialStep.queue1 outgoingDataRate:vector:max 80
scalar PriorityBufferTutorialStep.queue1 outgoingDataRate:vector:starttime 0.10000000000000001
scalar PriorityBufferTutorialStep.queue1 outgoingDataRate:vector:endtime 10
scalar PriorityBufferTutorialStep.queue1 droppedPacketLengthsQueueOverflow:vector:count 0
scalar PriorityBufferTutorialStep.queue1 droppedPacketLengthsQueueOverflow:vector:sum 0
scalar PriorityBufferTutorialStep.queue1 droppedPacketLengthsQueueOverflow:vector:sumweights 0
scalar PriorityBufferTutorialStep.queue1 droppedPacketLengthsQueueOverflow:vector:mean -nan
scalar PriorityBufferTutorialStep.queue1 droppedPacketLengthsQueueOverflow:vector:stddev nan
scalar PriorityBufferTutorialStep.queue1 droppedPacketLengthsQueueOverflow:vector:min inf
scalar PriorityBufferTutorialStep.queue1 droppedPacketLengthsQueueOverflow:vector:max -inf
scalar PriorityBufferTutorialStep.queue1 droppedPacketLengthsQueueOverflow:vector:starttime nan
scalar PriorityBufferTutorialStep.queue1 droppedPacketLengthsQueueOverflow:vector:endtime nan
scalar PriorityBufferTutorialStep.queue1 flowQueueingTime:vector:count 0
scalar PriorityBufferTutorialStep.queue1 flowQueueingTime:vector:sum 0
scalar PriorityBufferTutorialStep.queue1 flowQueueingTime:vector:sumweights 0
scalar PriorityBufferTutorialStep.queue1 flowQueueingTime:vector:mean -nan
scalar PriorityBufferTutorialStep.queue1 flowQueueingTime:vector:stddev nan
scalar PriorityBufferTutorialStep.queue1 flowQueueingTime:vector:min inf
scalar PriorityBufferTutorialStep.queue1 flowQueueingTime:vector:max -inf
scalar PriorityBufferTutorialStep.queue1 flowQueueingTime:vector:starttime nan
scalar PriorityBufferTutorialStep.queue1 flowQueueingTime:vector:endtime nan
scalar PriorityBufferTutorialStep.queue1 flowIncomingDataRate:vector:count 100
scalar PriorityBufferTutorialStep.queue1 flowIncomingDataRate:vector:sum 0
scalar PriorityBufferTutorialStep.queue1 flowIncomingDataRate:vector:sumweights 100
scalar PriorityBufferTutorialStep.queue1 flowIncomingDataRate:vector:mean 0
scalar PriorityBufferTutorialStep.queue1 flowIncomingDataRate:vector:stddev 0
scalar PriorityBufferTutorialStep.queue1 flowIncomingDataRate:vector:min 0
scalar PriorityBufferTutorialStep.queue1 flowIncomingDataRate:vector:max 0
scalar PriorityBufferTutorialStep.queue1 flowIncomingDataRate:vector:starttime 0.10000000000000001
scalar PriorityBufferTutorialStep.queue1 flowIncomingDataRate:vector:endtime 10
scalar PriorityBufferTutorialStep.queue1 flowOutgoingDataRate:vector:count 100
scalar PriorityBufferTutorialStep.queue1 flowOutgoingDataRate:vector:sum 0
scalar PriorityBufferTutorialStep.queue1 flowOutgoingDataRate:vector:sumweights 100
scalar PriorityBufferTutorialStep.queue1 flowOutgoingDataRate:vector:mean 0
scalar PriorityBufferTutorialStep.queue1 flowOutgoingDataRate:vector:stddev 0
scalar PriorityBufferTutorialStep.queue1 flowOutgoingDataRate:vector:min 0
scalar PriorityBufferTutorialStep.queue1 flowOutgoingDataRate:vector:max 0
scalar PriorityBufferTutorialStep.queue1 flowOutgoingDataRate:vector:starttime 0.10000000000000001
scalar PriorityBufferTutorialStep.queue1 flowOutgoingDataRate:vector:endtime 10
scalar PriorityBufferTutorialStep.queue2 queueLength:vector:count 30
scalar PriorityBufferTutorialStep.queue2 queueLength:vector:sum 10
scalar PriorityBufferTutorialStep.queue2 queueLength:vector:sumweights 30
scalar PriorityBufferTutorialStep.queue2 queueLength:vector:mean 0.33333333333333331
scalar PriorityBufferTutorialStep.queue2 queueLength:vector:stddev 0.54667227359053394
scalar PriorityBufferTutorialStep.queue2 queueLength:vector:min 0
scalar PriorityBufferTutorialStep.queue2 queueLength:vector:max 2
scalar PriorityBufferTutorialStep.queue2 queueLength:vector:starttime 0
scalar PriorityBufferTutorialStep.queue2 queueLength:vector:endtime 9.8994115954240023
scalar PriorityBufferTutorialStep.queue2 queueBitLength:vector:count 30
scalar PriorityBufferTutorialStep.queue2 queueBitLength:vector:sum 80
scalar PriorityBufferTutorialStep.queue2 queueBitLength:vector:sumweights 30
scalar PriorityBufferTutorialStep.queue2 queueBitLength:vector:mean 2.6666666666666665
scalar PriorityBufferTutorialStep.queue2 queueBitLength:vector:stddev 4.3733781887242715
scalar PriorityBufferTutorialStep.queue2 queueBitLength:vector:min 0
scalar PriorityBufferTutorialStep.queue2 queueBitLength:vector:max 16
scalar PriorityBufferTutorialStep.queue2 queueBitLength:vector:starttime 0
scalar PriorityBufferTutorialStep.queue2 queueBitLength:vector:endtime 9.8994115954240023
scalar PriorityBufferTutorialStep.queue2 queueingTime:vector:count 5
scalar PriorityBufferTutorialStep.queue2 queueingTime:vector:sum 0.83166117896399994
scalar PriorityBufferTutorialStep.queue2 queueingTime:vector:sumweights 5
scalar PriorityBufferTutorialStep.queue2 queueingTime:vector:mean 0.16633223579279999
scalar PriorityBufferTutorialStep.queue2 queueingTime:vector:stddev 0.31145600619825164
scalar PriorityBufferTutorialStep.queue2 queueingTime:vector:min 0
scalar PriorityBufferTutorialStep.queue2 queueingTime:vector:max 0.71626467560499996
scalar PriorityBufferTutorialStep.queue2 queueingTime:vector:starttime 0
scalar PriorityBufferTutorialStep.queue2 queueingTime:vector:endtime 6.7176455373400019
scalar PriorityBufferTutorialStep.queue2 incomingPacketLengths:vector:count 18
scalar PriorityBufferTutorialStep.queue2 incomingPacketLengths:vector:sum 144
scalar PriorityBufferTutorialStep.queue2 incomingPacketLengths:vector:sumweights 18
scalar PriorityBufferTutorialStep.queue2 incomingPacketLengths:vector:mean 8
scalar PriorityBufferTutorialStep.queue2 incomingPacketLengths:vector:stddev 0
scalar PriorityBufferTutorialStep.queue2 incomingPacketLengths:vector:min 8
scalar PriorityBufferTutorialStep.queue2 incomingPacketLengths:vector:max 8
scalar PriorityBufferTutorialStep.queue2 incomingPacketLengths:vector:starttime 0
scalar PriorityBufferTutorialStep.queue2 incomingPacketLengths:vector:endtime 9.8994115954240023
scalar PriorityBufferTutorialStep.queue2 incomingDataRate:vector:count 100
scalar PriorityBufferTutorialStep.queue2 incomingDataRate:vector:sum 1440
scalar PriorityBufferTutorialStep.queue2 incomingDataRate:vector:sumweights 100
scalar PriorityBufferTutorialStep.queue2 incomingDataRate:vector:mean 14.4
scalar PriorityBufferTutorialStep.queue2 incomingDataRate:vector:stddev 30.889833573229527
scalar PriorityBufferTutorialStep.queue2 incomingDataRate:vector:min 0
scalar PriorityBufferTutorialStep.queue2 incomingDataRate:vector:max 80
scalar PriorityBufferTutorialStep.queue2 incomingDataRate:vector:starttime 0.10000000000000001
scalar PriorityBufferTutorialStep.queue2 incomingDataRate:vector:endtime 10
scalar PriorityBufferTutorialStep.queue2 outgoingPacketLengths:vector:count 5
scalar PriorityBufferTutorialStep.queue2 outgoingPacketLengths:vector:sum 40
scalar PriorityBufferTutorialStep.queue2 outgoingPacketLengths:vector:sumweights 5
scalar PriorityBufferTutorialStep.queue2 outgoingPacketLengths:vector:mean 8
scalar PriorityBufferTutorialStep.queue2 outgoingPacketLengths:vector:stddev 0
scalar PriorityBufferTutorialStep.queue2 outgoingPacketLengths:vector:min 8
scalar PriorityBufferTutorialStep.queue2 outgoingPacketLengths:vector:max 8
scalar PriorityBufferTutorialStep.queue2 outgoingPacketLengths:vector:starttime 0
scalar PriorityBufferTutorialStep.queue2 outgoingPacketLengths:vector:endtime 6.7176455373400019
scalar PriorityBufferTutorialStep.queue2 outgoingDataRate:vector:count 100
scalar PriorityBufferTutorialStep.queue2 outgoingDataRate:vector:sum 400
scalar PriorityBufferTutorialStep.queue2 outgoingDataRate:vector:sumweights 100
scalar PriorityBufferTutorialStep.queue2 outgoingDataRate:vector:mean 4
scalar PriorityBufferTutorialStep.queue2 outgoingDataRate:vector:stddev 17.523433084607223
scalar PriorityBufferTutorialStep.queue2 outgoingDataRate:vector:min 0
scalar PriorityBufferTutorialStep.queue2 outgoingDataRate:vector:max 80
scalar PriorityBufferTutorialStep.queue2 outgoingDataRate:vector:starttime 0.10000000000000001
scalar PriorityBufferTutorialStep.queue2 outgoingDataRate:vector:endtime 10
scalar PriorityBufferTutorialStep.queue2 droppedPacketLengthsQueueOverflow:vector:count 0
scalar PriorityBufferTutorialStep.queue2 droppedPacketLengthsQueueOverflow:vector:sum 0
scalar PriorityBufferTutorialStep.queue2 droppedPacketLengthsQueueOverflow:vector:sumweights 0
scalar PriorityBufferTutorialStep.queue2 droppedPacketLengthsQueueOverflow:vector:mean -nan
scalar PriorityBufferTutorialStep.queue2 droppedPacketLengthsQueueOverflow:vector:stddev nan
scalar PriorityBufferTutorialStep.queue2 droppedPacketLengthsQueueOverflow:vector:min inf
scalar PriorityBufferTutorialStep.queue2 droppedPacketLengthsQueueOverflow:vector:max -inf
scalar PriorityBufferTutorialStep.queue2 droppedPacketLengthsQueueOverflow:vector:starttime nan
scalar PriorityBufferTutorialStep.queue2 droppedPacketLengthsQueueOverflow:vector:endtime nan
scalar PriorityBufferTutorialStep.queue2 flowQueueingTime:vector:count 0
scalar PriorityBufferTutorialStep.queue2 flowQueueingTime:vector:sum 0
scalar PriorityBufferTutorialStep.queue2 flowQueueingTime:vector:sumweights 0
scalar PriorityBufferTutorialStep.queue2 flowQueueingTime:vector:mean -nan
scalar PriorityBufferTutorialStep.queue2 flowQueueingTime:vector:stddev nan
scalar PriorityBufferTutorialStep.queue2 flowQueueingTime:vector:min inf
scalar PriorityBufferTutorialStep.queue2 flowQueueingTime:vector:max -inf
scalar PriorityBufferTutorialStep.queue2 flowQueueingTime:vector:starttime nan
scalar PriorityBufferTutorialStep.queue2 flowQueueingTime:vector:endtime nan
scalar PriorityBufferTutorialStep.queue2 flowIncomingDataRate:vector:count 100
scalar PriorityBufferTutorialStep.queue2 flowIncomingDataRate:vector:sum 0
scalar PriorityBufferTutorialStep.queue2 flowIncomingDataRate:vector:sumweights 100
scalar PriorityBufferTutorialStep.queue2 flowIncomingDataRate:vector:mean 0
scalar PriorityBufferTutorialStep.queue2 flowIncomingDataRate:vector:stddev 0
scalar PriorityBufferTutorialStep.queue2 flowIncomingDataRate:vector:min 0
scalar PriorityBufferTutorialStep.queue2 flowIncomingDataRate:vector:max 0
scalar PriorityBufferTutorialStep.queue2 flowIncomingDataRate:vector:starttime 0.10000000000000001
scalar PriorityBufferTutorialStep.queue2 flowIncomingDataRate:vector:endtime 10
scalar PriorityBufferTutorialStep.queue2 flowOutgoingDataRate:vector:count 100
scalar PriorityBufferTutorialStep.queue2 flowOutgoingDataRate:vector:sum 0
scalar PriorityBufferTutorialStep.queue2 flowOutgoingDataRate:vector:sumweights 100
scalar PriorityBufferTutorialStep.queue2 flowOutgoingDataRate:vector:mean 0
scalar PriorityBufferTutorialStep.queue2 flowOutgoingDataRate:vector:stddev 0
scalar PriorityBufferTutorialStep.queue2 flowOutgoingDataRate:vector:min 0
scalar PriorityBufferTutorialStep.queue2 flowOutgoingDataRate:vector:max 0
scalar PriorityBufferTutorialStep.queue2 flowOutgoingDataRate:vector:starttime 0.10000000000000001
scalar PriorityBufferTutorialStep.queue2 flowOutgoingDataRate:vector:endtime 10
scalar PriorityBufferTutorialStep.collector1 droppedPacketLengths:vector:count 10
scalar PriorityBufferTutorialStep.collector1 droppedPacketLengths:vector:sum 80
scalar PriorityBufferTutorialStep.collector1 droppedPacketLengths:vector:sumweights 10
scalar PriorityBufferTutorialStep.collector1 droppedPacketLengths:vector:mean 8
scalar PriorityBufferTutorialStep.collector1 droppedPacketLengths:vector:stddev 0
scalar PriorityBufferTutorialStep.collector1 droppedPacketLengths:vector:min 8
scalar PriorityBufferTutorialStep.collector1 droppedPacketLengths:vector:max 8
scalar PriorityBufferTutorialStep.collector1 droppedPacketLengths:vector:starttime 0
scalar PriorityBufferTutorialStep.collector1 droppedPacketLengths:vector:endtime 9.2227875613600023
scalar PriorityBufferTutorialStep.collector1 droppedDataRate:vector:count 100
scalar PriorityBufferTutorialStep.collector1 droppedDataRate:vector:sum 800
scalar PriorityBufferTutorialStep.collector1 droppedDataRate:vector:sumweights 100
scalar PriorityBufferTutorialStep.collector1 droppedDataRate:vector:mean 8
scalar PriorityBufferTutorialStep.collector1 droppedDataRate:vector:stddev 24.120907566221092
scalar PriorityBufferTutorialStep.collector1 droppedDataRate:vector:min 0
scalar PriorityBufferTutorialStep.collector1 droppedDataRate:vector:max 80
scalar PriorityBufferTutorialStep.collector1 droppedDataRate:vector:starttime 0.10000000000000001
scalar PriorityBufferTutorialStep.collector1 droppedDataRate:vector:endtime 10
scalar PriorityBufferTutorialStep.collector1 packetLengths:vector:count 10
scalar PriorityBufferTutorialStep.collector1 packetLengths:vector:sum 80
scalar PriorityBufferTutorialStep.collector1 packetLengths:vector:sumweights 10
scalar PriorityBufferTutorialStep.collector1 packetLengths:vector:mean 8
scalar PriorityBufferTutorialStep.collector1 packetLengths:vector:stddev 0
scalar PriorityBufferTutorialStep.collector1 packetLengths:vector:min 8
scalar PriorityBufferTutorialStep.collector1 packetLengths:vector:max 8
scalar PriorityBufferTutorialStep.collector1 packetLengths:vector:starttime 0
scalar PriorityBufferTutorialStep.collector1 packetLengths:vector:endtime 9.2227875613600023
scalar PriorityBufferTutorialStep.collector1 dataRate:vector:count 100
scalar PriorityBufferTutorialStep.collector1 dataRate:vector:sum 800
scalar PriorityBufferTutorialStep.collector1 dataRate:vector:sumweights 100
scalar PriorityBufferTutorialStep.collector1 dataRate:vector:mean 8
scalar PriorityBufferTutorialStep.collector1 dataRate:vector:stddev 24.120907566221092
scalar PriorityBufferTutorialStep.collector1 dataRate:vector:min 0
scalar PriorityBufferTutorialStep.collector1 dataRate:vector:max 80
scalar PriorityBufferTutorialStep.collector1 dataRate:vector:starttime 0.10000000000000001
scalar PriorityBufferTutorialStep.collector1 dataRate:vector:endtime 10
scalar PriorityBufferTutorialStep.collector1 meanBitLifeTimePerPacket:vector:count 10
scalar PriorityBufferTutorialStep.collector1 meanBitLifeTimePerPacket:vector:sum 4.4113344300939996
scalar PriorityBufferTutorialStep.collector1 meanBitLifeTimePerPacket:vector:sumweights 10
scalar PriorityBufferTutorialStep.collector1 meanBitLifeTimePerPacket:vector:mean 0.44113344300939994
scalar PriorityBufferTutorialStep.collector1 meanBitLifeTimePerPacket:vector:stddev 0.37082275546525656
scalar PriorityBufferTutorialStep.collector1 meanBitLifeTimePerPacket:vector:min 0
scalar PriorityBufferTutorialStep.collector1 meanBitLifeTimePerPacket:vector:max 1.2475543108280001
scalar PriorityBufferTutorialStep.collector1 meanBitLifeTimePerPacket:vector:starttime 0
scalar PriorityBufferTutorialStep.collector1 meanBitLifeTimePerPacket:vector:endtime 9.2227875613600023
scalar PriorityBufferTutorialStep.collector1 packetLifeTime:vector:count 10
scalar PriorityBufferTutorialStep.collector1 packetLifeTime:vector:sum 4.4113344300939996
scalar PriorityBufferTutorialStep.collector1 packetLifeTime:vector:sumweights 10
scalar PriorityBufferTutorialStep.collector1 packetLifeTime:vector:mean 0.44113344300939994
scalar PriorityBufferTutorialStep.collector1 packetLifeTime:vector:stddev 0.37082275546525656
scalar PriorityBufferTutorialStep.collector1 packetLifeTime:vector:min 0
scalar PriorityBufferTutorialStep.collector1 packetLifeTime:vector:max 1.2475543108280001
scalar PriorityBufferTutorialStep.collector1 packetLifeTime:vector:starttime 0
scalar PriorityBufferTutorialStep.collector1 packetLifeTime:vector:endtime 9.2227875613600023
scalar PriorityBufferTutorialStep.collector1 packetJitter:vector:count 10
scalar PriorityBufferTutorialStep.collector1 packetJitter:vector:sum 0.57839002739500001
scalar PriorityBufferTutorialStep.collector1 packetJitter:vector:sumweights 10
scalar PriorityBufferTutorialStep.collector1 packetJitter:vector:mean 0.057839002739500003
scalar PriorityBufferTutorialStep.collector1 packetJitter:vector:stddev 0.57688391425037466
scalar PriorityBufferTutorialStep.collector1 packetJitter:vector:min -0.66916428343300005
scalar PriorityBufferTutorialStep.collector1 packetJitter:vector:max 1.2092144561460001
scalar PriorityBufferTutorialStep.collector1 packetJitter:vector:starttime 0
scalar PriorityBufferTutorialStep.collector1 packetJitter:vector:endtime 9.2227875613600023
scalar PriorityBufferTutorialStep.collector1 packetDelayDifferenceToMean:vector:count 10
scalar PriorityBufferTutorialStep.collector1 packetDelayDifferenceToMean:vector:sum -1.2417112812649633
scalar PriorityBufferTutorialStep.collector1 packetDelayDifferenceToMean:vector:sumweights 10
scalar PriorityBufferTutorialStep.collector1 packetDelayDifferenceToMean:vector:mean -0.12417112812649633
scalar PriorityBufferTutorialStep.collector1 packetDelayDifferenceToMean:vector:stddev 0.30630392810936835
scalar PriorityBufferTutorialStep.collector1 packetDelayDifferenceToMean:vector:min -0.82167159941700008
scalar PriorityBufferTutorialStep.collector1 packetDelayDifferenceToMean:vector:max 0.28483390680187498
scalar PriorityBufferTutorialStep.collector1 packetDelayDifferenceToMean:vector:starttime 0
scalar PriorityBufferTutorialStep.collector1 packetDelayDifferenceToMean:vector:endtime 9.2227875613600023
scalar PriorityBufferTutorialStep.collector1 packetDelayVariation:vector:count 10
scalar PriorityBufferTutorialStep.collector1 packetDelayVariation:vector:sum 2.6264034997594501
scalar PriorityBufferTutorialStep.collector1 packetDelayVariation:vector:sumweights 10
scalar PriorityBufferTutorialStep.collector1 packetDelayVariation:vector:mean 0.26264034997594499
scalar PriorityBufferTutorialStep.collector1 packetDelayVariation:vector:stddev 0.10479587937378497
scalar PriorityBufferTutorialStep.collector1 packetDelayVariation:vector:min 0
scalar PriorityBufferTutorialStep.collector1 packetDelayVariation:vector:max 0.37431519512955841
scalar PriorityBufferTutorialStep.collector1 packetDelayVariation:vector:starttime 0
scalar PriorityBufferTutorialStep.collector1 packetDelayVariation:vector:endtime 9.2227875613600023
scalar PriorityBufferTutorialStep.collector2 droppedPacketLengths:vector:count 5
scalar PriorityBufferTutorialStep.collector2 droppedPacketLengths:vector:sum 40
scalar PriorityBufferTutorialStep.collector2 droppedPacketLengths:vector:sumweights 5
scalar PriorityBufferTutorialStep.collector2 droppedPacketLengths:vector:mean 8
scalar PriorityBufferTutorialStep.collector2 droppedPacketLengths:vector:stddev 0
scalar PriorityBufferTutorialStep.collector2 droppedPacketLengths:vector:min 8
scalar PriorityBufferTutorialStep.collector2 droppedPacketLengths:vector:max 8
scalar PriorityBufferTutorialStep.collector2 droppedPacketLengths:vector:starttime 0
scalar PriorityBufferTutorialStep.collector2 droppedPacketLengths:vector:endtime 6.7176455373400019
scalar PriorityBufferTutorialStep.collector2 droppedDataRate:vector:count 100
scalar PriorityBufferTutorialStep.collector2 droppedDataRate:vector:sum 400
scalar PriorityBufferTutorialStep.collector2 droppedDataRate:vector:sumweights 100
scalar PriorityBufferTutorialStep.collector2 droppedDataRate:vector:mean 4
scalar PriorityBufferTutorialStep.collector2 droppedDataRate:vector:stddev 17.523433084607223
scalar PriorityBufferTutorialStep.collector2 droppedDataRate:vector:min 0
scalar PriorityBufferTutorialStep.collector2 droppedDataRate:vector:max 80
scalar PriorityBufferTutorialStep.collector2 droppedDataRate:vector:starttime 0.10000000000000001
scalar PriorityBufferTutorialStep.collector2 droppedDataRate:vector:endtime 10
scalar PriorityBufferTutorialStep.collector2 packetLengths:vector:count 5
scalar PriorityBufferTutorialStep.collector2 packetLengths:vector:sum 40
scalar PriorityBufferTutorialStep.collector2 packetLengths:vector:sumweights 5
scalar PriorityBufferTutorialStep.collector2 packetLengths:vector:mean 8
scalar PriorityBufferTutorialStep.collector2 packetLengths:vector:stddev 0
scalar PriorityBufferTutorialStep.collector2 packetLengths:vector:min 8
scalar PriorityBufferTutorialStep.collector2 packetLengths:vector:max 8
scalar PriorityBufferTutorialStep.collector2 packetLengths:vector:starttime 0
scalar PriorityBufferTutorialStep.collector2 packetLengths:vector:endtime 6.7176455373400019
scalar PriorityBufferTutorialStep.collector2 dataRate:vector:count 100
scalar PriorityBufferTutorialStep.collector2 dataRate:vector:sum 400
scalar PriorityBufferTutorialStep.collector2 dataRate:vector:sumweights 100
scalar PriorityBufferTutorialStep.collector2 dataRate:vector:mean 4
scalar PriorityBufferTutorialStep.collector2 dataRate:vector:stddev 17.523433084607223
scalar PriorityBufferTutorialStep.collector2 dataRate:vector:min 0
scalar PriorityBufferTutorialStep.collector2 dataRate:vector:max 80
scalar PriorityBufferTutorialStep.collector2 dataRate:vector:starttime 0.10000000000000001
scalar PriorityBufferTutorialStep.collector2 dataRate:vector:endtime 10
scalar PriorityBufferTutorialStep.collector2 meanBitLifeTimePerPacket:vector:count 5
scalar PriorityBufferTutorialStep.collector2 meanBitLifeTimePerPacket:vector:sum 0.83166117896399994
scalar PriorityBufferTutorialStep.collector2 meanBitLifeTimePerPacket:vector:sumweights 5
scalar PriorityBufferTutorialStep.collector2 meanBitLifeTimePerPacket:vector:mean 0.16633223579279999
scalar PriorityBufferTutorialStep.collector2 meanBitLifeTimePerPacket:vector:stddev 0.31145600619825164
scalar PriorityBufferTutorialStep.collector2 meanBitLifeTimePerPacket:vector:min 0
scalar PriorityBufferTutorialStep.collector2 meanBitLifeTimePerPacket:vector:max 0.71626467560499996
scalar PriorityBufferTutorialStep.collector2 meanBitLifeTimePerPacket:vector:starttime 0
scalar PriorityBufferTutorialStep.collector2 meanBitLifeTimePerPacket:vector:endtime 6.7176455373400019
scalar PriorityBufferTutorialStep.collector2 packetLifeTime:vector:count 5
scalar PriorityBufferTutorialStep.collector2 packetLifeTime:vector:sum 0.83166117896399994
scalar PriorityBufferTutorialStep.collector2 packetLifeTime:vector:sumweights 5
scalar PriorityBufferTutorialStep.collector2 packetLifeTime:vector:mean 0.16633223579279999
scalar PriorityBufferTutorialStep.collector2 packetLifeTime:vector:stddev 0.31145600619825164
scalar PriorityBufferTutorialStep.collector2 packetLifeTime:vector:min 0
scalar PriorityBufferTutorialStep.collector2 packetLifeTime:vector:max 0.71626467560499996
scalar PriorityBufferTutorialStep.collector2 packetLifeTime:vector:starttime 0
scalar PriorityBufferTutorialStep.collector2 packetLifeTime:vector:endtime 6.7176455373400019
scalar PriorityBufferTutorialStep.collector2 packetJitter:vector:count 5
scalar PriorityBufferTutorialStep.collector2 packetJitter:vector:sum 0.71626467560499996
scalar PriorityBufferTutorialStep.collector2 packetJitter:vector:sumweights 5
scalar PriorityBufferTutorialStep.collector2 packetJitter:vector:mean 0.14325293512099999
scalar PriorityBufferTutorialStep.collector2 packetJitter:vector:stddev 0.33055286051953775
scalar PriorityBufferTutorialStep.collector2 packetJitter:vector:min -0.11539650335899999
scalar PriorityBufferTutorialStep.collector2 packetJitter:vector:max 0.71626467560499996
scalar PriorityBufferTutorialStep.collector2 packetJitter:vector:starttime 0
scalar PriorityBufferTutorialStep.collector2 packetJitter:vector:endtime 6.7176455373400019
scalar PriorityBufferTutorialStep.collector2 packetDelayDifferenceToMean:vector:count 5
scalar PriorityBufferTutorialStep.collector2 packetDelayDifferenceToMean:vector:sum -0.54031606453228331
scalar PriorityBufferTutorialStep.collector2 packetDelayDifferenceToMean:vector:sumweights 5
scalar PriorityBufferTutorialStep.collector2 packetDelayDifferenceToMean:vector:mean -0.10806321290645667
scalar PriorityBufferTutorialStep.collector2 packetDelayDifferenceToMean:vector:stddev 0.24983912500069108
scalar PriorityBufferTutorialStep.collector2 packetDelayDifferenceToMean:vector:min -0.54993243981219997
scalar PriorityBufferTutorialStep.collector2 packetDelayDifferenceToMean:vector:max 0.038465501119666665
scalar PriorityBufferTutorialStep.collector2 packetDelayDifferenceToMean:vector:starttime 0
scalar PriorityBufferTutorialStep.collector2 packetDelayDifferenceToMean:vector:endtime 6.7176455373400019
scalar PriorityBufferTutorialStep.collector2 packetDelayVariation:vector:count 5
scalar PriorityBufferTutorialStep.collector2 packetDelayVariation:vector:sum 0.44377663290941038
scalar PriorityBufferTutorialStep.collector2 packetDelayVariation:vector:sumweights 5
scalar PriorityBufferTutorialStep.collector2 packetDelayVariation:vector:mean 0.08875532658188208
scalar PriorityBufferTutorialStep.collector2 packetDelayVariation:vector:stddev 0.11032682079466379
scalar PriorityBufferTutorialStep.collector2 packetDelayVariation:vector:min 0
scalar PriorityBufferTutorialStep.collector2 packetDelayVariation:vector:max 0.28155441933498671
scalar PriorityBufferTutorialStep.collector2 packetDelayVariation:vector:starttime 0
scalar PriorityBufferTutorialStep.collector2 packetDelayVariation:vector:endtime 6.7176455373400019

