version 3
run CompoundQueue-0-20251118-12:01:53-115179
attr configname CompoundQueue
attr datetime 20251118-12:01:53
attr datetimef 20251118-120153
attr experiment CompoundQueue
attr inifile omnetpp.ini
attr iterationvars ""
attr iterationvarsd ""
attr iterationvarsf ""
attr measurement ""
attr network CompoundPacketQueueTutorialStep
attr processid 115179
attr repetition 0
attr replication #0
attr resultdir results
attr runnumber 0
attr seedset 0
config **.param-recording false
config image-path /home/zoli/Projects/OMNET/inet/images
config output-scalar-file results/omnetpp.ini-CompoundQueue-#0.sca
config output-scalar-precision 17
config output-vector-file results/omnetpp.ini-CompoundQueue-#0.vec
config output-vector-precision 17
config record-eventlog false
config sim-time-limit 10s
config network CompoundPacketQueueTutorialStep
config sim-time-limit 10s
config *.producer.packetLength 1B
config *.producer.productionInterval "uniform(0s, 2s)"
config *.collector.collectionInterval "uniform(0s, 2s)"
config *.queue.classifier.weights "\"1 1 1\""
config *.queue.producer.packetLength 1B
config *.queue.producer.productionInterval 1s

scalar CompoundPacketQueueTutorialStep.producer packets:count 9
scalar CompoundPacketQueueTutorialStep.producer packetLengths:sum 72
scalar CompoundPacketQueueTutorialStep.queue.classifier packets:count 9
scalar CompoundPacketQueueTutorialStep.queue.classifier packetLengths:sum 72
scalar CompoundPacketQueueTutorialStep.queue.queue1 queueLength:last 0
scalar CompoundPacketQueueTutorialStep.queue.queue1 queueLength:max 1
scalar CompoundPacketQueueTutorialStep.queue.queue1 queueLength:timeavg 0.1515247334259
scalar CompoundPacketQueueTutorialStep.queue.queue1 queueBitLength:last 0
scalar CompoundPacketQueueTutorialStep.queue.queue1 queueBitLength:max 8
scalar CompoundPacketQueueTutorialStep.queue.queue1 queueBitLength:timeavg 1.2121978674072
scalar CompoundPacketQueueTutorialStep.queue.queue1 outgoingPackets:count 3
scalar CompoundPacketQueueTutorialStep.queue.queue1 outgoingPacketLengths:sum 24
scalar CompoundPacketQueueTutorialStep.queue.queue1 incomingPackets:count 3
scalar CompoundPacketQueueTutorialStep.queue.queue1 incomingPacketLengths:sum 24
scalar CompoundPacketQueueTutorialStep.queue.queue1 droppedPacketsQueueOverflow:count 0
scalar CompoundPacketQueueTutorialStep.queue.queue1 droppedPacketLengthsQueueOverflow:sum 0
scalar CompoundPacketQueueTutorialStep.queue.queue2 queueLength:last 0
scalar CompoundPacketQueueTutorialStep.queue.queue2 queueLength:max 1
scalar CompoundPacketQueueTutorialStep.queue.queue2 queueLength:timeavg 0.23144576856840002
scalar CompoundPacketQueueTutorialStep.queue.queue2 queueBitLength:last 0
scalar CompoundPacketQueueTutorialStep.queue.queue2 queueBitLength:max 8
scalar CompoundPacketQueueTutorialStep.queue.queue2 queueBitLength:timeavg 1.8515661485472001
scalar CompoundPacketQueueTutorialStep.queue.queue2 outgoingPackets:count 3
scalar CompoundPacketQueueTutorialStep.queue.queue2 outgoingPacketLengths:sum 24
scalar CompoundPacketQueueTutorialStep.queue.queue2 incomingPackets:count 3
scalar CompoundPacketQueueTutorialStep.queue.queue2 incomingPacketLengths:sum 24
scalar CompoundPacketQueueTutorialStep.queue.queue2 droppedPacketsQueueOverflow:count 0
scalar CompoundPacketQueueTutorialStep.queue.queue2 droppedPacketLengthsQueueOverflow:sum 0
scalar CompoundPacketQueueTutorialStep.queue.queue3 queueLength:last 9
scalar CompoundPacketQueueTutorialStep.queue.queue3 queueLength:max 9
scalar CompoundPacketQueueTutorialStep.queue.queue3 queueLength:timeavg 4.6439224757719
scalar CompoundPacketQueueTutorialStep.queue.queue3 queueBitLength:last 72
scalar CompoundPacketQueueTutorialStep.queue.queue3 queueBitLength:max 72
scalar CompoundPacketQueueTutorialStep.queue.queue3 queueBitLength:timeavg 37.1513798061752
scalar CompoundPacketQueueTutorialStep.queue.queue3 outgoingPackets:count 2
scalar CompoundPacketQueueTutorialStep.queue.queue3 outgoingPacketLengths:sum 16
scalar CompoundPacketQueueTutorialStep.queue.queue3 incomingPackets:count 11
scalar CompoundPacketQueueTutorialStep.queue.queue3 incomingPacketLengths:sum 88
scalar CompoundPacketQueueTutorialStep.queue.queue3 droppedPacketsQueueOverflow:count 0
scalar CompoundPacketQueueTutorialStep.queue.queue3 droppedPacketLengthsQueueOverflow:sum 0
scalar CompoundPacketQueueTutorialStep.queue.consumer packets:count 3
scalar CompoundPacketQueueTutorialStep.queue.consumer packetLengths:sum 24
scalar CompoundPacketQueueTutorialStep.queue.consumer droppedPackets:count 3
scalar CompoundPacketQueueTutorialStep.queue.consumer droppedPacketLengths:sum 24
scalar CompoundPacketQueueTutorialStep.queue.producer packets:count 11
scalar CompoundPacketQueueTutorialStep.queue.producer packetLengths:sum 88
scalar CompoundPacketQueueTutorialStep.queue.scheduler packets:count 8
scalar CompoundPacketQueueTutorialStep.queue.scheduler packetLengths:sum 64
scalar CompoundPacketQueueTutorialStep.queue queueLength:last 1
scalar CompoundPacketQueueTutorialStep.queue queueLength:max 3
scalar CompoundPacketQueueTutorialStep.queue queueLength:timeavg 0.87887471760550007
scalar CompoundPacketQueueTutorialStep.queue queueBitLength:last 8
scalar CompoundPacketQueueTutorialStep.queue queueBitLength:max 24
scalar CompoundPacketQueueTutorialStep.queue queueBitLength:timeavg 7.0309977408440005
scalar CompoundPacketQueueTutorialStep.queue outgoingPackets:count 8
scalar CompoundPacketQueueTutorialStep.queue outgoingPacketLengths:sum 64
scalar CompoundPacketQueueTutorialStep.queue incomingPackets:count 9
scalar CompoundPacketQueueTutorialStep.queue incomingPacketLengths:sum 72
scalar CompoundPacketQueueTutorialStep.queue droppedPacketsQueueOverflow:count 0
scalar CompoundPacketQueueTutorialStep.queue droppedPacketLengthsQueueOverflow:sum 0
scalar CompoundPacketQueueTutorialStep.collector packets:count 8
scalar CompoundPacketQueueTutorialStep.collector packetLengths:sum 64
scalar CompoundPacketQueueTutorialStep.collector droppedPackets:count 8
scalar CompoundPacketQueueTutorialStep.collector droppedPacketLengths:sum 64
scalar CompoundPacketQueueTutorialStep.producer packetLengths:histogram:count 9
scalar CompoundPacketQueueTutorialStep.producer packetLengths:histogram:sumweights 9
scalar CompoundPacketQueueTutorialStep.producer packetLengths:histogram:mean 8
scalar CompoundPacketQueueTutorialStep.producer packetLengths:histogram:stddev 0
scalar CompoundPacketQueueTutorialStep.producer packetLengths:histogram:min 8
scalar CompoundPacketQueueTutorialStep.producer packetLengths:histogram:max 8
scalar CompoundPacketQueueTutorialStep.producer packetLengths:histogram:numbins 2
scalar CompoundPacketQueueTutorialStep.producer packetLengths:histogram:rangemin 7
scalar CompoundPacketQueueTutorialStep.producer packetLengths:histogram:rangemax 9
scalar CompoundPacketQueueTutorialStep.producer packetLengths:histogram:underflows 0
scalar CompoundPacketQueueTutorialStep.producer packetLengths:histogram:overflows 0
scalar CompoundPacketQueueTutorialStep.queue.classifier packetLengths:histogram:count 9
scalar CompoundPacketQueueTutorialStep.queue.classifier packetLengths:histogram:sumweights 9
scalar CompoundPacketQueueTutorialStep.queue.classifier packetLengths:histogram:mean 8
scalar CompoundPacketQueueTutorialStep.queue.classifier packetLengths:histogram:stddev 0
scalar CompoundPacketQueueTutorialStep.queue.classifier packetLengths:histogram:min 8
scalar CompoundPacketQueueTutorialStep.queue.classifier packetLengths:histogram:max 8
scalar CompoundPacketQueueTutorialStep.queue.classifier packetLengths:histogram:numbins 2
scalar CompoundPacketQueueTutorialStep.queue.classifier packetLengths:histogram:rangemin 7
scalar CompoundPacketQueueTutorialStep.queue.classifier packetLengths:histogram:rangemax 9
scalar CompoundPacketQueueTutorialStep.queue.classifier packetLengths:histogram:underflows 0
scalar CompoundPacketQueueTutorialStep.queue.classifier packetLengths:histogram:overflows 0
scalar CompoundPacketQueueTutorialStep.queue.queue1 queueingTime:histogram:count 3
scalar CompoundPacketQueueTutorialStep.queue.queue1 queueingTime:histogram:sumweights 3
scalar CompoundPacketQueueTutorialStep.queue.queue1 queueingTime:histogram:mean 0.50508244475300001
scalar CompoundPacketQueueTutorialStep.queue.queue1 queueingTime:histogram:stddev 0.44846790404413689
scalar CompoundPacketQueueTutorialStep.queue.queue1 queueingTime:histogram:min 0
scalar CompoundPacketQueueTutorialStep.queue.queue1 queueingTime:histogram:max 0.85657948534899997
scalar CompoundPacketQueueTutorialStep.queue.queue1 queueingTime:histogram:numbins 54
scalar CompoundPacketQueueTutorialStep.queue.queue1 queueingTime:histogram:rangemin 0
scalar CompoundPacketQueueTutorialStep.queue.queue1 queueingTime:histogram:rangemax 1.0800000000000001
scalar CompoundPacketQueueTutorialStep.queue.queue1 queueingTime:histogram:underflows 0
scalar CompoundPacketQueueTutorialStep.queue.queue1 queueingTime:histogram:overflows 0
scalar CompoundPacketQueueTutorialStep.queue.queue1 outgoingPacketLengths:histogram:count 3
scalar CompoundPacketQueueTutorialStep.queue.queue1 outgoingPacketLengths:histogram:sumweights 3
scalar CompoundPacketQueueTutorialStep.queue.queue1 outgoingPacketLengths:histogram:mean 8
scalar CompoundPacketQueueTutorialStep.queue.queue1 outgoingPacketLengths:histogram:stddev 0
scalar CompoundPacketQueueTutorialStep.queue.queue1 outgoingPacketLengths:histogram:min 8
scalar CompoundPacketQueueTutorialStep.queue.queue1 outgoingPacketLengths:histogram:max 8
scalar CompoundPacketQueueTutorialStep.queue.queue1 outgoingPacketLengths:histogram:numbins 2
scalar CompoundPacketQueueTutorialStep.queue.queue1 outgoingPacketLengths:histogram:rangemin 7
scalar CompoundPacketQueueTutorialStep.queue.queue1 outgoingPacketLengths:histogram:rangemax 9
scalar CompoundPacketQueueTutorialStep.queue.queue1 outgoingPacketLengths:histogram:underflows 0
scalar CompoundPacketQueueTutorialStep.queue.queue1 outgoingPacketLengths:histogram:overflows 0
scalar CompoundPacketQueueTutorialStep.queue.queue1 flowQueueingTime:histogram:count 0
scalar CompoundPacketQueueTutorialStep.queue.queue1 flowQueueingTime:histogram:sumweights 0
scalar CompoundPacketQueueTutorialStep.queue.queue1 flowQueueingTime:histogram:mean -nan
scalar CompoundPacketQueueTutorialStep.queue.queue1 flowQueueingTime:histogram:stddev nan
scalar CompoundPacketQueueTutorialStep.queue.queue1 flowQueueingTime:histogram:min nan
scalar CompoundPacketQueueTutorialStep.queue.queue1 flowQueueingTime:histogram:max nan
scalar CompoundPacketQueueTutorialStep.queue.queue1 flowQueueingTime:histogram:numbins 1
scalar CompoundPacketQueueTutorialStep.queue.queue1 flowQueueingTime:histogram:rangemin 0
scalar CompoundPacketQueueTutorialStep.queue.queue1 flowQueueingTime:histogram:rangemax 1
scalar CompoundPacketQueueTutorialStep.queue.queue1 flowQueueingTime:histogram:underflows 0
scalar CompoundPacketQueueTutorialStep.queue.queue1 flowQueueingTime:histogram:overflows 0
scalar CompoundPacketQueueTutorialStep.queue.queue1 incomingPacketLengths:histogram:count 3
scalar CompoundPacketQueueTutorialStep.queue.queue1 incomingPacketLengths:histogram:sumweights 3
scalar CompoundPacketQueueTutorialStep.queue.queue1 incomingPacketLengths:histogram:mean 8
scalar CompoundPacketQueueTutorialStep.queue.queue1 incomingPacketLengths:histogram:stddev 0
scalar CompoundPacketQueueTutorialStep.queue.queue1 incomingPacketLengths:histogram:min 8
scalar CompoundPacketQueueTutorialStep.queue.queue1 incomingPacketLengths:histogram:max 8
scalar CompoundPacketQueueTutorialStep.queue.queue1 incomingPacketLengths:histogram:numbins 2
scalar CompoundPacketQueueTutorialStep.queue.queue1 incomingPacketLengths:histogram:rangemin 7
scalar CompoundPacketQueueTutorialStep.queue.queue1 incomingPacketLengths:histogram:rangemax 9
scalar CompoundPacketQueueTutorialStep.queue.queue1 incomingPacketLengths:histogram:underflows 0
scalar CompoundPacketQueueTutorialStep.queue.queue1 incomingPacketLengths:histogram:overflows 0
scalar CompoundPacketQueueTutorialStep.queue.queue2 queueingTime:histogram:count 3
scalar CompoundPacketQueueTutorialStep.queue.queue2 queueingTime:histogram:sumweights 3
scalar CompoundPacketQueueTutorialStep.queue.queue2 queueingTime:histogram:mean 0.77148589522800004
scalar CompoundPacketQueueTutorialStep.queue.queue2 queueingTime:histogram:stddev 0.6866496075778753
scalar CompoundPacketQueueTutorialStep.queue.queue2 queueingTime:histogram:min 0.088062228169000001
scalar CompoundPacketQueueTutorialStep.queue.queue2 queueingTime:histogram:max 1.461316605098
scalar CompoundPacketQueueTutorialStep.queue.queue2 queueingTime:histogram:numbins 91
scalar CompoundPacketQueueTutorialStep.queue.queue2 queueingTime:histogram:rangemin 0
scalar CompoundPacketQueueTutorialStep.queue.queue2 queueingTime:histogram:rangemax 1.8200000000000001
scalar CompoundPacketQueueTutorialStep.queue.queue2 queueingTime:histogram:underflows 0
scalar CompoundPacketQueueTutorialStep.queue.queue2 queueingTime:histogram:overflows 0
scalar CompoundPacketQueueTutorialStep.queue.queue2 outgoingPacketLengths:histogram:count 3
scalar CompoundPacketQueueTutorialStep.queue.queue2 outgoingPacketLengths:histogram:sumweights 3
scalar CompoundPacketQueueTutorialStep.queue.queue2 outgoingPacketLengths:histogram:mean 8
scalar CompoundPacketQueueTutorialStep.queue.queue2 outgoingPacketLengths:histogram:stddev 0
scalar CompoundPacketQueueTutorialStep.queue.queue2 outgoingPacketLengths:histogram:min 8
scalar CompoundPacketQueueTutorialStep.queue.queue2 outgoingPacketLengths:histogram:max 8
scalar CompoundPacketQueueTutorialStep.queue.queue2 outgoingPacketLengths:histogram:numbins 2
scalar CompoundPacketQueueTutorialStep.queue.queue2 outgoingPacketLengths:histogram:rangemin 7
scalar CompoundPacketQueueTutorialStep.queue.queue2 outgoingPacketLengths:histogram:rangemax 9
scalar CompoundPacketQueueTutorialStep.queue.queue2 outgoingPacketLengths:histogram:underflows 0
scalar CompoundPacketQueueTutorialStep.queue.queue2 outgoingPacketLengths:histogram:overflows 0
scalar CompoundPacketQueueTutorialStep.queue.queue2 flowQueueingTime:histogram:count 0
scalar CompoundPacketQueueTutorialStep.queue.queue2 flowQueueingTime:histogram:sumweights 0
scalar CompoundPacketQueueTutorialStep.queue.queue2 flowQueueingTime:histogram:mean -nan
scalar CompoundPacketQueueTutorialStep.queue.queue2 flowQueueingTime:histogram:stddev nan
scalar CompoundPacketQueueTutorialStep.queue.queue2 flowQueueingTime:histogram:min nan
scalar CompoundPacketQueueTutorialStep.queue.queue2 flowQueueingTime:histogram:max nan
scalar CompoundPacketQueueTutorialStep.queue.queue2 flowQueueingTime:histogram:numbins 1
scalar CompoundPacketQueueTutorialStep.queue.queue2 flowQueueingTime:histogram:rangemin 0
scalar CompoundPacketQueueTutorialStep.queue.queue2 flowQueueingTime:histogram:rangemax 1
scalar CompoundPacketQueueTutorialStep.queue.queue2 flowQueueingTime:histogram:underflows 0
scalar CompoundPacketQueueTutorialStep.queue.queue2 flowQueueingTime:histogram:overflows 0
scalar CompoundPacketQueueTutorialStep.queue.queue2 incomingPacketLengths:histogram:count 3
scalar CompoundPacketQueueTutorialStep.queue.queue2 incomingPacketLengths:histogram:sumweights 3
scalar CompoundPacketQueueTutorialStep.queue.queue2 incomingPacketLengths:histogram:mean 8
scalar CompoundPacketQueueTutorialStep.queue.queue2 incomingPacketLengths:histogram:stddev 0
scalar CompoundPacketQueueTutorialStep.queue.queue2 incomingPacketLengths:histogram:min 8
scalar CompoundPacketQueueTutorialStep.queue.queue2 incomingPacketLengths:histogram:max 8
scalar CompoundPacketQueueTutorialStep.queue.queue2 incomingPacketLengths:histogram:numbins 2
scalar CompoundPacketQueueTutorialStep.queue.queue2 incomingPacketLengths:histogram:rangemin 7
scalar CompoundPacketQueueTutorialStep.queue.queue2 incomingPacketLengths:histogram:rangemax 9
scalar CompoundPacketQueueTutorialStep.queue.queue2 incomingPacketLengths:histogram:underflows 0
scalar CompoundPacketQueueTutorialStep.queue.queue2 incomingPacketLengths:histogram:overflows 0
scalar CompoundPacketQueueTutorialStep.queue.queue3 queueingTime:histogram:count 2
scalar CompoundPacketQueueTutorialStep.queue.queue3 queueingTime:histogram:sumweights 2
scalar CompoundPacketQueueTutorialStep.queue.queue3 queueingTime:histogram:mean 5.2196123788594999
scalar CompoundPacketQueueTutorialStep.queue.queue3 queueingTime:histogram:stddev 3.3168846916810195
scalar CompoundPacketQueueTutorialStep.queue.queue3 queueingTime:histogram:min 2.8742207209579997
scalar CompoundPacketQueueTutorialStep.queue.queue3 queueingTime:histogram:max 7.5650040367609996
scalar CompoundPacketQueueTutorialStep.queue.queue3 queueingTime:histogram:numbins 71
scalar CompoundPacketQueueTutorialStep.queue.queue3 queueingTime:histogram:rangemin 1.7000000000000002
scalar CompoundPacketQueueTutorialStep.queue.queue3 queueingTime:histogram:rangemax 8.8000000000000007
scalar CompoundPacketQueueTutorialStep.queue.queue3 queueingTime:histogram:underflows 0
scalar CompoundPacketQueueTutorialStep.queue.queue3 queueingTime:histogram:overflows 0
scalar CompoundPacketQueueTutorialStep.queue.queue3 outgoingPacketLengths:histogram:count 2
scalar CompoundPacketQueueTutorialStep.queue.queue3 outgoingPacketLengths:histogram:sumweights 2
scalar CompoundPacketQueueTutorialStep.queue.queue3 outgoingPacketLengths:histogram:mean 8
scalar CompoundPacketQueueTutorialStep.queue.queue3 outgoingPacketLengths:histogram:stddev 0
scalar CompoundPacketQueueTutorialStep.queue.queue3 outgoingPacketLengths:histogram:min 8
scalar CompoundPacketQueueTutorialStep.queue.queue3 outgoingPacketLengths:histogram:max 8
scalar CompoundPacketQueueTutorialStep.queue.queue3 outgoingPacketLengths:histogram:numbins 2
scalar CompoundPacketQueueTutorialStep.queue.queue3 outgoingPacketLengths:histogram:rangemin 7
scalar CompoundPacketQueueTutorialStep.queue.queue3 outgoingPacketLengths:histogram:rangemax 9
scalar CompoundPacketQueueTutorialStep.queue.queue3 outgoingPacketLengths:histogram:underflows 0
scalar CompoundPacketQueueTutorialStep.queue.queue3 outgoingPacketLengths:histogram:overflows 0
scalar CompoundPacketQueueTutorialStep.queue.queue3 flowQueueingTime:histogram:count 0
scalar CompoundPacketQueueTutorialStep.queue.queue3 flowQueueingTime:histogram:sumweights 0
scalar CompoundPacketQueueTutorialStep.queue.queue3 flowQueueingTime:histogram:mean -nan
scalar CompoundPacketQueueTutorialStep.queue.queue3 flowQueueingTime:histogram:stddev nan
scalar CompoundPacketQueueTutorialStep.queue.queue3 flowQueueingTime:histogram:min nan
scalar CompoundPacketQueueTutorialStep.queue.queue3 flowQueueingTime:histogram:max nan
scalar CompoundPacketQueueTutorialStep.queue.queue3 flowQueueingTime:histogram:numbins 1
scalar CompoundPacketQueueTutorialStep.queue.queue3 flowQueueingTime:histogram:rangemin 0
scalar CompoundPacketQueueTutorialStep.queue.queue3 flowQueueingTime:histogram:rangemax 1
scalar CompoundPacketQueueTutorialStep.queue.queue3 flowQueueingTime:histogram:underflows 0
scalar CompoundPacketQueueTutorialStep.queue.queue3 flowQueueingTime:histogram:overflows 0
scalar CompoundPacketQueueTutorialStep.queue.queue3 incomingPacketLengths:histogram:count 11
scalar CompoundPacketQueueTutorialStep.queue.queue3 incomingPacketLengths:histogram:sumweights 11
scalar CompoundPacketQueueTutorialStep.queue.queue3 incomingPacketLengths:histogram:mean 8
scalar CompoundPacketQueueTutorialStep.queue.queue3 incomingPacketLengths:histogram:stddev 0
scalar CompoundPacketQueueTutorialStep.queue.queue3 incomingPacketLengths:histogram:min 8
scalar CompoundPacketQueueTutorialStep.queue.queue3 incomingPacketLengths:histogram:max 8
scalar CompoundPacketQueueTutorialStep.queue.queue3 incomingPacketLengths:histogram:numbins 2
scalar CompoundPacketQueueTutorialStep.queue.queue3 incomingPacketLengths:histogram:rangemin 7
scalar CompoundPacketQueueTutorialStep.queue.queue3 incomingPacketLengths:histogram:rangemax 9
scalar CompoundPacketQueueTutorialStep.queue.queue3 incomingPacketLengths:histogram:underflows 0
scalar CompoundPacketQueueTutorialStep.queue.queue3 incomingPacketLengths:histogram:overflows 0
scalar CompoundPacketQueueTutorialStep.queue.consumer packetLengths:histogram:count 3
scalar CompoundPacketQueueTutorialStep.queue.consumer packetLengths:histogram:sumweights 3
scalar CompoundPacketQueueTutorialStep.queue.consumer packetLengths:histogram:mean 8
scalar CompoundPacketQueueTutorialStep.queue.consumer packetLengths:histogram:stddev 0
scalar CompoundPacketQueueTutorialStep.queue.consumer packetLengths:histogram:min 8
scalar CompoundPacketQueueTutorialStep.queue.consumer packetLengths:histogram:max 8
scalar CompoundPacketQueueTutorialStep.queue.consumer packetLengths:histogram:numbins 2
scalar CompoundPacketQueueTutorialStep.queue.consumer packetLengths:histogram:rangemin 7
scalar CompoundPacketQueueTutorialStep.queue.consumer packetLengths:histogram:rangemax 9
scalar CompoundPacketQueueTutorialStep.queue.consumer packetLengths:histogram:underflows 0
scalar CompoundPacketQueueTutorialStep.queue.consumer packetLengths:histogram:overflows 0
scalar CompoundPacketQueueTutorialStep.queue.consumer meanBitLifeTimePerPacket:histogram:count 3
scalar CompoundPacketQueueTutorialStep.queue.consumer meanBitLifeTimePerPacket:histogram:sumweights 3
scalar CompoundPacketQueueTutorialStep.queue.consumer meanBitLifeTimePerPacket:histogram:mean 0
scalar CompoundPacketQueueTutorialStep.queue.consumer meanBitLifeTimePerPacket:histogram:stddev 0
scalar CompoundPacketQueueTutorialStep.queue.consumer meanBitLifeTimePerPacket:histogram:min 0
scalar CompoundPacketQueueTutorialStep.queue.consumer meanBitLifeTimePerPacket:histogram:max 0
scalar CompoundPacketQueueTutorialStep.queue.consumer meanBitLifeTimePerPacket:histogram:numbins 50
scalar CompoundPacketQueueTutorialStep.queue.consumer meanBitLifeTimePerPacket:histogram:rangemin -0.5
scalar CompoundPacketQueueTutorialStep.queue.consumer meanBitLifeTimePerPacket:histogram:rangemax 0.5
scalar CompoundPacketQueueTutorialStep.queue.consumer meanBitLifeTimePerPacket:histogram:underflows 0
scalar CompoundPacketQueueTutorialStep.queue.consumer meanBitLifeTimePerPacket:histogram:overflows 0
scalar CompoundPacketQueueTutorialStep.queue.consumer packetLifeTime:histogram:count 3
scalar CompoundPacketQueueTutorialStep.queue.consumer packetLifeTime:histogram:sumweights 3
scalar CompoundPacketQueueTutorialStep.queue.consumer packetLifeTime:histogram:mean 0
scalar CompoundPacketQueueTutorialStep.queue.consumer packetLifeTime:histogram:stddev 0
scalar CompoundPacketQueueTutorialStep.queue.consumer packetLifeTime:histogram:min 0
scalar CompoundPacketQueueTutorialStep.queue.consumer packetLifeTime:histogram:max 0
scalar CompoundPacketQueueTutorialStep.queue.consumer packetLifeTime:histogram:numbins 50
scalar CompoundPacketQueueTutorialStep.queue.consumer packetLifeTime:histogram:rangemin -0.5
scalar CompoundPacketQueueTutorialStep.queue.consumer packetLifeTime:histogram:rangemax 0.5
scalar CompoundPacketQueueTutorialStep.queue.consumer packetLifeTime:histogram:underflows 0
scalar CompoundPacketQueueTutorialStep.queue.consumer packetLifeTime:histogram:overflows 0
scalar CompoundPacketQueueTutorialStep.queue.consumer packetJitter:histogram:count 3
scalar CompoundPacketQueueTutorialStep.queue.consumer packetJitter:histogram:sumweights 3
scalar CompoundPacketQueueTutorialStep.queue.consumer packetJitter:histogram:mean 0
scalar CompoundPacketQueueTutorialStep.queue.consumer packetJitter:histogram:stddev 0
scalar CompoundPacketQueueTutorialStep.queue.consumer packetJitter:histogram:min 0
scalar CompoundPacketQueueTutorialStep.queue.consumer packetJitter:histogram:max 0
scalar CompoundPacketQueueTutorialStep.queue.consumer packetJitter:histogram:numbins 50
scalar CompoundPacketQueueTutorialStep.queue.consumer packetJitter:histogram:rangemin -0.5
scalar CompoundPacketQueueTutorialStep.queue.consumer packetJitter:histogram:rangemax 0.5
scalar CompoundPacketQueueTutorialStep.queue.consumer packetJitter:histogram:underflows 0
scalar CompoundPacketQueueTutorialStep.queue.consumer packetJitter:histogram:overflows 0
scalar CompoundPacketQueueTutorialStep.queue.consumer packetDelayDifferenceToMean:histogram:count 3
scalar CompoundPacketQueueTutorialStep.queue.consumer packetDelayDifferenceToMean:histogram:sumweights 3
scalar CompoundPacketQueueTutorialStep.queue.consumer packetDelayDifferenceToMean:histogram:mean 0
scalar CompoundPacketQueueTutorialStep.queue.consumer packetDelayDifferenceToMean:histogram:stddev 0
scalar CompoundPacketQueueTutorialStep.queue.consumer packetDelayDifferenceToMean:histogram:min 0
scalar CompoundPacketQueueTutorialStep.queue.consumer packetDelayDifferenceToMean:histogram:max 0
scalar CompoundPacketQueueTutorialStep.queue.consumer packetDelayDifferenceToMean:histogram:numbins 50
scalar CompoundPacketQueueTutorialStep.queue.consumer packetDelayDifferenceToMean:histogram:rangemin -0.5
scalar CompoundPacketQueueTutorialStep.queue.consumer packetDelayDifferenceToMean:histogram:rangemax 0.5
scalar CompoundPacketQueueTutorialStep.queue.consumer packetDelayDifferenceToMean:histogram:underflows 0
scalar CompoundPacketQueueTutorialStep.queue.consumer packetDelayDifferenceToMean:histogram:overflows 0
scalar CompoundPacketQueueTutorialStep.queue.consumer packetDelayVariation:histogram:count 3
scalar CompoundPacketQueueTutorialStep.queue.consumer packetDelayVariation:histogram:sumweights 3
scalar CompoundPacketQueueTutorialStep.queue.consumer packetDelayVariation:histogram:mean 0
scalar CompoundPacketQueueTutorialStep.queue.consumer packetDelayVariation:histogram:stddev 0
scalar CompoundPacketQueueTutorialStep.queue.consumer packetDelayVariation:histogram:min 0
scalar CompoundPacketQueueTutorialStep.queue.consumer packetDelayVariation:histogram:max 0
scalar CompoundPacketQueueTutorialStep.queue.consumer packetDelayVariation:histogram:numbins 50
scalar CompoundPacketQueueTutorialStep.queue.consumer packetDelayVariation:histogram:rangemin -0.5
scalar CompoundPacketQueueTutorialStep.queue.consumer packetDelayVariation:histogram:rangemax 0.5
scalar CompoundPacketQueueTutorialStep.queue.consumer packetDelayVariation:histogram:underflows 0
scalar CompoundPacketQueueTutorialStep.queue.consumer packetDelayVariation:histogram:overflows 0
scalar CompoundPacketQueueTutorialStep.queue.consumer droppedPacketLengths:histogram:count 3
scalar CompoundPacketQueueTutorialStep.queue.consumer droppedPacketLengths:histogram:sumweights 3
scalar CompoundPacketQueueTutorialStep.queue.consumer droppedPacketLengths:histogram:mean 8
scalar CompoundPacketQueueTutorialStep.queue.consumer droppedPacketLengths:histogram:stddev 0
scalar CompoundPacketQueueTutorialStep.queue.consumer droppedPacketLengths:histogram:min 8
scalar CompoundPacketQueueTutorialStep.queue.consumer droppedPacketLengths:histogram:max 8
scalar CompoundPacketQueueTutorialStep.queue.consumer droppedPacketLengths:histogram:numbins 2
scalar CompoundPacketQueueTutorialStep.queue.consumer droppedPacketLengths:histogram:rangemin 7
scalar CompoundPacketQueueTutorialStep.queue.consumer droppedPacketLengths:histogram:rangemax 9
scalar CompoundPacketQueueTutorialStep.queue.consumer droppedPacketLengths:histogram:underflows 0
scalar CompoundPacketQueueTutorialStep.queue.consumer droppedPacketLengths:histogram:overflows 0
scalar CompoundPacketQueueTutorialStep.queue.producer packetLengths:histogram:count 11
scalar CompoundPacketQueueTutorialStep.queue.producer packetLengths:histogram:sumweights 11
scalar CompoundPacketQueueTutorialStep.queue.producer packetLengths:histogram:mean 8
scalar CompoundPacketQueueTutorialStep.queue.producer packetLengths:histogram:stddev 0
scalar CompoundPacketQueueTutorialStep.queue.producer packetLengths:histogram:min 8
scalar CompoundPacketQueueTutorialStep.queue.producer packetLengths:histogram:max 8
scalar CompoundPacketQueueTutorialStep.queue.producer packetLengths:histogram:numbins 2
scalar CompoundPacketQueueTutorialStep.queue.producer packetLengths:histogram:rangemin 7
scalar CompoundPacketQueueTutorialStep.queue.producer packetLengths:histogram:rangemax 9
scalar CompoundPacketQueueTutorialStep.queue.producer packetLengths:histogram:underflows 0
scalar CompoundPacketQueueTutorialStep.queue.producer packetLengths:histogram:overflows 0
scalar CompoundPacketQueueTutorialStep.queue.scheduler packetLengths:histogram:count 8
scalar CompoundPacketQueueTutorialStep.queue.scheduler packetLengths:histogram:sumweights 8
scalar CompoundPacketQueueTutorialStep.queue.scheduler packetLengths:histogram:mean 8
scalar CompoundPacketQueueTutorialStep.queue.scheduler packetLengths:histogram:stddev 0
scalar CompoundPacketQueueTutorialStep.queue.scheduler packetLengths:histogram:min 8
scalar CompoundPacketQueueTutorialStep.queue.scheduler packetLengths:histogram:max 8
scalar CompoundPacketQueueTutorialStep.queue.scheduler packetLengths:histogram:numbins 2
scalar CompoundPacketQueueTutorialStep.queue.scheduler packetLengths:histogram:rangemin 7
scalar CompoundPacketQueueTutorialStep.queue.scheduler packetLengths:histogram:rangemax 9
scalar CompoundPacketQueueTutorialStep.queue.scheduler packetLengths:histogram:underflows 0
scalar CompoundPacketQueueTutorialStep.queue.scheduler packetLengths:histogram:overflows 0
scalar CompoundPacketQueueTutorialStep.queue queueingTime:histogram:count 8
scalar CompoundPacketQueueTutorialStep.queue queueingTime:histogram:sumweights 8
scalar CompoundPacketQueueTutorialStep.queue queueingTime:histogram:mean 0
scalar CompoundPacketQueueTutorialStep.queue queueingTime:histogram:stddev 0
scalar CompoundPacketQueueTutorialStep.queue queueingTime:histogram:min 0
scalar CompoundPacketQueueTutorialStep.queue queueingTime:histogram:max 0
scalar CompoundPacketQueueTutorialStep.queue queueingTime:histogram:numbins 50
scalar CompoundPacketQueueTutorialStep.queue queueingTime:histogram:rangemin -0.5
scalar CompoundPacketQueueTutorialStep.queue queueingTime:histogram:rangemax 0.5
scalar CompoundPacketQueueTutorialStep.queue queueingTime:histogram:underflows 0
scalar CompoundPacketQueueTutorialStep.queue queueingTime:histogram:overflows 0
scalar CompoundPacketQueueTutorialStep.queue outgoingPacketLengths:histogram:count 8
scalar CompoundPacketQueueTutorialStep.queue outgoingPacketLengths:histogram:sumweights 8
scalar CompoundPacketQueueTutorialStep.queue outgoingPacketLengths:histogram:mean 8
scalar CompoundPacketQueueTutorialStep.queue outgoingPacketLengths:histogram:stddev 0
scalar CompoundPacketQueueTutorialStep.queue outgoingPacketLengths:histogram:min 8
scalar CompoundPacketQueueTutorialStep.queue outgoingPacketLengths:histogram:max 8
scalar CompoundPacketQueueTutorialStep.queue outgoingPacketLengths:histogram:numbins 2
scalar CompoundPacketQueueTutorialStep.queue outgoingPacketLengths:histogram:rangemin 7
scalar CompoundPacketQueueTutorialStep.queue outgoingPacketLengths:histogram:rangemax 9
scalar CompoundPacketQueueTutorialStep.queue outgoingPacketLengths:histogram:underflows 0
scalar CompoundPacketQueueTutorialStep.queue outgoingPacketLengths:histogram:overflows 0
scalar CompoundPacketQueueTutorialStep.queue flowQueueingTime:histogram:count 0
scalar CompoundPacketQueueTutorialStep.queue flowQueueingTime:histogram:sumweights 0
scalar CompoundPacketQueueTutorialStep.queue flowQueueingTime:histogram:mean -nan
scalar CompoundPacketQueueTutorialStep.queue flowQueueingTime:histogram:stddev nan
scalar CompoundPacketQueueTutorialStep.queue flowQueueingTime:histogram:min nan
scalar CompoundPacketQueueTutorialStep.queue flowQueueingTime:histogram:max nan
scalar CompoundPacketQueueTutorialStep.queue flowQueueingTime:histogram:numbins 1
scalar CompoundPacketQueueTutorialStep.queue flowQueueingTime:histogram:rangemin 0
scalar CompoundPacketQueueTutorialStep.queue flowQueueingTime:histogram:rangemax 1
scalar CompoundPacketQueueTutorialStep.queue flowQueueingTime:histogram:underflows 0
scalar CompoundPacketQueueTutorialStep.queue flowQueueingTime:histogram:overflows 0
scalar CompoundPacketQueueTutorialStep.queue incomingPacketLengths:histogram:count 9
scalar CompoundPacketQueueTutorialStep.queue incomingPacketLengths:histogram:sumweights 9
scalar CompoundPacketQueueTutorialStep.queue incomingPacketLengths:histogram:mean 8
scalar CompoundPacketQueueTutorialStep.queue incomingPacketLengths:histogram:stddev 0
scalar CompoundPacketQueueTutorialStep.queue incomingPacketLengths:histogram:min 8
scalar CompoundPacketQueueTutorialStep.queue incomingPacketLengths:histogram:max 8
scalar CompoundPacketQueueTutorialStep.queue incomingPacketLengths:histogram:numbins 2
scalar CompoundPacketQueueTutorialStep.queue incomingPacketLengths:histogram:rangemin 7
scalar CompoundPacketQueueTutorialStep.queue incomingPacketLengths:histogram:rangemax 9
scalar CompoundPacketQueueTutorialStep.queue incomingPacketLengths:histogram:underflows 0
scalar CompoundPacketQueueTutorialStep.queue incomingPacketLengths:histogram:overflows 0
scalar CompoundPacketQueueTutorialStep.collector packetLengths:histogram:count 8
scalar CompoundPacketQueueTutorialStep.collector packetLengths:histogram:sumweights 8
scalar CompoundPacketQueueTutorialStep.collector packetLengths:histogram:mean 8
scalar CompoundPacketQueueTutorialStep.collector packetLengths:histogram:stddev 0
scalar CompoundPacketQueueTutorialStep.collector packetLengths:histogram:min 8
scalar CompoundPacketQueueTutorialStep.collector packetLengths:histogram:max 8
scalar CompoundPacketQueueTutorialStep.collector packetLengths:histogram:numbins 2
scalar CompoundPacketQueueTutorialStep.collector packetLengths:histogram:rangemin 7
scalar CompoundPacketQueueTutorialStep.collector packetLengths:histogram:rangemax 9
scalar CompoundPacketQueueTutorialStep.collector packetLengths:histogram:underflows 0
scalar CompoundPacketQueueTutorialStep.collector packetLengths:histogram:overflows 0
scalar CompoundPacketQueueTutorialStep.collector meanBitLifeTimePerPacket:histogram:count 8
scalar CompoundPacketQueueTutorialStep.collector meanBitLifeTimePerPacket:histogram:sumweights 8
scalar CompoundPacketQueueTutorialStep.collector meanBitLifeTimePerPacket:histogram:mean 1.7836162222077498
scalar CompoundPacketQueueTutorialStep.collector meanBitLifeTimePerPacket:histogram:stddev 2.5053159133759335
scalar CompoundPacketQueueTutorialStep.collector meanBitLifeTimePerPacket:histogram:min 0
scalar CompoundPacketQueueTutorialStep.collector meanBitLifeTimePerPacket:histogram:max 7.5650040367609996
scalar CompoundPacketQueueTutorialStep.collector meanBitLifeTimePerPacket:histogram:numbins 48
scalar CompoundPacketQueueTutorialStep.collector meanBitLifeTimePerPacket:histogram:rangemin 0
scalar CompoundPacketQueueTutorialStep.collector meanBitLifeTimePerPacket:histogram:rangemax 9.6000000000000014
scalar CompoundPacketQueueTutorialStep.collector meanBitLifeTimePerPacket:histogram:underflows 0
scalar CompoundPacketQueueTutorialStep.collector meanBitLifeTimePerPacket:histogram:overflows 0
scalar CompoundPacketQueueTutorialStep.collector packetLifeTime:histogram:count 8
scalar CompoundPacketQueueTutorialStep.collector packetLifeTime:histogram:sumweights 8
scalar CompoundPacketQueueTutorialStep.collector packetLifeTime:histogram:mean 1.7836162222077498
scalar CompoundPacketQueueTutorialStep.collector packetLifeTime:histogram:stddev 2.5053159133759335
scalar CompoundPacketQueueTutorialStep.collector packetLifeTime:histogram:min 0
scalar CompoundPacketQueueTutorialStep.collector packetLifeTime:histogram:max 7.5650040367609996
scalar CompoundPacketQueueTutorialStep.collector packetLifeTime:histogram:numbins 48
scalar CompoundPacketQueueTutorialStep.collector packetLifeTime:histogram:rangemin 0
scalar CompoundPacketQueueTutorialStep.collector packetLifeTime:histogram:rangemax 9.6000000000000014
scalar CompoundPacketQueueTutorialStep.collector packetLifeTime:histogram:underflows 0
scalar CompoundPacketQueueTutorialStep.collector packetLifeTime:histogram:overflows 0
scalar CompoundPacketQueueTutorialStep.collector packetJitter:histogram:count 8
scalar CompoundPacketQueueTutorialStep.collector packetJitter:histogram:sumweights 8
scalar CompoundPacketQueueTutorialStep.collector packetJitter:histogram:mean 0.94562550459512495
scalar CompoundPacketQueueTutorialStep.collector packetJitter:histogram:stddev 2.7241750343185025
scalar CompoundPacketQueueTutorialStep.collector packetJitter:histogram:min -2.0176412356089997
scalar CompoundPacketQueueTutorialStep.collector packetJitter:histogram:max 6.7999251843439996
scalar CompoundPacketQueueTutorialStep.collector packetJitter:histogram:numbins 68
scalar CompoundPacketQueueTutorialStep.collector packetJitter:histogram:rangemin -4.4000000000000004
scalar CompoundPacketQueueTutorialStep.collector packetJitter:histogram:rangemax 9.2000000000000011
scalar CompoundPacketQueueTutorialStep.collector packetJitter:histogram:underflows 0
scalar CompoundPacketQueueTutorialStep.collector packetJitter:histogram:overflows 0
scalar CompoundPacketQueueTutorialStep.collector packetDelayDifferenceToMean:histogram:count 8
scalar CompoundPacketQueueTutorialStep.collector packetDelayDifferenceToMean:histogram:sumweights 8
scalar CompoundPacketQueueTutorialStep.collector packetDelayDifferenceToMean:histogram:mean -0.9369489853885058
scalar CompoundPacketQueueTutorialStep.collector packetDelayDifferenceToMean:histogram:stddev 2.0799734170211366
scalar CompoundPacketQueueTutorialStep.collector packetDelayDifferenceToMean:histogram:min -5.7813878145532502
scalar CompoundPacketQueueTutorialStep.collector packetDelayDifferenceToMean:histogram:max 0.33113996583733318
scalar CompoundPacketQueueTutorialStep.collector packetDelayDifferenceToMean:histogram:numbins 47
scalar CompoundPacketQueueTutorialStep.collector packetDelayDifferenceToMean:histogram:rangemin -7.4000000000000004
scalar CompoundPacketQueueTutorialStep.collector packetDelayDifferenceToMean:histogram:rangemax 2
scalar CompoundPacketQueueTutorialStep.collector packetDelayDifferenceToMean:histogram:underflows 0
scalar CompoundPacketQueueTutorialStep.collector packetDelayDifferenceToMean:histogram:overflows 0
scalar CompoundPacketQueueTutorialStep.collector packetDelayVariation:histogram:count 8
scalar CompoundPacketQueueTutorialStep.collector packetDelayVariation:histogram:sumweights 8
scalar CompoundPacketQueueTutorialStep.collector packetDelayVariation:histogram:mean 1.264962773890157
scalar CompoundPacketQueueTutorialStep.collector packetDelayVariation:histogram:stddev 1.5439143381532807
scalar CompoundPacketQueueTutorialStep.collector packetDelayVariation:histogram:min 0
scalar CompoundPacketQueueTutorialStep.collector packetDelayVariation:histogram:max 4.6827359484721924
scalar CompoundPacketQueueTutorialStep.collector packetDelayVariation:histogram:numbins 59
scalar CompoundPacketQueueTutorialStep.collector packetDelayVariation:histogram:rangemin 0
scalar CompoundPacketQueueTutorialStep.collector packetDelayVariation:histogram:rangemax 5.9000000000000004
scalar CompoundPacketQueueTutorialStep.collector packetDelayVariation:histogram:underflows 0
scalar CompoundPacketQueueTutorialStep.collector packetDelayVariation:histogram:overflows 0
scalar CompoundPacketQueueTutorialStep.collector droppedPacketLengths:histogram:count 8
scalar CompoundPacketQueueTutorialStep.collector droppedPacketLengths:histogram:sumweights 8
scalar CompoundPacketQueueTutorialStep.collector droppedPacketLengths:histogram:mean 8
scalar CompoundPacketQueueTutorialStep.collector droppedPacketLengths:histogram:stddev 0
scalar CompoundPacketQueueTutorialStep.collector droppedPacketLengths:histogram:min 8
scalar CompoundPacketQueueTutorialStep.collector droppedPacketLengths:histogram:max 8
scalar CompoundPacketQueueTutorialStep.collector droppedPacketLengths:histogram:numbins 2
scalar CompoundPacketQueueTutorialStep.collector droppedPacketLengths:histogram:rangemin 7
scalar CompoundPacketQueueTutorialStep.collector droppedPacketLengths:histogram:rangemax 9
scalar CompoundPacketQueueTutorialStep.collector droppedPacketLengths:histogram:underflows 0
scalar CompoundPacketQueueTutorialStep.collector droppedPacketLengths:histogram:overflows 0
statistic CompoundPacketQueueTutorialStep.producer packetLengths:histogram
field count 9
field mean 8
field stddev 0
field min 8
field max 8
field sum 72
field sqrsum 576
bin	-inf	0
bin	7	0
bin	8	9
bin	9	0
statistic CompoundPacketQueueTutorialStep.queue.classifier packetLengths:histogram
field count 9
field mean 8
field stddev 0
field min 8
field max 8
field sum 72
field sqrsum 576
bin	-inf	0
bin	7	0
bin	8	9
bin	9	0
statistic CompoundPacketQueueTutorialStep.queue.queue1 queueingTime:histogram
field count 3
field mean 0.50508244475300001
field stddev 0.44846790404413689
field min 0
field max 0.85657948534899997
field sum 1.515247334259
field sqrsum 1.1675717499084843
bin	-inf	0
bin	0	1
bin	0.02	0
bin	0.040000000000000001	0
bin	0.059999999999999998	0
bin	0.080000000000000002	0
bin	0.10000000000000001	0
bin	0.12	0
bin	0.14000000000000001	0
bin	0.16	0
bin	0.17999999999999999	0
bin	0.20000000000000001	0
bin	0.22	0
bin	0.23999999999999999	0
bin	0.26000000000000001	0
bin	0.28000000000000003	0
bin	0.29999999999999999	0
bin	0.32000000000000001	0
bin	0.34000000000000002	0
bin	0.35999999999999999	0
bin	0.38	0
bin	0.40000000000000002	0
bin	0.41999999999999998	0
bin	0.44	0
bin	0.46000000000000002	0
bin	0.47999999999999998	0
bin	0.5	0
bin	0.52000000000000002	0
bin	0.54000000000000004	0
bin	0.56000000000000005	0
bin	0.57999999999999996	0
bin	0.59999999999999998	0
bin	0.62	0
bin	0.64000000000000001	1
bin	0.66000000000000003	0
bin	0.68000000000000005	0
bin	0.70000000000000007	0
bin	0.71999999999999997	0
bin	0.73999999999999999	0
bin	0.76000000000000001	0
bin	0.78000000000000003	0
bin	0.80000000000000004	0
bin	0.82000000000000006	0
bin	0.83999999999999997	1
bin	0.85999999999999999	0
bin	0.88	0
bin	0.90000000000000002	0
bin	0.92000000000000004	0
bin	0.94000000000000006	0
bin	0.95999999999999996	0
bin	0.97999999999999998	0
bin	1	0
bin	1.02	0
bin	1.04	0
bin	1.0600000000000001	0
bin	1.0800000000000001	0
statistic CompoundPacketQueueTutorialStep.queue.queue1 outgoingPacketLengths:histogram
field count 3
field mean 8
field stddev 0
field min 8
field max 8
field sum 24
field sqrsum 192
bin	-inf	0
bin	7	0
bin	8	3
bin	9	0
statistic CompoundPacketQueueTutorialStep.queue.queue1 flowQueueingTime:histogram
field count 0
field mean -nan
field stddev nan
field min nan
field max nan
field sum 0
field sqrsum 0
bin	-inf	0
bin	0	0
bin	1	0
statistic CompoundPacketQueueTutorialStep.queue.queue1 incomingPacketLengths:histogram
field count 3
field mean 8
field stddev 0
field min 8
field max 8
field sum 24
field sqrsum 192
bin	-inf	0
bin	7	0
bin	8	3
bin	9	0
statistic CompoundPacketQueueTutorialStep.queue.queue2 queueingTime:histogram
field count 3
field mean 0.77148589522800004
field stddev 0.6866496075778753
field min 0.088062228169000001
field max 1.461316605098
field sum 2.3144576856840002
field sqrsum 2.7285468267809465
bin	-inf	0
bin	0	0
bin	0.02	0
bin	0.040000000000000001	0
bin	0.059999999999999998	0
bin	0.080000000000000002	1
bin	0.10000000000000001	0
bin	0.12	0
bin	0.14000000000000001	0
bin	0.16	0
bin	0.17999999999999999	0
bin	0.20000000000000001	0
bin	0.22	0
bin	0.23999999999999999	0
bin	0.26000000000000001	0
bin	0.28000000000000003	0
bin	0.29999999999999999	0
bin	0.32000000000000001	0
bin	0.34000000000000002	0
bin	0.35999999999999999	0
bin	0.38	0
bin	0.40000000000000002	0
bin	0.41999999999999998	0
bin	0.44	0
bin	0.46000000000000002	0
bin	0.47999999999999998	0
bin	0.5	0
bin	0.52000000000000002	0
bin	0.54000000000000004	0
bin	0.56000000000000005	0
bin	0.57999999999999996	0
bin	0.59999999999999998	0
bin	0.62	0
bin	0.64000000000000001	0
bin	0.66000000000000003	0
bin	0.68000000000000005	0
bin	0.70000000000000007	0
bin	0.71999999999999997	0
bin	0.73999999999999999	0
bin	0.76000000000000001	1
bin	0.78000000000000003	0
bin	0.80000000000000004	0
bin	0.82000000000000006	0
bin	0.83999999999999997	0
bin	0.85999999999999999	0
bin	0.88	0
bin	0.90000000000000002	0
bin	0.92000000000000004	0
bin	0.94000000000000006	0
bin	0.95999999999999996	0
bin	0.97999999999999998	0
bin	1	0
bin	1.02	0
bin	1.04	0
bin	1.0600000000000001	0
bin	1.0800000000000001	0
bin	1.1000000000000001	0
bin	1.1200000000000001	0
bin	1.1400000000000001	0
bin	1.1599999999999999	0
bin	1.1799999999999999	0
bin	1.2	0
bin	1.22	0
bin	1.24	0
bin	1.26	0
bin	1.28	0
bin	1.3	0
bin	1.3200000000000001	0
bin	1.3400000000000001	0
bin	1.3600000000000001	0
bin	1.3800000000000001	0
bin	1.4000000000000001	0
bin	1.4199999999999999	0
bin	1.4399999999999999	0
bin	1.46	1
bin	1.48	0
bin	1.5	0
bin	1.52	0
bin	1.54	0
bin	1.5600000000000001	0
bin	1.5800000000000001	0
bin	1.6000000000000001	0
bin	1.6200000000000001	0
bin	1.6400000000000001	0
bin	1.6600000000000001	0
bin	1.6799999999999999	0
bin	1.7	0
bin	1.72	0
bin	1.74	0
bin	1.76	0
bin	1.78	0
bin	1.8	0
bin	1.8200000000000001	0
statistic CompoundPacketQueueTutorialStep.queue.queue2 outgoingPacketLengths:histogram
field count 3
field mean 8
field stddev 0
field min 8
field max 8
field sum 24
field sqrsum 192
bin	-inf	0
bin	7	0
bin	8	3
bin	9	0
statistic CompoundPacketQueueTutorialStep.queue.queue2 flowQueueingTime:histogram
field count 0
field mean -nan
field stddev nan
field min nan
field max nan
field sum 0
field sqrsum 0
bin	-inf	0
bin	0	0
bin	1	0
statistic CompoundPacketQueueTutorialStep.queue.queue2 incomingPacketLengths:histogram
field count 3
field mean 8
field stddev 0
field min 8
field max 8
field sum 24
field sqrsum 192
bin	-inf	0
bin	7	0
bin	8	3
bin	9	0
statistic CompoundPacketQueueTutorialStep.queue.queue3 queueingTime:histogram
field count 2
field mean 5.2196123788594999
field stddev 3.3168846916810195
field min 2.8742207209579997
field max 7.5650040367609996
field sum 10.439224757719
field sqrsum 65.490430828994548
bin	-inf	0
bin	1.7000000000000002	0
bin	1.8000000000000003	0
bin	1.9000000000000001	0
bin	2	0
bin	2.1000000000000001	0
bin	2.2000000000000002	0
bin	2.3000000000000003	0
bin	2.4000000000000004	0
bin	2.5	0
bin	2.6000000000000001	0
bin	2.7000000000000002	0
bin	2.8000000000000003	1
bin	2.9000000000000004	0
bin	3	0
bin	3.1000000000000005	0
bin	3.2000000000000002	0
bin	3.3000000000000003	0
bin	3.4000000000000004	0
bin	3.5	0
bin	3.6000000000000005	0
bin	3.7000000000000002	0
bin	3.8000000000000003	0
bin	3.9000000000000004	0
bin	4	0
bin	4.1000000000000005	0
bin	4.2000000000000002	0
bin	4.3000000000000007	0
bin	4.4000000000000004	0
bin	4.5	0
bin	4.6000000000000005	0
bin	4.7000000000000002	0
bin	4.8000000000000007	0
bin	4.9000000000000004	0
bin	5	0
bin	5.1000000000000005	0
bin	5.2000000000000002	0
bin	5.3000000000000007	0
bin	5.4000000000000004	0
bin	5.5	0
bin	5.6000000000000005	0
bin	5.7000000000000002	0
bin	5.8000000000000007	0
bin	5.9000000000000004	0
bin	6	0
bin	6.1000000000000005	0
bin	6.2000000000000002	0
bin	6.3000000000000007	0
bin	6.4000000000000004	0
bin	6.5000000000000009	0
bin	6.6000000000000005	0
bin	6.7000000000000002	0
bin	6.8000000000000007	0
bin	6.9000000000000004	0
bin	7.0000000000000009	0
bin	7.1000000000000005	0
bin	7.2000000000000002	0
bin	7.3000000000000007	0
bin	7.4000000000000004	0
bin	7.5000000000000009	1
bin	7.6000000000000005	0
bin	7.7000000000000002	0
bin	7.8000000000000007	0
bin	7.9000000000000004	0
bin	8	0
bin	8.1000000000000014	0
bin	8.1999999999999993	0
bin	8.3000000000000007	0
bin	8.4000000000000004	0
bin	8.5	0
bin	8.6000000000000014	0
bin	8.6999999999999993	0
bin	8.8000000000000007	0
statistic CompoundPacketQueueTutorialStep.queue.queue3 outgoingPacketLengths:histogram
field count 2
field mean 8
field stddev 0
field min 8
field max 8
field sum 16
field sqrsum 128
bin	-inf	0
bin	7	0
bin	8	2
bin	9	0
statistic CompoundPacketQueueTutorialStep.queue.queue3 flowQueueingTime:histogram
field count 0
field mean -nan
field stddev nan
field min nan
field max nan
field sum 0
field sqrsum 0
bin	-inf	0
bin	0	0
bin	1	0
statistic CompoundPacketQueueTutorialStep.queue.queue3 incomingPacketLengths:histogram
field count 11
field mean 8
field stddev 0
field min 8
field max 8
field sum 88
field sqrsum 704
bin	-inf	0
bin	7	0
bin	8	11
bin	9	0
statistic CompoundPacketQueueTutorialStep.queue.consumer packetLengths:histogram
field count 3
field mean 8
field stddev 0
field min 8
field max 8
field sum 24
field sqrsum 192
bin	-inf	0
bin	7	0
bin	8	3
bin	9	0
statistic CompoundPacketQueueTutorialStep.queue.consumer meanBitLifeTimePerPacket:histogram
field count 3
field mean 0
field stddev 0
field min 0
field max 0
field sum 0
field sqrsum 0
bin	-inf	0
bin	-0.5	0
bin	-0.47999999999999998	0
bin	-0.46000000000000002	0
bin	-0.44	0
bin	-0.41999999999999998	0
bin	-0.40000000000000002	0
bin	-0.38	0
bin	-0.35999999999999999	0
bin	-0.33999999999999997	0
bin	-0.32000000000000001	0
bin	-0.29999999999999999	0
bin	-0.28000000000000003	0
bin	-0.26000000000000001	0
bin	-0.23999999999999999	0
bin	-0.21999999999999997	0
bin	-0.20000000000000001	0
bin	-0.17999999999999999	0
bin	-0.15999999999999998	0
bin	-0.14000000000000001	0
bin	-0.12	0
bin	-0.099999999999999978	0
bin	-0.080000000000000016	0
bin	-0.059999999999999998	0
bin	-0.03999999999999998	0
bin	-0.020000000000000018	0
bin	0	3
bin	0.020000000000000018	0
bin	0.040000000000000036	0
bin	0.060000000000000053	0
bin	0.07999999999999996	0
bin	0.099999999999999978	0
bin	0.12	0
bin	0.14000000000000001	0
bin	0.16000000000000003	0
bin	0.18000000000000005	0
bin	0.20000000000000007	0
bin	0.21999999999999997	0
bin	0.23999999999999999	0
bin	0.26000000000000001	0
bin	0.28000000000000003	0
bin	0.30000000000000004	0
bin	0.32000000000000006	0
bin	0.33999999999999997	0
bin	0.35999999999999999	0
bin	0.38	0
bin	0.40000000000000002	0
bin	0.42000000000000004	0
bin	0.44000000000000006	0
bin	0.45999999999999996	0
bin	0.47999999999999998	0
bin	0.5	0
statistic CompoundPacketQueueTutorialStep.queue.consumer packetLifeTime:histogram
field count 3
field mean 0
field stddev 0
field min 0
field max 0
field sum 0
field sqrsum 0
bin	-inf	0
bin	-0.5	0
bin	-0.47999999999999998	0
bin	-0.46000000000000002	0
bin	-0.44	0
bin	-0.41999999999999998	0
bin	-0.40000000000000002	0
bin	-0.38	0
bin	-0.35999999999999999	0
bin	-0.33999999999999997	0
bin	-0.32000000000000001	0
bin	-0.29999999999999999	0
bin	-0.28000000000000003	0
bin	-0.26000000000000001	0
bin	-0.23999999999999999	0
bin	-0.21999999999999997	0
bin	-0.20000000000000001	0
bin	-0.17999999999999999	0
bin	-0.15999999999999998	0
bin	-0.14000000000000001	0
bin	-0.12	0
bin	-0.099999999999999978	0
bin	-0.080000000000000016	0
bin	-0.059999999999999998	0
bin	-0.03999999999999998	0
bin	-0.020000000000000018	0
bin	0	3
bin	0.020000000000000018	0
bin	0.040000000000000036	0
bin	0.060000000000000053	0
bin	0.07999999999999996	0
bin	0.099999999999999978	0
bin	0.12	0
bin	0.14000000000000001	0
bin	0.16000000000000003	0
bin	0.18000000000000005	0
bin	0.20000000000000007	0
bin	0.21999999999999997	0
bin	0.23999999999999999	0
bin	0.26000000000000001	0
bin	0.28000000000000003	0
bin	0.30000000000000004	0
bin	0.32000000000000006	0
bin	0.33999999999999997	0
bin	0.35999999999999999	0
bin	0.38	0
bin	0.40000000000000002	0
bin	0.42000000000000004	0
bin	0.44000000000000006	0
bin	0.45999999999999996	0
bin	0.47999999999999998	0
bin	0.5	0
statistic CompoundPacketQueueTutorialStep.queue.consumer packetJitter:histogram
field count 3
field mean 0
field stddev 0
field min 0
field max 0
field sum 0
field sqrsum 0
bin	-inf	0
bin	-0.5	0
bin	-0.47999999999999998	0
bin	-0.46000000000000002	0
bin	-0.44	0
bin	-0.41999999999999998	0
bin	-0.40000000000000002	0
bin	-0.38	0
bin	-0.35999999999999999	0
bin	-0.33999999999999997	0
bin	-0.32000000000000001	0
bin	-0.29999999999999999	0
bin	-0.28000000000000003	0
bin	-0.26000000000000001	0
bin	-0.23999999999999999	0
bin	-0.21999999999999997	0
bin	-0.20000000000000001	0
bin	-0.17999999999999999	0
bin	-0.15999999999999998	0
bin	-0.14000000000000001	0
bin	-0.12	0
bin	-0.099999999999999978	0
bin	-0.080000000000000016	0
bin	-0.059999999999999998	0
bin	-0.03999999999999998	0
bin	-0.020000000000000018	0
bin	0	3
bin	0.020000000000000018	0
bin	0.040000000000000036	0
bin	0.060000000000000053	0
bin	0.07999999999999996	0
bin	0.099999999999999978	0
bin	0.12	0
bin	0.14000000000000001	0
bin	0.16000000000000003	0
bin	0.18000000000000005	0
bin	0.20000000000000007	0
bin	0.21999999999999997	0
bin	0.23999999999999999	0
bin	0.26000000000000001	0
bin	0.28000000000000003	0
bin	0.30000000000000004	0
bin	0.32000000000000006	0
bin	0.33999999999999997	0
bin	0.35999999999999999	0
bin	0.38	0
bin	0.40000000000000002	0
bin	0.42000000000000004	0
bin	0.44000000000000006	0
bin	0.45999999999999996	0
bin	0.47999999999999998	0
bin	0.5	0
statistic CompoundPacketQueueTutorialStep.queue.consumer packetDelayDifferenceToMean:histogram
field count 3
field mean 0
field stddev 0
field min 0
field max 0
field sum 0
field sqrsum 0
bin	-inf	0
bin	-0.5	0
bin	-0.47999999999999998	0
bin	-0.46000000000000002	0
bin	-0.44	0
bin	-0.41999999999999998	0
bin	-0.40000000000000002	0
bin	-0.38	0
bin	-0.35999999999999999	0
bin	-0.33999999999999997	0
bin	-0.32000000000000001	0
bin	-0.29999999999999999	0
bin	-0.28000000000000003	0
bin	-0.26000000000000001	0
bin	-0.23999999999999999	0
bin	-0.21999999999999997	0
bin	-0.20000000000000001	0
bin	-0.17999999999999999	0
bin	-0.15999999999999998	0
bin	-0.14000000000000001	0
bin	-0.12	0
bin	-0.099999999999999978	0
bin	-0.080000000000000016	0
bin	-0.059999999999999998	0
bin	-0.03999999999999998	0
bin	-0.020000000000000018	0
bin	0	3
bin	0.020000000000000018	0
bin	0.040000000000000036	0
bin	0.060000000000000053	0
bin	0.07999999999999996	0
bin	0.099999999999999978	0
bin	0.12	0
bin	0.14000000000000001	0
bin	0.16000000000000003	0
bin	0.18000000000000005	0
bin	0.20000000000000007	0
bin	0.21999999999999997	0
bin	0.23999999999999999	0
bin	0.26000000000000001	0
bin	0.28000000000000003	0
bin	0.30000000000000004	0
bin	0.32000000000000006	0
bin	0.33999999999999997	0
bin	0.35999999999999999	0
bin	0.38	0
bin	0.40000000000000002	0
bin	0.42000000000000004	0
bin	0.44000000000000006	0
bin	0.45999999999999996	0
bin	0.47999999999999998	0
bin	0.5	0
statistic CompoundPacketQueueTutorialStep.queue.consumer packetDelayVariation:histogram
field count 3
field mean 0
field stddev 0
field min 0
field max 0
field sum 0
field sqrsum 0
bin	-inf	0
bin	-0.5	0
bin	-0.47999999999999998	0
bin	-0.46000000000000002	0
bin	-0.44	0
bin	-0.41999999999999998	0
bin	-0.40000000000000002	0
bin	-0.38	0
bin	-0.35999999999999999	0
bin	-0.33999999999999997	0
bin	-0.32000000000000001	0
bin	-0.29999999999999999	0
bin	-0.28000000000000003	0
bin	-0.26000000000000001	0
bin	-0.23999999999999999	0
bin	-0.21999999999999997	0
bin	-0.20000000000000001	0
bin	-0.17999999999999999	0
bin	-0.15999999999999998	0
bin	-0.14000000000000001	0
bin	-0.12	0
bin	-0.099999999999999978	0
bin	-0.080000000000000016	0
bin	-0.059999999999999998	0
bin	-0.03999999999999998	0
bin	-0.020000000000000018	0
bin	0	3
bin	0.020000000000000018	0
bin	0.040000000000000036	0
bin	0.060000000000000053	0
bin	0.07999999999999996	0
bin	0.099999999999999978	0
bin	0.12	0
bin	0.14000000000000001	0
bin	0.16000000000000003	0
bin	0.18000000000000005	0
bin	0.20000000000000007	0
bin	0.21999999999999997	0
bin	0.23999999999999999	0
bin	0.26000000000000001	0
bin	0.28000000000000003	0
bin	0.30000000000000004	0
bin	0.32000000000000006	0
bin	0.33999999999999997	0
bin	0.35999999999999999	0
bin	0.38	0
bin	0.40000000000000002	0
bin	0.42000000000000004	0
bin	0.44000000000000006	0
bin	0.45999999999999996	0
bin	0.47999999999999998	0
bin	0.5	0
statistic CompoundPacketQueueTutorialStep.queue.consumer droppedPacketLengths:histogram
field count 3
field mean 8
field stddev 0
field min 8
field max 8
field sum 24
field sqrsum 192
bin	-inf	0
bin	7	0
bin	8	3
bin	9	0
statistic CompoundPacketQueueTutorialStep.queue.producer packetLengths:histogram
field count 11
field mean 8
field stddev 0
field min 8
field max 8
field sum 88
field sqrsum 704
bin	-inf	0
bin	7	0
bin	8	11
bin	9	0
statistic CompoundPacketQueueTutorialStep.queue.scheduler packetLengths:histogram
field count 8
field mean 8
field stddev 0
field min 8
field max 8
field sum 64
field sqrsum 512
bin	-inf	0
bin	7	0
bin	8	8
bin	9	0
statistic CompoundPacketQueueTutorialStep.queue queueingTime:histogram
field count 8
field mean 0
field stddev 0
field min 0
field max 0
field sum 0
field sqrsum 0
bin	-inf	0
bin	-0.5	0
bin	-0.47999999999999998	0
bin	-0.46000000000000002	0
bin	-0.44	0
bin	-0.41999999999999998	0
bin	-0.40000000000000002	0
bin	-0.38	0
bin	-0.35999999999999999	0
bin	-0.33999999999999997	0
bin	-0.32000000000000001	0
bin	-0.29999999999999999	0
bin	-0.28000000000000003	0
bin	-0.26000000000000001	0
bin	-0.23999999999999999	0
bin	-0.21999999999999997	0
bin	-0.20000000000000001	0
bin	-0.17999999999999999	0
bin	-0.15999999999999998	0
bin	-0.14000000000000001	0
bin	-0.12	0
bin	-0.099999999999999978	0
bin	-0.080000000000000016	0
bin	-0.059999999999999998	0
bin	-0.03999999999999998	0
bin	-0.020000000000000018	0
bin	0	8
bin	0.020000000000000018	0
bin	0.040000000000000036	0
bin	0.060000000000000053	0
bin	0.07999999999999996	0
bin	0.099999999999999978	0
bin	0.12	0
bin	0.14000000000000001	0
bin	0.16000000000000003	0
bin	0.18000000000000005	0
bin	0.20000000000000007	0
bin	0.21999999999999997	0
bin	0.23999999999999999	0
bin	0.26000000000000001	0
bin	0.28000000000000003	0
bin	0.30000000000000004	0
bin	0.32000000000000006	0
bin	0.33999999999999997	0
bin	0.35999999999999999	0
bin	0.38	0
bin	0.40000000000000002	0
bin	0.42000000000000004	0
bin	0.44000000000000006	0
bin	0.45999999999999996	0
bin	0.47999999999999998	0
bin	0.5	0
statistic CompoundPacketQueueTutorialStep.queue outgoingPacketLengths:histogram
field count 8
field mean 8
field stddev 0
field min 8
field max 8
field sum 64
field sqrsum 512
bin	-inf	0
bin	7	0
bin	8	8
bin	9	0
statistic CompoundPacketQueueTutorialStep.queue flowQueueingTime:histogram
field count 0
field mean -nan
field stddev nan
field min nan
field max nan
field sum 0
field sqrsum 0
bin	-inf	0
bin	0	0
bin	1	0
statistic CompoundPacketQueueTutorialStep.queue incomingPacketLengths:histogram
field count 9
field mean 8
field stddev 0
field min 8
field max 8
field sum 72
field sqrsum 576
bin	-inf	0
bin	7	0
bin	8	9
bin	9	0
statistic CompoundPacketQueueTutorialStep.collector packetLengths:histogram
field count 8
field mean 8
field stddev 0
field min 8
field max 8
field sum 64
field sqrsum 512
bin	-inf	0
bin	7	0
bin	8	8
bin	9	0
statistic CompoundPacketQueueTutorialStep.collector meanBitLifeTimePerPacket:histogram
field count 8
field mean 1.7836162222077498
field stddev 2.5053159133759335
field min 0
field max 7.5650040367609996
field sum 14.268929777661999
field sqrsum 69.386549405683979
bin	-inf	0
bin	0	2
bin	0.20000000000000001	0
bin	0.40000000000000002	0
bin	0.60000000000000009	2
bin	0.80000000000000004	1
bin	1	0
bin	1.2000000000000002	0
bin	1.4000000000000001	1
bin	1.6000000000000001	0
bin	1.8	0
bin	2	0
bin	2.2000000000000002	0
bin	2.4000000000000004	0
bin	2.6000000000000001	0
bin	2.8000000000000003	1
bin	3	0
bin	3.2000000000000002	0
bin	3.4000000000000004	0
bin	3.6000000000000001	0
bin	3.8000000000000003	0
bin	4	0
bin	4.2000000000000002	0
bin	4.4000000000000004	0
bin	4.6000000000000005	0
bin	4.8000000000000007	0
bin	5	0
bin	5.2000000000000002	0
bin	5.4000000000000004	0
bin	5.6000000000000005	0
bin	5.8000000000000007	0
bin	6	0
bin	6.2000000000000002	0
bin	6.4000000000000004	0
bin	6.6000000000000005	0
bin	6.8000000000000007	0
bin	7	0
bin	7.2000000000000002	0
bin	7.4000000000000004	1
bin	7.6000000000000005	0
bin	7.8000000000000007	0
bin	8	0
bin	8.2000000000000011	0
bin	8.4000000000000004	0
bin	8.5999999999999996	0
bin	8.8000000000000007	0
bin	9	0
bin	9.2000000000000011	0
bin	9.4000000000000004	0
bin	9.6000000000000014	0
statistic CompoundPacketQueueTutorialStep.collector packetLifeTime:histogram
field count 8
field mean 1.7836162222077498
field stddev 2.5053159133759335
field min 0
field max 7.5650040367609996
field sum 14.268929777661999
field sqrsum 69.386549405683979
bin	-inf	0
bin	0	2
bin	0.20000000000000001	0
bin	0.40000000000000002	0
bin	0.60000000000000009	2
bin	0.80000000000000004	1
bin	1	0
bin	1.2000000000000002	0
bin	1.4000000000000001	1
bin	1.6000000000000001	0
bin	1.8	0
bin	2	0
bin	2.2000000000000002	0
bin	2.4000000000000004	0
bin	2.6000000000000001	0
bin	2.8000000000000003	1
bin	3	0
bin	3.2000000000000002	0
bin	3.4000000000000004	0
bin	3.6000000000000001	0
bin	3.8000000000000003	0
bin	4	0
bin	4.2000000000000002	0
bin	4.4000000000000004	0
bin	4.6000000000000005	0
bin	4.8000000000000007	0
bin	5	0
bin	5.2000000000000002	0
bin	5.4000000000000004	0
bin	5.6000000000000005	0
bin	5.8000000000000007	0
bin	6	0
bin	6.2000000000000002	0
bin	6.4000000000000004	0
bin	6.6000000000000005	0
bin	6.8000000000000007	0
bin	7	0
bin	7.2000000000000002	0
bin	7.4000000000000004	1
bin	7.6000000000000005	0
bin	7.8000000000000007	0
bin	8	0
bin	8.2000000000000011	0
bin	8.4000000000000004	0
bin	8.5999999999999996	0
bin	8.8000000000000007	0
bin	9	0
bin	9.2000000000000011	0
bin	9.4000000000000004	0
bin	9.6000000000000014	0
statistic CompoundPacketQueueTutorialStep.collector packetJitter:histogram
field count 8
field mean 0.94562550459512495
field stddev 2.7241750343185025
field min -2.0176412356089997
field max 6.7999251843439996
field sum 7.5650040367609996
field sqrsum 59.101568082755776
bin	-inf	0
bin	-4.4000000000000004	0
bin	-4.2000000000000002	0
bin	-4	0
bin	-3.8000000000000003	0
bin	-3.6000000000000005	0
bin	-3.4000000000000004	0
bin	-3.2000000000000002	0
bin	-3	0
bin	-2.8000000000000003	0
bin	-2.6000000000000005	0
bin	-2.4000000000000004	0
bin	-2.2000000000000002	1
bin	-2	0
bin	-1.8000000000000003	0
bin	-1.6000000000000001	0
bin	-1.4000000000000004	0
bin	-1.2000000000000002	0
bin	-1	1
bin	-0.80000000000000027	0
bin	-0.60000000000000009	0
bin	-0.40000000000000036	0
bin	-0.20000000000000018	0
bin	0	3
bin	0.20000000000000018	0
bin	0.40000000000000036	0
bin	0.59999999999999964	1
bin	0.79999999999999982	0
bin	1	0
bin	1.2000000000000002	0
bin	1.4000000000000004	0
bin	1.5999999999999996	0
bin	1.7999999999999998	0
bin	2	0
bin	2.2000000000000002	0
bin	2.4000000000000004	0
bin	2.5999999999999996	1
bin	2.7999999999999998	0
bin	3	0
bin	3.2000000000000002	0
bin	3.4000000000000004	0
bin	3.5999999999999996	0
bin	3.8000000000000007	0
bin	4	0
bin	4.1999999999999993	0
bin	4.4000000000000004	0
bin	4.5999999999999996	0
bin	4.8000000000000007	0
bin	5	0
bin	5.2000000000000011	0
bin	5.4000000000000004	0
bin	5.5999999999999996	0
bin	5.8000000000000007	0
bin	6	0
bin	6.2000000000000011	0
bin	6.4000000000000004	0
bin	6.5999999999999996	1
bin	6.8000000000000007	0
bin	7	0
bin	7.2000000000000011	0
bin	7.4000000000000004	0
bin	7.5999999999999996	0
bin	7.8000000000000007	0
bin	8	0
bin	8.2000000000000011	0
bin	8.4000000000000004	0
bin	8.5999999999999996	0
bin	8.8000000000000007	0
bin	9	0
bin	9.2000000000000011	0
statistic CompoundPacketQueueTutorialStep.collector packetDelayDifferenceToMean:histogram
field count 8
field mean -0.9369489853885058
field stddev 2.0799734170211366
field min -5.7813878145532502
field max 0.33113996583733318
field sum -7.4955918831080464
field sqrsum 37.307013118366484
bin	-inf	0
bin	-7.4000000000000004	0
bin	-7.2000000000000002	0
bin	-7	0
bin	-6.8000000000000007	0
bin	-6.6000000000000005	0
bin	-6.4000000000000004	0
bin	-6.2000000000000002	0
bin	-6	0
bin	-5.8000000000000007	1
bin	-5.6000000000000005	0
bin	-5.4000000000000004	0
bin	-5.2000000000000002	0
bin	-5	0
bin	-4.8000000000000007	0
bin	-4.5999999999999996	0
bin	-4.4000000000000004	0
bin	-4.2000000000000002	0
bin	-4	0
bin	-3.8000000000000003	0
bin	-3.6000000000000001	0
bin	-3.4000000000000004	0
bin	-3.2000000000000002	0
bin	-3	0
bin	-2.7999999999999998	0
bin	-2.5999999999999996	0
bin	-2.4000000000000004	0
bin	-2.2000000000000002	0
bin	-2	1
bin	-1.7999999999999998	0
bin	-1.5999999999999996	0
bin	-1.4000000000000004	0
bin	-1.2000000000000002	0
bin	-1	0
bin	-0.79999999999999982	0
bin	-0.59999999999999964	1
bin	-0.40000000000000036	0
bin	-0.20000000000000018	1
bin	0	3
bin	0.20000000000000018	1
bin	0.40000000000000036	0
bin	0.59999999999999964	0
bin	0.80000000000000071	0
bin	1	0
bin	1.1999999999999993	0
bin	1.4000000000000004	0
bin	1.5999999999999996	0
bin	1.8000000000000007	0
bin	2	0
statistic CompoundPacketQueueTutorialStep.collector packetDelayVariation:histogram
field count 8
field mean 1.264962773890157
field stddev 1.5439143381532807
field min 0
field max 4.6827359484721924
field sum 10.119702191121256
field sqrsum 29.48674693951002
bin	-inf	0
bin	0	3
bin	0.10000000000000001	0
bin	0.20000000000000001	0
bin	0.30000000000000004	0
bin	0.40000000000000002	0
bin	0.5	0
bin	0.60000000000000009	0
bin	0.70000000000000007	0
bin	0.80000000000000004	0
bin	0.90000000000000002	0
bin	1	1
bin	1.1000000000000001	1
bin	1.2000000000000002	0
bin	1.3	0
bin	1.4000000000000001	1
bin	1.5	0
bin	1.6000000000000001	0
bin	1.7000000000000002	1
bin	1.8	0
bin	1.9000000000000001	0
bin	2	0
bin	2.1000000000000001	0
bin	2.2000000000000002	0
bin	2.3000000000000003	0
bin	2.4000000000000004	0
bin	2.5	0
bin	2.6000000000000001	0
bin	2.7000000000000002	0
bin	2.8000000000000003	0
bin	2.9000000000000004	0
bin	3	0
bin	3.1000000000000001	0
bin	3.2000000000000002	0
bin	3.3000000000000003	0
bin	3.4000000000000004	0
bin	3.5	0
bin	3.6000000000000001	0
bin	3.7000000000000002	0
bin	3.8000000000000003	0
bin	3.9000000000000004	0
bin	4	0
bin	4.1000000000000005	0
bin	4.2000000000000002	0
bin	4.2999999999999998	0
bin	4.4000000000000004	0
bin	4.5	0
bin	4.6000000000000005	1
bin	4.7000000000000002	0
bin	4.8000000000000007	0
bin	4.9000000000000004	0
bin	5	0
bin	5.1000000000000005	0
bin	5.2000000000000002	0
bin	5.3000000000000007	0
bin	5.4000000000000004	0
bin	5.5	0
bin	5.6000000000000005	0
bin	5.7000000000000002	0
bin	5.8000000000000007	0
bin	5.9000000000000004	0
statistic CompoundPacketQueueTutorialStep.collector droppedPacketLengths:histogram
field count 8
field mean 8
field stddev 0
field min 8
field max 8
field sum 64
field sqrsum 512
bin	-inf	0
bin	7	0
bin	8	8
bin	9	0
scalar CompoundPacketQueueTutorialStep.producer packetLengths:vector:count 9
scalar CompoundPacketQueueTutorialStep.producer packetLengths:vector:sum 72
scalar CompoundPacketQueueTutorialStep.producer packetLengths:vector:sumweights 9
scalar CompoundPacketQueueTutorialStep.producer packetLengths:vector:mean 8
scalar CompoundPacketQueueTutorialStep.producer packetLengths:vector:stddev 0
scalar CompoundPacketQueueTutorialStep.producer packetLengths:vector:min 8
scalar CompoundPacketQueueTutorialStep.producer packetLengths:vector:max 8
scalar CompoundPacketQueueTutorialStep.producer packetLengths:vector:starttime 0
scalar CompoundPacketQueueTutorialStep.producer packetLengths:vector:endtime 8.2815684434040016
scalar CompoundPacketQueueTutorialStep.producer dataRate:vector:count 100
scalar CompoundPacketQueueTutorialStep.producer dataRate:vector:sum 720
scalar CompoundPacketQueueTutorialStep.producer dataRate:vector:sumweights 100
scalar CompoundPacketQueueTutorialStep.producer dataRate:vector:mean 7.2000000000000002
scalar CompoundPacketQueueTutorialStep.producer dataRate:vector:stddev 23.009879301172909
scalar CompoundPacketQueueTutorialStep.producer dataRate:vector:min 0
scalar CompoundPacketQueueTutorialStep.producer dataRate:vector:max 80
scalar CompoundPacketQueueTutorialStep.producer dataRate:vector:starttime 0.10000000000000001
scalar CompoundPacketQueueTutorialStep.producer dataRate:vector:endtime 10
scalar CompoundPacketQueueTutorialStep.queue.classifier packetLengths:vector:count 9
scalar CompoundPacketQueueTutorialStep.queue.classifier packetLengths:vector:sum 72
scalar CompoundPacketQueueTutorialStep.queue.classifier packetLengths:vector:sumweights 9
scalar CompoundPacketQueueTutorialStep.queue.classifier packetLengths:vector:mean 8
scalar CompoundPacketQueueTutorialStep.queue.classifier packetLengths:vector:stddev 0
scalar CompoundPacketQueueTutorialStep.queue.classifier packetLengths:vector:min 8
scalar CompoundPacketQueueTutorialStep.queue.classifier packetLengths:vector:max 8
scalar CompoundPacketQueueTutorialStep.queue.classifier packetLengths:vector:starttime 0
scalar CompoundPacketQueueTutorialStep.queue.classifier packetLengths:vector:endtime 8.2815684434040016
scalar CompoundPacketQueueTutorialStep.queue.classifier dataRate:vector:count 100
scalar CompoundPacketQueueTutorialStep.queue.classifier dataRate:vector:sum 720
scalar CompoundPacketQueueTutorialStep.queue.classifier dataRate:vector:sumweights 100
scalar CompoundPacketQueueTutorialStep.queue.classifier dataRate:vector:mean 7.2000000000000002
scalar CompoundPacketQueueTutorialStep.queue.classifier dataRate:vector:stddev 23.009879301172909
scalar CompoundPacketQueueTutorialStep.queue.classifier dataRate:vector:min 0
scalar CompoundPacketQueueTutorialStep.queue.classifier dataRate:vector:max 80
scalar CompoundPacketQueueTutorialStep.queue.classifier dataRate:vector:starttime 0.10000000000000001
scalar CompoundPacketQueueTutorialStep.queue.classifier dataRate:vector:endtime 10
scalar CompoundPacketQueueTutorialStep.queue.queue1 queueLength:vector:count 10
scalar CompoundPacketQueueTutorialStep.queue.queue1 queueLength:vector:sum 2
scalar CompoundPacketQueueTutorialStep.queue.queue1 queueLength:vector:sumweights 10
scalar CompoundPacketQueueTutorialStep.queue.queue1 queueLength:vector:mean 0.20000000000000001
scalar CompoundPacketQueueTutorialStep.queue.queue1 queueLength:vector:stddev 0.4216370213557839
scalar CompoundPacketQueueTutorialStep.queue.queue1 queueLength:vector:min 0
scalar CompoundPacketQueueTutorialStep.queue.queue1 queueLength:vector:max 1
scalar CompoundPacketQueueTutorialStep.queue.queue1 queueLength:vector:starttime 0
scalar CompoundPacketQueueTutorialStep.queue.queue1 queueLength:vector:endtime 7.5764036653560014
scalar CompoundPacketQueueTutorialStep.queue.queue1 queueBitLength:vector:count 10
scalar CompoundPacketQueueTutorialStep.queue.queue1 queueBitLength:vector:sum 16
scalar CompoundPacketQueueTutorialStep.queue.queue1 queueBitLength:vector:sumweights 10
scalar CompoundPacketQueueTutorialStep.queue.queue1 queueBitLength:vector:mean 1.6000000000000001
scalar CompoundPacketQueueTutorialStep.queue.queue1 queueBitLength:vector:stddev 3.3730961708462712
scalar CompoundPacketQueueTutorialStep.queue.queue1 queueBitLength:vector:min 0
scalar CompoundPacketQueueTutorialStep.queue.queue1 queueBitLength:vector:max 8
scalar CompoundPacketQueueTutorialStep.queue.queue1 queueBitLength:vector:starttime 0
scalar CompoundPacketQueueTutorialStep.queue.queue1 queueBitLength:vector:endtime 7.5764036653560014
scalar CompoundPacketQueueTutorialStep.queue.queue1 queueingTime:vector:count 3
scalar CompoundPacketQueueTutorialStep.queue.queue1 queueingTime:vector:sum 1.515247334259
scalar CompoundPacketQueueTutorialStep.queue.queue1 queueingTime:vector:sumweights 3
scalar CompoundPacketQueueTutorialStep.queue.queue1 queueingTime:vector:mean 0.50508244475300001
scalar CompoundPacketQueueTutorialStep.queue.queue1 queueingTime:vector:stddev 0.44846790404413689
scalar CompoundPacketQueueTutorialStep.queue.queue1 queueingTime:vector:min 0
scalar CompoundPacketQueueTutorialStep.queue.queue1 queueingTime:vector:max 0.85657948534899997
scalar CompoundPacketQueueTutorialStep.queue.queue1 queueingTime:vector:starttime 0
scalar CompoundPacketQueueTutorialStep.queue.queue1 queueingTime:vector:endtime 7.5764036653560014
scalar CompoundPacketQueueTutorialStep.queue.queue1 incomingPacketLengths:vector:count 3
scalar CompoundPacketQueueTutorialStep.queue.queue1 incomingPacketLengths:vector:sum 24
scalar CompoundPacketQueueTutorialStep.queue.queue1 incomingPacketLengths:vector:sumweights 3
scalar CompoundPacketQueueTutorialStep.queue.queue1 incomingPacketLengths:vector:mean 8
scalar CompoundPacketQueueTutorialStep.queue.queue1 incomingPacketLengths:vector:stddev 0
scalar CompoundPacketQueueTutorialStep.queue.queue1 incomingPacketLengths:vector:min 8
scalar CompoundPacketQueueTutorialStep.queue.queue1 incomingPacketLengths:vector:max 8
scalar CompoundPacketQueueTutorialStep.queue.queue1 incomingPacketLengths:vector:starttime 0
scalar CompoundPacketQueueTutorialStep.queue.queue1 incomingPacketLengths:vector:endtime 6.917735816446001
scalar CompoundPacketQueueTutorialStep.queue.queue1 incomingDataRate:vector:count 100
scalar CompoundPacketQueueTutorialStep.queue.queue1 incomingDataRate:vector:sum 240
scalar CompoundPacketQueueTutorialStep.queue.queue1 incomingDataRate:vector:sumweights 100
scalar CompoundPacketQueueTutorialStep.queue.queue1 incomingDataRate:vector:mean 2.3999999999999999
scalar CompoundPacketQueueTutorialStep.queue.queue1 incomingDataRate:vector:stddev 13.715728639821222
scalar CompoundPacketQueueTutorialStep.queue.queue1 incomingDataRate:vector:min 0
scalar CompoundPacketQueueTutorialStep.queue.queue1 incomingDataRate:vector:max 80
scalar CompoundPacketQueueTutorialStep.queue.queue1 incomingDataRate:vector:starttime 0.10000000000000001
scalar CompoundPacketQueueTutorialStep.queue.queue1 incomingDataRate:vector:endtime 10
scalar CompoundPacketQueueTutorialStep.queue.queue1 outgoingPacketLengths:vector:count 3
scalar CompoundPacketQueueTutorialStep.queue.queue1 outgoingPacketLengths:vector:sum 24
scalar CompoundPacketQueueTutorialStep.queue.queue1 outgoingPacketLengths:vector:sumweights 3
scalar CompoundPacketQueueTutorialStep.queue.queue1 outgoingPacketLengths:vector:mean 8
scalar CompoundPacketQueueTutorialStep.queue.queue1 outgoingPacketLengths:vector:stddev 0
scalar CompoundPacketQueueTutorialStep.queue.queue1 outgoingPacketLengths:vector:min 8
scalar CompoundPacketQueueTutorialStep.queue.queue1 outgoingPacketLengths:vector:max 8
scalar CompoundPacketQueueTutorialStep.queue.queue1 outgoingPacketLengths:vector:starttime 0
scalar CompoundPacketQueueTutorialStep.queue.queue1 outgoingPacketLengths:vector:endtime 7.5764036653560014
scalar CompoundPacketQueueTutorialStep.queue.queue1 outgoingDataRate:vector:count 100
scalar CompoundPacketQueueTutorialStep.queue.queue1 outgoingDataRate:vector:sum 240
scalar CompoundPacketQueueTutorialStep.queue.queue1 outgoingDataRate:vector:sumweights 100
scalar CompoundPacketQueueTutorialStep.queue.queue1 outgoingDataRate:vector:mean 2.3999999999999999
scalar CompoundPacketQueueTutorialStep.queue.queue1 outgoingDataRate:vector:stddev 13.715728639821222
scalar CompoundPacketQueueTutorialStep.queue.queue1 outgoingDataRate:vector:min 0
scalar CompoundPacketQueueTutorialStep.queue.queue1 outgoingDataRate:vector:max 80
scalar CompoundPacketQueueTutorialStep.queue.queue1 outgoingDataRate:vector:starttime 0.10000000000000001
scalar CompoundPacketQueueTutorialStep.queue.queue1 outgoingDataRate:vector:endtime 10
scalar CompoundPacketQueueTutorialStep.queue.queue1 droppedPacketLengthsQueueOverflow:vector:count 0
scalar CompoundPacketQueueTutorialStep.queue.queue1 droppedPacketLengthsQueueOverflow:vector:sum 0
scalar CompoundPacketQueueTutorialStep.queue.queue1 droppedPacketLengthsQueueOverflow:vector:sumweights 0
scalar CompoundPacketQueueTutorialStep.queue.queue1 droppedPacketLengthsQueueOverflow:vector:mean -nan
scalar CompoundPacketQueueTutorialStep.queue.queue1 droppedPacketLengthsQueueOverflow:vector:stddev nan
scalar CompoundPacketQueueTutorialStep.queue.queue1 droppedPacketLengthsQueueOverflow:vector:min inf
scalar CompoundPacketQueueTutorialStep.queue.queue1 droppedPacketLengthsQueueOverflow:vector:max -inf
scalar CompoundPacketQueueTutorialStep.queue.queue1 droppedPacketLengthsQueueOverflow:vector:starttime nan
scalar CompoundPacketQueueTutorialStep.queue.queue1 droppedPacketLengthsQueueOverflow:vector:endtime nan
scalar CompoundPacketQueueTutorialStep.queue.queue1 flowQueueingTime:vector:count 0
scalar CompoundPacketQueueTutorialStep.queue.queue1 flowQueueingTime:vector:sum 0
scalar CompoundPacketQueueTutorialStep.queue.queue1 flowQueueingTime:vector:sumweights 0
scalar CompoundPacketQueueTutorialStep.queue.queue1 flowQueueingTime:vector:mean -nan
scalar CompoundPacketQueueTutorialStep.queue.queue1 flowQueueingTime:vector:stddev nan
scalar CompoundPacketQueueTutorialStep.queue.queue1 flowQueueingTime:vector:min inf
scalar CompoundPacketQueueTutorialStep.queue.queue1 flowQueueingTime:vector:max -inf
scalar CompoundPacketQueueTutorialStep.queue.queue1 flowQueueingTime:vector:starttime nan
scalar CompoundPacketQueueTutorialStep.queue.queue1 flowQueueingTime:vector:endtime nan
scalar CompoundPacketQueueTutorialStep.queue.queue1 flowIncomingDataRate:vector:count 100
scalar CompoundPacketQueueTutorialStep.queue.queue1 flowIncomingDataRate:vector:sum 0
scalar CompoundPacketQueueTutorialStep.queue.queue1 flowIncomingDataRate:vector:sumweights 100
scalar CompoundPacketQueueTutorialStep.queue.queue1 flowIncomingDataRate:vector:mean 0
scalar CompoundPacketQueueTutorialStep.queue.queue1 flowIncomingDataRate:vector:stddev 0
scalar CompoundPacketQueueTutorialStep.queue.queue1 flowIncomingDataRate:vector:min 0
scalar CompoundPacketQueueTutorialStep.queue.queue1 flowIncomingDataRate:vector:max 0
scalar CompoundPacketQueueTutorialStep.queue.queue1 flowIncomingDataRate:vector:starttime 0.10000000000000001
scalar CompoundPacketQueueTutorialStep.queue.queue1 flowIncomingDataRate:vector:endtime 10
scalar CompoundPacketQueueTutorialStep.queue.queue1 flowOutgoingDataRate:vector:count 100
scalar CompoundPacketQueueTutorialStep.queue.queue1 flowOutgoingDataRate:vector:sum 0
scalar CompoundPacketQueueTutorialStep.queue.queue1 flowOutgoingDataRate:vector:sumweights 100
scalar CompoundPacketQueueTutorialStep.queue.queue1 flowOutgoingDataRate:vector:mean 0
scalar CompoundPacketQueueTutorialStep.queue.queue1 flowOutgoingDataRate:vector:stddev 0
scalar CompoundPacketQueueTutorialStep.queue.queue1 flowOutgoingDataRate:vector:min 0
scalar CompoundPacketQueueTutorialStep.queue.queue1 flowOutgoingDataRate:vector:max 0
scalar CompoundPacketQueueTutorialStep.queue.queue1 flowOutgoingDataRate:vector:starttime 0.10000000000000001
scalar CompoundPacketQueueTutorialStep.queue.queue1 flowOutgoingDataRate:vector:endtime 10
scalar CompoundPacketQueueTutorialStep.queue.queue2 queueLength:vector:count 11
scalar CompoundPacketQueueTutorialStep.queue.queue2 queueLength:vector:sum 3
scalar CompoundPacketQueueTutorialStep.queue.queue2 queueLength:vector:sumweights 11
scalar CompoundPacketQueueTutorialStep.queue.queue2 queueLength:vector:mean 0.27272727272727271
scalar CompoundPacketQueueTutorialStep.queue.queue2 queueLength:vector:stddev 0.46709936649691375
scalar CompoundPacketQueueTutorialStep.queue.queue2 queueLength:vector:min 0
scalar CompoundPacketQueueTutorialStep.queue.queue2 queueLength:vector:max 1
scalar CompoundPacketQueueTutorialStep.queue.queue2 queueLength:vector:starttime 0
scalar CompoundPacketQueueTutorialStep.queue.queue2 queueLength:vector:endtime 8.4515780853100022
scalar CompoundPacketQueueTutorialStep.queue.queue2 queueBitLength:vector:count 11
scalar CompoundPacketQueueTutorialStep.queue.queue2 queueBitLength:vector:sum 24
scalar CompoundPacketQueueTutorialStep.queue.queue2 queueBitLength:vector:sumweights 11
scalar CompoundPacketQueueTutorialStep.queue.queue2 queueBitLength:vector:mean 2.1818181818181817
scalar CompoundPacketQueueTutorialStep.queue.queue2 queueBitLength:vector:stddev 3.73679493197531
scalar CompoundPacketQueueTutorialStep.queue.queue2 queueBitLength:vector:min 0
scalar CompoundPacketQueueTutorialStep.queue.queue2 queueBitLength:vector:max 8
scalar CompoundPacketQueueTutorialStep.queue.queue2 queueBitLength:vector:starttime 0
scalar CompoundPacketQueueTutorialStep.queue.queue2 queueBitLength:vector:endtime 8.4515780853100022
scalar CompoundPacketQueueTutorialStep.queue.queue2 queueingTime:vector:count 3
scalar CompoundPacketQueueTutorialStep.queue.queue2 queueingTime:vector:sum 2.3144576856840002
scalar CompoundPacketQueueTutorialStep.queue.queue2 queueingTime:vector:sumweights 3
scalar CompoundPacketQueueTutorialStep.queue.queue2 queueingTime:vector:mean 0.77148589522800004
scalar CompoundPacketQueueTutorialStep.queue.queue2 queueingTime:vector:stddev 0.6866496075778753
[...]
scalar CompoundPacketQueueTutorialStep.queue.consumer packetDelayDifferenceToMean:vector:stddev 0
scalar CompoundPacketQueueTutorialStep.queue.consumer packetDelayDifferenceToMean:vector:min 0
scalar CompoundPacketQueueTutorialStep.queue.consumer packetDelayDifferenceToMean:vector:max 0
scalar CompoundPacketQueueTutorialStep.queue.consumer packetDelayDifferenceToMean:vector:starttime 2.5280057345520004
scalar CompoundPacketQueueTutorialStep.queue.consumer packetDelayDifferenceToMean:vector:endtime 8.2815684434040016
scalar CompoundPacketQueueTutorialStep.queue.consumer packetDelayVariation:vector:count 3
scalar CompoundPacketQueueTutorialStep.queue.consumer packetDelayVariation:vector:sum 0
scalar CompoundPacketQueueTutorialStep.queue.consumer packetDelayVariation:vector:sumweights 3
scalar CompoundPacketQueueTutorialStep.queue.consumer packetDelayVariation:vector:mean 0
scalar CompoundPacketQueueTutorialStep.queue.consumer packetDelayVariation:vector:stddev 0
scalar CompoundPacketQueueTutorialStep.queue.consumer packetDelayVariation:vector:min 0
scalar CompoundPacketQueueTutorialStep.queue.consumer packetDelayVariation:vector:max 0
scalar CompoundPacketQueueTutorialStep.queue.consumer packetDelayVariation:vector:starttime 2.5280057345520004
scalar CompoundPacketQueueTutorialStep.queue.consumer packetDelayVariation:vector:endtime 8.2815684434040016
scalar CompoundPacketQueueTutorialStep.queue.producer packetLengths:vector:count 11
scalar CompoundPacketQueueTutorialStep.queue.producer packetLengths:vector:sum 88
scalar CompoundPacketQueueTutorialStep.queue.producer packetLengths:vector:sumweights 11
scalar CompoundPacketQueueTutorialStep.queue.producer packetLengths:vector:mean 8
scalar CompoundPacketQueueTutorialStep.queue.producer packetLengths:vector:stddev 0
scalar CompoundPacketQueueTutorialStep.queue.producer packetLengths:vector:min 8
scalar CompoundPacketQueueTutorialStep.queue.producer packetLengths:vector:max 8
scalar CompoundPacketQueueTutorialStep.queue.producer packetLengths:vector:starttime 0
scalar CompoundPacketQueueTutorialStep.queue.producer packetLengths:vector:endtime 10
scalar CompoundPacketQueueTutorialStep.queue.producer dataRate:vector:count 100
scalar CompoundPacketQueueTutorialStep.queue.producer dataRate:vector:sum 800
scalar CompoundPacketQueueTutorialStep.queue.producer dataRate:vector:sumweights 100
scalar CompoundPacketQueueTutorialStep.queue.producer dataRate:vector:mean 8
scalar CompoundPacketQueueTutorialStep.queue.producer dataRate:vector:stddev 24.120907566221092
scalar CompoundPacketQueueTutorialStep.queue.producer dataRate:vector:min 0
scalar CompoundPacketQueueTutorialStep.queue.producer dataRate:vector:max 80
scalar CompoundPacketQueueTutorialStep.queue.producer dataRate:vector:starttime 0.10000000000000001
scalar CompoundPacketQueueTutorialStep.queue.producer dataRate:vector:endtime 10
scalar CompoundPacketQueueTutorialStep.queue.scheduler packetLengths:vector:count 8
scalar CompoundPacketQueueTutorialStep.queue.scheduler packetLengths:vector:sum 64
scalar CompoundPacketQueueTutorialStep.queue.scheduler packetLengths:vector:sumweights 8
scalar CompoundPacketQueueTutorialStep.queue.scheduler packetLengths:vector:mean 8
scalar CompoundPacketQueueTutorialStep.queue.scheduler packetLengths:vector:stddev 0
scalar CompoundPacketQueueTutorialStep.queue.scheduler packetLengths:vector:min 8
scalar CompoundPacketQueueTutorialStep.queue.scheduler packetLengths:vector:max 8
scalar CompoundPacketQueueTutorialStep.queue.scheduler packetLengths:vector:starttime 0
scalar CompoundPacketQueueTutorialStep.queue.scheduler packetLengths:vector:endtime 8.5650040367610014
scalar CompoundPacketQueueTutorialStep.queue.scheduler dataRate:vector:count 100
scalar CompoundPacketQueueTutorialStep.queue.scheduler dataRate:vector:sum 640
scalar CompoundPacketQueueTutorialStep.queue.scheduler dataRate:vector:sumweights 100
scalar CompoundPacketQueueTutorialStep.queue.scheduler dataRate:vector:mean 6.4000000000000004
scalar CompoundPacketQueueTutorialStep.queue.scheduler dataRate:vector:stddev 21.812793947543259
scalar CompoundPacketQueueTutorialStep.queue.scheduler dataRate:vector:min 0
scalar CompoundPacketQueueTutorialStep.queue.scheduler dataRate:vector:max 80
scalar CompoundPacketQueueTutorialStep.queue.scheduler dataRate:vector:starttime 0.10000000000000001
scalar CompoundPacketQueueTutorialStep.queue.scheduler dataRate:vector:endtime 10
scalar CompoundPacketQueueTutorialStep.queue queueLength:vector:count 21
scalar CompoundPacketQueueTutorialStep.queue queueLength:vector:sum 18
scalar CompoundPacketQueueTutorialStep.queue queueLength:vector:sumweights 21
scalar CompoundPacketQueueTutorialStep.queue queueLength:vector:mean 0.8571428571428571
scalar CompoundPacketQueueTutorialStep.queue queueLength:vector:stddev 0.91025898983279951
scalar CompoundPacketQueueTutorialStep.queue queueLength:vector:min 0
scalar CompoundPacketQueueTutorialStep.queue queueLength:vector:max 3
scalar CompoundPacketQueueTutorialStep.queue queueLength:vector:starttime 0
scalar CompoundPacketQueueTutorialStep.queue queueLength:vector:endtime 8.5650040367610014
scalar CompoundPacketQueueTutorialStep.queue queueBitLength:vector:count 21
scalar CompoundPacketQueueTutorialStep.queue queueBitLength:vector:sum 144
scalar CompoundPacketQueueTutorialStep.queue queueBitLength:vector:sumweights 21
scalar CompoundPacketQueueTutorialStep.queue queueBitLength:vector:mean 6.8571428571428568
scalar CompoundPacketQueueTutorialStep.queue queueBitLength:vector:stddev 7.2820719186623961
scalar CompoundPacketQueueTutorialStep.queue queueBitLength:vector:min 0
scalar CompoundPacketQueueTutorialStep.queue queueBitLength:vector:max 24
scalar CompoundPacketQueueTutorialStep.queue queueBitLength:vector:starttime 0
scalar CompoundPacketQueueTutorialStep.queue queueBitLength:vector:endtime 8.5650040367610014
scalar CompoundPacketQueueTutorialStep.queue queueingTime:vector:count 8
scalar CompoundPacketQueueTutorialStep.queue queueingTime:vector:sum 0
scalar CompoundPacketQueueTutorialStep.queue queueingTime:vector:sumweights 8
scalar CompoundPacketQueueTutorialStep.queue queueingTime:vector:mean 0
scalar CompoundPacketQueueTutorialStep.queue queueingTime:vector:stddev 0
scalar CompoundPacketQueueTutorialStep.queue queueingTime:vector:min 0
scalar CompoundPacketQueueTutorialStep.queue queueingTime:vector:max 0
scalar CompoundPacketQueueTutorialStep.queue queueingTime:vector:starttime 0
scalar CompoundPacketQueueTutorialStep.queue queueingTime:vector:endtime 8.5650040367610014
scalar CompoundPacketQueueTutorialStep.queue incomingPacketLengths:vector:count 9
scalar CompoundPacketQueueTutorialStep.queue incomingPacketLengths:vector:sum 72
scalar CompoundPacketQueueTutorialStep.queue incomingPacketLengths:vector:sumweights 9
scalar CompoundPacketQueueTutorialStep.queue incomingPacketLengths:vector:mean 8
scalar CompoundPacketQueueTutorialStep.queue incomingPacketLengths:vector:stddev 0
scalar CompoundPacketQueueTutorialStep.queue incomingPacketLengths:vector:min 8
scalar CompoundPacketQueueTutorialStep.queue incomingPacketLengths:vector:max 8
scalar CompoundPacketQueueTutorialStep.queue incomingPacketLengths:vector:starttime 0
scalar CompoundPacketQueueTutorialStep.queue incomingPacketLengths:vector:endtime 8.2815684434040016
scalar CompoundPacketQueueTutorialStep.queue incomingDataRate:vector:count 100
scalar CompoundPacketQueueTutorialStep.queue incomingDataRate:vector:sum 720
scalar CompoundPacketQueueTutorialStep.queue incomingDataRate:vector:sumweights 100
scalar CompoundPacketQueueTutorialStep.queue incomingDataRate:vector:mean 7.2000000000000002
scalar CompoundPacketQueueTutorialStep.queue incomingDataRate:vector:stddev 23.009879301172909
scalar CompoundPacketQueueTutorialStep.queue incomingDataRate:vector:min 0
scalar CompoundPacketQueueTutorialStep.queue incomingDataRate:vector:max 80
scalar CompoundPacketQueueTutorialStep.queue incomingDataRate:vector:starttime 0.10000000000000001
scalar CompoundPacketQueueTutorialStep.queue incomingDataRate:vector:endtime 10
scalar CompoundPacketQueueTutorialStep.queue outgoingPacketLengths:vector:count 8
scalar CompoundPacketQueueTutorialStep.queue outgoingPacketLengths:vector:sum 64
scalar CompoundPacketQueueTutorialStep.queue outgoingPacketLengths:vector:sumweights 8
scalar CompoundPacketQueueTutorialStep.queue outgoingPacketLengths:vector:mean 8
scalar CompoundPacketQueueTutorialStep.queue outgoingPacketLengths:vector:stddev 0
scalar CompoundPacketQueueTutorialStep.queue outgoingPacketLengths:vector:min 8
scalar CompoundPacketQueueTutorialStep.queue outgoingPacketLengths:vector:max 8
scalar CompoundPacketQueueTutorialStep.queue outgoingPacketLengths:vector:starttime 0
scalar CompoundPacketQueueTutorialStep.queue outgoingPacketLengths:vector:endtime 8.5650040367610014
scalar CompoundPacketQueueTutorialStep.queue outgoingDataRate:vector:count 100
scalar CompoundPacketQueueTutorialStep.queue outgoingDataRate:vector:sum 640
scalar CompoundPacketQueueTutorialStep.queue outgoingDataRate:vector:sumweights 100
scalar CompoundPacketQueueTutorialStep.queue outgoingDataRate:vector:mean 6.4000000000000004
scalar CompoundPacketQueueTutorialStep.queue outgoingDataRate:vector:stddev 21.812793947543259
scalar CompoundPacketQueueTutorialStep.queue outgoingDataRate:vector:min 0
scalar CompoundPacketQueueTutorialStep.queue outgoingDataRate:vector:max 80
scalar CompoundPacketQueueTutorialStep.queue outgoingDataRate:vector:starttime 0.10000000000000001
scalar CompoundPacketQueueTutorialStep.queue outgoingDataRate:vector:endtime 10
scalar CompoundPacketQueueTutorialStep.queue droppedPacketLengthsQueueOverflow:vector:count 0
scalar CompoundPacketQueueTutorialStep.queue droppedPacketLengthsQueueOverflow:vector:sum 0
scalar CompoundPacketQueueTutorialStep.queue droppedPacketLengthsQueueOverflow:vector:sumweights 0
scalar CompoundPacketQueueTutorialStep.queue droppedPacketLengthsQueueOverflow:vector:mean -nan
scalar CompoundPacketQueueTutorialStep.queue droppedPacketLengthsQueueOverflow:vector:stddev nan
scalar CompoundPacketQueueTutorialStep.queue droppedPacketLengthsQueueOverflow:vector:min inf
scalar CompoundPacketQueueTutorialStep.queue droppedPacketLengthsQueueOverflow:vector:max -inf
scalar CompoundPacketQueueTutorialStep.queue droppedPacketLengthsQueueOverflow:vector:starttime nan
scalar CompoundPacketQueueTutorialStep.queue droppedPacketLengthsQueueOverflow:vector:endtime nan
scalar CompoundPacketQueueTutorialStep.queue flowQueueingTime:vector:count 0
scalar CompoundPacketQueueTutorialStep.queue flowQueueingTime:vector:sum 0
scalar CompoundPacketQueueTutorialStep.queue flowQueueingTime:vector:sumweights 0
scalar CompoundPacketQueueTutorialStep.queue flowQueueingTime:vector:mean -nan
scalar CompoundPacketQueueTutorialStep.queue flowQueueingTime:vector:stddev nan
scalar CompoundPacketQueueTutorialStep.queue flowQueueingTime:vector:min inf
scalar CompoundPacketQueueTutorialStep.queue flowQueueingTime:vector:max -inf
scalar CompoundPacketQueueTutorialStep.queue flowQueueingTime:vector:starttime nan
scalar CompoundPacketQueueTutorialStep.queue flowQueueingTime:vector:endtime nan
scalar CompoundPacketQueueTutorialStep.queue flowIncomingDataRate:vector:count 100
scalar CompoundPacketQueueTutorialStep.queue flowIncomingDataRate:vector:sum 0
scalar CompoundPacketQueueTutorialStep.queue flowIncomingDataRate:vector:sumweights 100
scalar CompoundPacketQueueTutorialStep.queue flowIncomingDataRate:vector:mean 0
scalar CompoundPacketQueueTutorialStep.queue flowIncomingDataRate:vector:stddev 0
scalar CompoundPacketQueueTutorialStep.queue flowIncomingDataRate:vector:min 0
scalar CompoundPacketQueueTutorialStep.queue flowIncomingDataRate:vector:max 0
scalar CompoundPacketQueueTutorialStep.queue flowIncomingDataRate:vector:starttime 0.10000000000000001
scalar CompoundPacketQueueTutorialStep.queue flowIncomingDataRate:vector:endtime 10
scalar CompoundPacketQueueTutorialStep.queue flowOutgoingDataRate:vector:count 100
scalar CompoundPacketQueueTutorialStep.queue flowOutgoingDataRate:vector:sum 0
scalar CompoundPacketQueueTutorialStep.queue flowOutgoingDataRate:vector:sumweights 100
scalar CompoundPacketQueueTutorialStep.queue flowOutgoingDataRate:vector:mean 0
scalar CompoundPacketQueueTutorialStep.queue flowOutgoingDataRate:vector:stddev 0
scalar CompoundPacketQueueTutorialStep.queue flowOutgoingDataRate:vector:min 0
scalar CompoundPacketQueueTutorialStep.queue flowOutgoingDataRate:vector:max 0
scalar CompoundPacketQueueTutorialStep.queue flowOutgoingDataRate:vector:starttime 0.10000000000000001
scalar CompoundPacketQueueTutorialStep.queue flowOutgoingDataRate:vector:endtime 10
scalar CompoundPacketQueueTutorialStep.collector droppedPacketLengths:vector:count 8
scalar CompoundPacketQueueTutorialStep.collector droppedPacketLengths:vector:sum 64
scalar CompoundPacketQueueTutorialStep.collector droppedPacketLengths:vector:sumweights 8
scalar CompoundPacketQueueTutorialStep.collector droppedPacketLengths:vector:mean 8
scalar CompoundPacketQueueTutorialStep.collector droppedPacketLengths:vector:stddev 0
scalar CompoundPacketQueueTutorialStep.collector droppedPacketLengths:vector:min 8
scalar CompoundPacketQueueTutorialStep.collector droppedPacketLengths:vector:max 8
scalar CompoundPacketQueueTutorialStep.collector droppedPacketLengths:vector:starttime 0
scalar CompoundPacketQueueTutorialStep.collector droppedPacketLengths:vector:endtime 8.5650040367610014
scalar CompoundPacketQueueTutorialStep.collector droppedDataRate:vector:count 100
scalar CompoundPacketQueueTutorialStep.collector droppedDataRate:vector:sum 640
scalar CompoundPacketQueueTutorialStep.collector droppedDataRate:vector:sumweights 100
scalar CompoundPacketQueueTutorialStep.collector droppedDataRate:vector:mean 6.4000000000000004
scalar CompoundPacketQueueTutorialStep.collector droppedDataRate:vector:stddev 21.812793947543259
scalar CompoundPacketQueueTutorialStep.collector droppedDataRate:vector:min 0
scalar CompoundPacketQueueTutorialStep.collector droppedDataRate:vector:max 80
scalar CompoundPacketQueueTutorialStep.collector droppedDataRate:vector:starttime 0.10000000000000001
scalar CompoundPacketQueueTutorialStep.collector droppedDataRate:vector:endtime 10
scalar CompoundPacketQueueTutorialStep.collector packetLengths:vector:count 8
scalar CompoundPacketQueueTutorialStep.collector packetLengths:vector:sum 64
scalar CompoundPacketQueueTutorialStep.collector packetLengths:vector:sumweights 8
scalar CompoundPacketQueueTutorialStep.collector packetLengths:vector:mean 8
scalar CompoundPacketQueueTutorialStep.collector packetLengths:vector:stddev 0
scalar CompoundPacketQueueTutorialStep.collector packetLengths:vector:min 8
scalar CompoundPacketQueueTutorialStep.collector packetLengths:vector:max 8
scalar CompoundPacketQueueTutorialStep.collector packetLengths:vector:starttime 0
scalar CompoundPacketQueueTutorialStep.collector packetLengths:vector:endtime 8.5650040367610014
scalar CompoundPacketQueueTutorialStep.collector dataRate:vector:count 100
scalar CompoundPacketQueueTutorialStep.collector dataRate:vector:sum 640
scalar CompoundPacketQueueTutorialStep.collector dataRate:vector:sumweights 100
scalar CompoundPacketQueueTutorialStep.collector dataRate:vector:mean 6.4000000000000004
scalar CompoundPacketQueueTutorialStep.collector dataRate:vector:stddev 21.812793947543259
scalar CompoundPacketQueueTutorialStep.collector dataRate:vector:min 0
scalar CompoundPacketQueueTutorialStep.collector dataRate:vector:max 80
scalar CompoundPacketQueueTutorialStep.collector dataRate:vector:starttime 0.10000000000000001
scalar CompoundPacketQueueTutorialStep.collector dataRate:vector:endtime 10
scalar CompoundPacketQueueTutorialStep.collector meanBitLifeTimePerPacket:vector:count 8
scalar CompoundPacketQueueTutorialStep.collector meanBitLifeTimePerPacket:vector:sum 14.268929777661999
scalar CompoundPacketQueueTutorialStep.collector meanBitLifeTimePerPacket:vector:sumweights 8
scalar CompoundPacketQueueTutorialStep.collector meanBitLifeTimePerPacket:vector:mean 1.7836162222077498
scalar CompoundPacketQueueTutorialStep.collector meanBitLifeTimePerPacket:vector:stddev 2.5053159133759335
scalar CompoundPacketQueueTutorialStep.collector meanBitLifeTimePerPacket:vector:min 0
scalar CompoundPacketQueueTutorialStep.collector meanBitLifeTimePerPacket:vector:max 7.5650040367609996
scalar CompoundPacketQueueTutorialStep.collector meanBitLifeTimePerPacket:vector:starttime 0
scalar CompoundPacketQueueTutorialStep.collector meanBitLifeTimePerPacket:vector:endtime 8.5650040367610014
scalar CompoundPacketQueueTutorialStep.collector packetLifeTime:vector:count 8
scalar CompoundPacketQueueTutorialStep.collector packetLifeTime:vector:sum 14.268929777661999
scalar CompoundPacketQueueTutorialStep.collector packetLifeTime:vector:sumweights 8
scalar CompoundPacketQueueTutorialStep.collector packetLifeTime:vector:mean 1.7836162222077498
scalar CompoundPacketQueueTutorialStep.collector packetLifeTime:vector:stddev 2.5053159133759335
scalar CompoundPacketQueueTutorialStep.collector packetLifeTime:vector:min 0
scalar CompoundPacketQueueTutorialStep.collector packetLifeTime:vector:max 7.5650040367609996
scalar CompoundPacketQueueTutorialStep.collector packetLifeTime:vector:starttime 0
scalar CompoundPacketQueueTutorialStep.collector packetLifeTime:vector:endtime 8.5650040367610014
scalar CompoundPacketQueueTutorialStep.collector packetJitter:vector:count 8
scalar CompoundPacketQueueTutorialStep.collector packetJitter:vector:sum 7.5650040367609996
scalar CompoundPacketQueueTutorialStep.collector packetJitter:vector:sumweights 8
scalar CompoundPacketQueueTutorialStep.collector packetJitter:vector:mean 0.94562550459512495
scalar CompoundPacketQueueTutorialStep.collector packetJitter:vector:stddev 2.7241750343185025
scalar CompoundPacketQueueTutorialStep.collector packetJitter:vector:min -2.0176412356089997
scalar CompoundPacketQueueTutorialStep.collector packetJitter:vector:max 6.7999251843439996
scalar CompoundPacketQueueTutorialStep.collector packetJitter:vector:starttime 0
scalar CompoundPacketQueueTutorialStep.collector packetJitter:vector:endtime 8.5650040367610014
scalar CompoundPacketQueueTutorialStep.collector packetDelayDifferenceToMean:vector:count 8
scalar CompoundPacketQueueTutorialStep.collector packetDelayDifferenceToMean:vector:sum -7.4955918831080464
scalar CompoundPacketQueueTutorialStep.collector packetDelayDifferenceToMean:vector:sumweights 8
scalar CompoundPacketQueueTutorialStep.collector packetDelayDifferenceToMean:vector:mean -0.9369489853885058
scalar CompoundPacketQueueTutorialStep.collector packetDelayDifferenceToMean:vector:stddev 2.0799734170211366
scalar CompoundPacketQueueTutorialStep.collector packetDelayDifferenceToMean:vector:min -5.7813878145532502
scalar CompoundPacketQueueTutorialStep.collector packetDelayDifferenceToMean:vector:max 0.33113996583733318
scalar CompoundPacketQueueTutorialStep.collector packetDelayDifferenceToMean:vector:starttime 0
scalar CompoundPacketQueueTutorialStep.collector packetDelayDifferenceToMean:vector:endtime 8.5650040367610014
scalar CompoundPacketQueueTutorialStep.collector packetDelayVariation:vector:count 8
scalar CompoundPacketQueueTutorialStep.collector packetDelayVariation:vector:sum 10.119702191121256
scalar CompoundPacketQueueTutorialStep.collector packetDelayVariation:vector:sumweights 8
scalar CompoundPacketQueueTutorialStep.collector packetDelayVariation:vector:mean 1.264962773890157
scalar CompoundPacketQueueTutorialStep.collector packetDelayVariation:vector:stddev 1.5439143381532807
scalar CompoundPacketQueueTutorialStep.collector packetDelayVariation:vector:min 0
scalar CompoundPacketQueueTutorialStep.collector packetDelayVariation:vector:max 4.6827359484721924
scalar CompoundPacketQueueTutorialStep.collector packetDelayVariation:vector:starttime 0
scalar CompoundPacketQueueTutorialStep.collector packetDelayVariation:vector:endtime 8.5650040367610014

