version 3
run SignalBasedTokenGenerator-0-20250108-11:39:42-15600
attr configname SignalBasedTokenGenerator
attr datetime 20250108-11:39:42
attr datetimef 20250108-113942
attr experiment SignalBasedTokenGenerator
attr inifile omnetpp.ini
attr iterationvars ""
attr iterationvarsd ""
attr iterationvarsf ""
attr measurement ""
attr network SignalBasedTokenGeneratorTutorialStep
attr processid 15600
attr repetition 0
attr replication #0
attr resultdir results
attr runnumber 0
attr seedset 0
config **.param-recording false
config image-path /home/levy/workspace/inet/images
config output-scalar-file results/omnetpp.ini-SignalBasedTokenGenerator-#0.sca
config output-vector-file results/omnetpp.ini-SignalBasedTokenGenerator-#0.vec
config sim-time-limit 10s
config network SignalBasedTokenGeneratorTutorialStep
config sim-time-limit 10s
config *.provider.packetLength 1B
config *.provider.providingInterval 1s
config *.server.initialNumTokens 1

scalar SignalBasedTokenGeneratorTutorialStep.provider packets:count 11
scalar SignalBasedTokenGeneratorTutorialStep.provider packetLengths:sum 88
scalar SignalBasedTokenGeneratorTutorialStep.server numTokensDepleted:count 0
scalar SignalBasedTokenGeneratorTutorialStep.server removedTokens:sum 11
scalar SignalBasedTokenGeneratorTutorialStep.server addedTokens:sum 22
scalar SignalBasedTokenGeneratorTutorialStep.server incomingPackets:count 11
scalar SignalBasedTokenGeneratorTutorialStep.server incomingPacketLengths:sum 88
scalar SignalBasedTokenGeneratorTutorialStep.server outgoingPackets:count 11
scalar SignalBasedTokenGeneratorTutorialStep.server outgoingPacketLengths:sum 88
scalar SignalBasedTokenGeneratorTutorialStep.consumer packets:count 11
scalar SignalBasedTokenGeneratorTutorialStep.consumer packetLengths:sum 88
scalar SignalBasedTokenGeneratorTutorialStep.consumer droppedPackets:count 11
scalar SignalBasedTokenGeneratorTutorialStep.consumer droppedPacketLengths:sum 88
scalar SignalBasedTokenGeneratorTutorialStep.tokenGenerator tokensCreated:count 12
scalar SignalBasedTokenGeneratorTutorialStep.tokenGenerator numTokensCreated:sum 11
scalar SignalBasedTokenGeneratorTutorialStep.provider packetLengths:histogram:count 11
scalar SignalBasedTokenGeneratorTutorialStep.provider packetLengths:histogram:sumweights 11
scalar SignalBasedTokenGeneratorTutorialStep.provider packetLengths:histogram:mean 8
scalar SignalBasedTokenGeneratorTutorialStep.provider packetLengths:histogram:stddev 0
scalar SignalBasedTokenGeneratorTutorialStep.provider packetLengths:histogram:min 8
scalar SignalBasedTokenGeneratorTutorialStep.provider packetLengths:histogram:max 8
scalar SignalBasedTokenGeneratorTutorialStep.provider packetLengths:histogram:numbins 2
scalar SignalBasedTokenGeneratorTutorialStep.provider packetLengths:histogram:rangemin 7
scalar SignalBasedTokenGeneratorTutorialStep.provider packetLengths:histogram:rangemax 9
scalar SignalBasedTokenGeneratorTutorialStep.provider packetLengths:histogram:underflows 0
scalar SignalBasedTokenGeneratorTutorialStep.provider packetLengths:histogram:overflows 0
scalar SignalBasedTokenGeneratorTutorialStep.server incomingPacketLengths:histogram:count 11
scalar SignalBasedTokenGeneratorTutorialStep.server incomingPacketLengths:histogram:sumweights 11
scalar SignalBasedTokenGeneratorTutorialStep.server incomingPacketLengths:histogram:mean 8
scalar SignalBasedTokenGeneratorTutorialStep.server incomingPacketLengths:histogram:stddev 0
scalar SignalBasedTokenGeneratorTutorialStep.server incomingPacketLengths:histogram:min 8
scalar SignalBasedTokenGeneratorTutorialStep.server incomingPacketLengths:histogram:max 8
scalar SignalBasedTokenGeneratorTutorialStep.server incomingPacketLengths:histogram:numbins 2
scalar SignalBasedTokenGeneratorTutorialStep.server incomingPacketLengths:histogram:rangemin 7
scalar SignalBasedTokenGeneratorTutorialStep.server incomingPacketLengths:histogram:rangemax 9
scalar SignalBasedTokenGeneratorTutorialStep.server incomingPacketLengths:histogram:underflows 0
scalar SignalBasedTokenGeneratorTutorialStep.server incomingPacketLengths:histogram:overflows 0
scalar SignalBasedTokenGeneratorTutorialStep.server outgoingPacketLengths:histogram:count 11
scalar SignalBasedTokenGeneratorTutorialStep.server outgoingPacketLengths:histogram:sumweights 11
scalar SignalBasedTokenGeneratorTutorialStep.server outgoingPacketLengths:histogram:mean 8
scalar SignalBasedTokenGeneratorTutorialStep.server outgoingPacketLengths:histogram:stddev 0
scalar SignalBasedTokenGeneratorTutorialStep.server outgoingPacketLengths:histogram:min 8
scalar SignalBasedTokenGeneratorTutorialStep.server outgoingPacketLengths:histogram:max 8
scalar SignalBasedTokenGeneratorTutorialStep.server outgoingPacketLengths:histogram:numbins 2
scalar SignalBasedTokenGeneratorTutorialStep.server outgoingPacketLengths:histogram:rangemin 7
scalar SignalBasedTokenGeneratorTutorialStep.server outgoingPacketLengths:histogram:rangemax 9
scalar SignalBasedTokenGeneratorTutorialStep.server outgoingPacketLengths:histogram:underflows 0
scalar SignalBasedTokenGeneratorTutorialStep.server outgoingPacketLengths:histogram:overflows 0
scalar SignalBasedTokenGeneratorTutorialStep.consumer packetLengths:histogram:count 11
scalar SignalBasedTokenGeneratorTutorialStep.consumer packetLengths:histogram:sumweights 11
scalar SignalBasedTokenGeneratorTutorialStep.consumer packetLengths:histogram:mean 8
scalar SignalBasedTokenGeneratorTutorialStep.consumer packetLengths:histogram:stddev 0
scalar SignalBasedTokenGeneratorTutorialStep.consumer packetLengths:histogram:min 8
scalar SignalBasedTokenGeneratorTutorialStep.consumer packetLengths:histogram:max 8
scalar SignalBasedTokenGeneratorTutorialStep.consumer packetLengths:histogram:numbins 2
scalar SignalBasedTokenGeneratorTutorialStep.consumer packetLengths:histogram:rangemin 7
scalar SignalBasedTokenGeneratorTutorialStep.consumer packetLengths:histogram:rangemax 9
scalar SignalBasedTokenGeneratorTutorialStep.consumer packetLengths:histogram:underflows 0
scalar SignalBasedTokenGeneratorTutorialStep.consumer packetLengths:histogram:overflows 0
scalar SignalBasedTokenGeneratorTutorialStep.consumer meanBitLifeTimePerPacket:histogram:count 11
scalar SignalBasedTokenGeneratorTutorialStep.consumer meanBitLifeTimePerPacket:histogram:sumweights 11
scalar SignalBasedTokenGeneratorTutorialStep.consumer meanBitLifeTimePerPacket:histogram:mean 0
scalar SignalBasedTokenGeneratorTutorialStep.consumer meanBitLifeTimePerPacket:histogram:stddev 0
scalar SignalBasedTokenGeneratorTutorialStep.consumer meanBitLifeTimePerPacket:histogram:min 0
scalar SignalBasedTokenGeneratorTutorialStep.consumer meanBitLifeTimePerPacket:histogram:max 0
scalar SignalBasedTokenGeneratorTutorialStep.consumer meanBitLifeTimePerPacket:histogram:numbins 50
scalar SignalBasedTokenGeneratorTutorialStep.consumer meanBitLifeTimePerPacket:histogram:rangemin -0.5
scalar SignalBasedTokenGeneratorTutorialStep.consumer meanBitLifeTimePerPacket:histogram:rangemax 0.5
scalar SignalBasedTokenGeneratorTutorialStep.consumer meanBitLifeTimePerPacket:histogram:underflows 0
scalar SignalBasedTokenGeneratorTutorialStep.consumer meanBitLifeTimePerPacket:histogram:overflows 0
scalar SignalBasedTokenGeneratorTutorialStep.consumer packetJitter:histogram:count 11
scalar SignalBasedTokenGeneratorTutorialStep.consumer packetJitter:histogram:sumweights 11
scalar SignalBasedTokenGeneratorTutorialStep.consumer packetJitter:histogram:mean 0
scalar SignalBasedTokenGeneratorTutorialStep.consumer packetJitter:histogram:stddev 0
scalar SignalBasedTokenGeneratorTutorialStep.consumer packetJitter:histogram:min 0
scalar SignalBasedTokenGeneratorTutorialStep.consumer packetJitter:histogram:max 0
scalar SignalBasedTokenGeneratorTutorialStep.consumer packetJitter:histogram:numbins 50
scalar SignalBasedTokenGeneratorTutorialStep.consumer packetJitter:histogram:rangemin -0.5
scalar SignalBasedTokenGeneratorTutorialStep.consumer packetJitter:histogram:rangemax 0.5
scalar SignalBasedTokenGeneratorTutorialStep.consumer packetJitter:histogram:underflows 0
scalar SignalBasedTokenGeneratorTutorialStep.consumer packetJitter:histogram:overflows 0
scalar SignalBasedTokenGeneratorTutorialStep.consumer packetDelayDifferenceToMean:histogram:count 11
scalar SignalBasedTokenGeneratorTutorialStep.consumer packetDelayDifferenceToMean:histogram:sumweights 11
scalar SignalBasedTokenGeneratorTutorialStep.consumer packetDelayDifferenceToMean:histogram:mean 0
scalar SignalBasedTokenGeneratorTutorialStep.consumer packetDelayDifferenceToMean:histogram:stddev 0
scalar SignalBasedTokenGeneratorTutorialStep.consumer packetDelayDifferenceToMean:histogram:min 0
scalar SignalBasedTokenGeneratorTutorialStep.consumer packetDelayDifferenceToMean:histogram:max 0
scalar SignalBasedTokenGeneratorTutorialStep.consumer packetDelayDifferenceToMean:histogram:numbins 50
scalar SignalBasedTokenGeneratorTutorialStep.consumer packetDelayDifferenceToMean:histogram:rangemin -0.5
scalar SignalBasedTokenGeneratorTutorialStep.consumer packetDelayDifferenceToMean:histogram:rangemax 0.5
scalar SignalBasedTokenGeneratorTutorialStep.consumer packetDelayDifferenceToMean:histogram:underflows 0
scalar SignalBasedTokenGeneratorTutorialStep.consumer packetDelayDifferenceToMean:histogram:overflows 0
scalar SignalBasedTokenGeneratorTutorialStep.consumer packetDelayVariation:histogram:count 11
scalar SignalBasedTokenGeneratorTutorialStep.consumer packetDelayVariation:histogram:sumweights 11
scalar SignalBasedTokenGeneratorTutorialStep.consumer packetDelayVariation:histogram:mean 0
scalar SignalBasedTokenGeneratorTutorialStep.consumer packetDelayVariation:histogram:stddev 0
scalar SignalBasedTokenGeneratorTutorialStep.consumer packetDelayVariation:histogram:min 0
scalar SignalBasedTokenGeneratorTutorialStep.consumer packetDelayVariation:histogram:max 0
scalar SignalBasedTokenGeneratorTutorialStep.consumer packetDelayVariation:histogram:numbins 50
scalar SignalBasedTokenGeneratorTutorialStep.consumer packetDelayVariation:histogram:rangemin -0.5
scalar SignalBasedTokenGeneratorTutorialStep.consumer packetDelayVariation:histogram:rangemax 0.5
scalar SignalBasedTokenGeneratorTutorialStep.consumer packetDelayVariation:histogram:underflows 0
scalar SignalBasedTokenGeneratorTutorialStep.consumer packetDelayVariation:histogram:overflows 0
scalar SignalBasedTokenGeneratorTutorialStep.consumer droppedPacketLengths:histogram:count 11
scalar SignalBasedTokenGeneratorTutorialStep.consumer droppedPacketLengths:histogram:sumweights 11
scalar SignalBasedTokenGeneratorTutorialStep.consumer droppedPacketLengths:histogram:mean 8
scalar SignalBasedTokenGeneratorTutorialStep.consumer droppedPacketLengths:histogram:stddev 0
scalar SignalBasedTokenGeneratorTutorialStep.consumer droppedPacketLengths:histogram:min 8
scalar SignalBasedTokenGeneratorTutorialStep.consumer droppedPacketLengths:histogram:max 8
scalar SignalBasedTokenGeneratorTutorialStep.consumer droppedPacketLengths:histogram:numbins 2
scalar SignalBasedTokenGeneratorTutorialStep.consumer droppedPacketLengths:histogram:rangemin 7
scalar SignalBasedTokenGeneratorTutorialStep.consumer droppedPacketLengths:histogram:rangemax 9
scalar SignalBasedTokenGeneratorTutorialStep.consumer droppedPacketLengths:histogram:underflows 0
scalar SignalBasedTokenGeneratorTutorialStep.consumer droppedPacketLengths:histogram:overflows 0
statistic SignalBasedTokenGeneratorTutorialStep.provider packetLengths:histogram
field count 11
field mean 8
field stddev 0
field min 8
field max 8
field sum 88
field sqrsum 704
bin	-inf	0
bin	7	0
bin	8	11
bin	9	0
statistic SignalBasedTokenGeneratorTutorialStep.server incomingPacketLengths:histogram
field count 11
field mean 8
field stddev 0
field min 8
field max 8
field sum 88
field sqrsum 704
bin	-inf	0
bin	7	0
bin	8	11
bin	9	0
statistic SignalBasedTokenGeneratorTutorialStep.server outgoingPacketLengths:histogram
field count 11
field mean 8
field stddev 0
field min 8
field max 8
field sum 88
field sqrsum 704
bin	-inf	0
bin	7	0
bin	8	11
bin	9	0
statistic SignalBasedTokenGeneratorTutorialStep.consumer packetLengths:histogram
field count 11
field mean 8
field stddev 0
field min 8
field max 8
field sum 88
field sqrsum 704
bin	-inf	0
bin	7	0
bin	8	11
bin	9	0
statistic SignalBasedTokenGeneratorTutorialStep.consumer meanBitLifeTimePerPacket:histogram
field count 11
field mean 0
field stddev 0
field min 0
field max 0
field sum 0
field sqrsum 0
bin	-inf	0
bin	-0.5	0
bin	-0.48	0
bin	-0.46	0
bin	-0.44	0
bin	-0.42	0
bin	-0.4	0
bin	-0.38	0
bin	-0.36	0
bin	-0.34	0
bin	-0.32	0
bin	-0.3	0
bin	-0.28	0
bin	-0.26	0
bin	-0.24	0
bin	-0.22	0
bin	-0.2	0
bin	-0.18	0
bin	-0.16	0
bin	-0.14	0
bin	-0.12	0
bin	-0.1	0
bin	-0.08	0
bin	-0.06	0
bin	-0.04	0
bin	-0.02	0
bin	0	11
bin	0.02	0
bin	0.04	0
bin	0.06	0
bin	0.08	0
bin	0.1	0
bin	0.12	0
bin	0.14	0
bin	0.16	0
bin	0.18	0
bin	0.2	0
bin	0.22	0
bin	0.24	0
bin	0.26	0
bin	0.28	0
bin	0.3	0
bin	0.32	0
bin	0.34	0
bin	0.36	0
bin	0.38	0
bin	0.4	0
bin	0.42	0
bin	0.44	0
bin	0.46	0
bin	0.48	0
bin	0.5	0
statistic SignalBasedTokenGeneratorTutorialStep.consumer packetJitter:histogram
field count 11
field mean 0
field stddev 0
field min 0
field max 0
field sum 0
field sqrsum 0
bin	-inf	0
bin	-0.5	0
bin	-0.48	0
bin	-0.46	0
bin	-0.44	0
bin	-0.42	0
bin	-0.4	0
bin	-0.38	0
bin	-0.36	0
bin	-0.34	0
bin	-0.32	0
bin	-0.3	0
bin	-0.28	0
bin	-0.26	0
bin	-0.24	0
bin	-0.22	0
bin	-0.2	0
bin	-0.18	0
bin	-0.16	0
bin	-0.14	0
bin	-0.12	0
bin	-0.1	0
bin	-0.08	0
bin	-0.06	0
bin	-0.04	0
bin	-0.02	0
bin	0	11
bin	0.02	0
bin	0.04	0
bin	0.06	0
bin	0.08	0
bin	0.1	0
bin	0.12	0
bin	0.14	0
bin	0.16	0
bin	0.18	0
bin	0.2	0
bin	0.22	0
bin	0.24	0
bin	0.26	0
bin	0.28	0
bin	0.3	0
bin	0.32	0
bin	0.34	0
bin	0.36	0
bin	0.38	0
bin	0.4	0
bin	0.42	0
bin	0.44	0
bin	0.46	0
bin	0.48	0
bin	0.5	0
statistic SignalBasedTokenGeneratorTutorialStep.consumer packetDelayDifferenceToMean:histogram
field count 11
field mean 0
field stddev 0
field min 0
field max 0
field sum 0
field sqrsum 0
bin	-inf	0
bin	-0.5	0
bin	-0.48	0
bin	-0.46	0
bin	-0.44	0
bin	-0.42	0
bin	-0.4	0
bin	-0.38	0
bin	-0.36	0
bin	-0.34	0
bin	-0.32	0
bin	-0.3	0
bin	-0.28	0
bin	-0.26	0
bin	-0.24	0
bin	-0.22	0
bin	-0.2	0
bin	-0.18	0
bin	-0.16	0
bin	-0.14	0
bin	-0.12	0
bin	-0.1	0
bin	-0.08	0
bin	-0.06	0
bin	-0.04	0
bin	-0.02	0
bin	0	11
bin	0.02	0
bin	0.04	0
bin	0.06	0
bin	0.08	0
bin	0.1	0
bin	0.12	0
bin	0.14	0
bin	0.16	0
bin	0.18	0
bin	0.2	0
bin	0.22	0
bin	0.24	0
bin	0.26	0
bin	0.28	0
bin	0.3	0
bin	0.32	0
bin	0.34	0
bin	0.36	0
bin	0.38	0
bin	0.4	0
bin	0.42	0
bin	0.44	0
bin	0.46	0
bin	0.48	0
bin	0.5	0
statistic SignalBasedTokenGeneratorTutorialStep.consumer packetDelayVariation:histogram
field count 11
field mean 0
field stddev 0
field min 0
field max 0
field sum 0
field sqrsum 0
bin	-inf	0
bin	-0.5	0
bin	-0.48	0
bin	-0.46	0
bin	-0.44	0
bin	-0.42	0
bin	-0.4	0
bin	-0.38	0
bin	-0.36	0
bin	-0.34	0
bin	-0.32	0
bin	-0.3	0
bin	-0.28	0
bin	-0.26	0
bin	-0.24	0
bin	-0.22	0
bin	-0.2	0
bin	-0.18	0
bin	-0.16	0
bin	-0.14	0
bin	-0.12	0
bin	-0.1	0
bin	-0.08	0
bin	-0.06	0
bin	-0.04	0
bin	-0.02	0
bin	0	11
bin	0.02	0
bin	0.04	0
bin	0.06	0
bin	0.08	0
bin	0.1	0
bin	0.12	0
bin	0.14	0
bin	0.16	0
bin	0.18	0
bin	0.2	0
bin	0.22	0
bin	0.24	0
bin	0.26	0
bin	0.28	0
bin	0.3	0
bin	0.32	0
bin	0.34	0
bin	0.36	0
bin	0.38	0
bin	0.4	0
bin	0.42	0
bin	0.44	0
bin	0.46	0
bin	0.48	0
bin	0.5	0
statistic SignalBasedTokenGeneratorTutorialStep.consumer droppedPacketLengths:histogram
field count 11
field mean 8
field stddev 0
field min 8
field max 8
field sum 88
field sqrsum 704
bin	-inf	0
bin	7	0
bin	8	11
bin	9	0
scalar SignalBasedTokenGeneratorTutorialStep.provider packetLengths:vector:count 11
scalar SignalBasedTokenGeneratorTutorialStep.provider packetLengths:vector:sum 88
scalar SignalBasedTokenGeneratorTutorialStep.provider packetLengths:vector:sumweights 11
scalar SignalBasedTokenGeneratorTutorialStep.provider packetLengths:vector:mean 8
scalar SignalBasedTokenGeneratorTutorialStep.provider packetLengths:vector:stddev 0
scalar SignalBasedTokenGeneratorTutorialStep.provider packetLengths:vector:min 8
scalar SignalBasedTokenGeneratorTutorialStep.provider packetLengths:vector:max 8
scalar SignalBasedTokenGeneratorTutorialStep.provider packetLengths:vector:starttime 0
scalar SignalBasedTokenGeneratorTutorialStep.provider packetLengths:vector:endtime 10
scalar SignalBasedTokenGeneratorTutorialStep.provider dataRate:vector:count 100
scalar SignalBasedTokenGeneratorTutorialStep.provider dataRate:vector:sum 800
scalar SignalBasedTokenGeneratorTutorialStep.provider dataRate:vector:sumweights 100
scalar SignalBasedTokenGeneratorTutorialStep.provider dataRate:vector:mean 8
scalar SignalBasedTokenGeneratorTutorialStep.provider dataRate:vector:stddev 24.120907566221
scalar SignalBasedTokenGeneratorTutorialStep.provider dataRate:vector:min 0
scalar SignalBasedTokenGeneratorTutorialStep.provider dataRate:vector:max 80
scalar SignalBasedTokenGeneratorTutorialStep.provider dataRate:vector:starttime 0.1
scalar SignalBasedTokenGeneratorTutorialStep.provider dataRate:vector:endtime 10
scalar SignalBasedTokenGeneratorTutorialStep.server incomingPacketLengths:vector:count 11
scalar SignalBasedTokenGeneratorTutorialStep.server incomingPacketLengths:vector:sum 88
scalar SignalBasedTokenGeneratorTutorialStep.server incomingPacketLengths:vector:sumweights 11
scalar SignalBasedTokenGeneratorTutorialStep.server incomingPacketLengths:vector:mean 8
scalar SignalBasedTokenGeneratorTutorialStep.server incomingPacketLengths:vector:stddev 0
scalar SignalBasedTokenGeneratorTutorialStep.server incomingPacketLengths:vector:min 8
scalar SignalBasedTokenGeneratorTutorialStep.server incomingPacketLengths:vector:max 8
scalar SignalBasedTokenGeneratorTutorialStep.server incomingPacketLengths:vector:starttime 0
scalar SignalBasedTokenGeneratorTutorialStep.server incomingPacketLengths:vector:endtime 10
scalar SignalBasedTokenGeneratorTutorialStep.server incomingDataRate:vector:count 100
scalar SignalBasedTokenGeneratorTutorialStep.server incomingDataRate:vector:sum 800
scalar SignalBasedTokenGeneratorTutorialStep.server incomingDataRate:vector:sumweights 100
scalar SignalBasedTokenGeneratorTutorialStep.server incomingDataRate:vector:mean 8
scalar SignalBasedTokenGeneratorTutorialStep.server incomingDataRate:vector:stddev 24.120907566221
scalar SignalBasedTokenGeneratorTutorialStep.server incomingDataRate:vector:min 0
scalar SignalBasedTokenGeneratorTutorialStep.server incomingDataRate:vector:max 80
scalar SignalBasedTokenGeneratorTutorialStep.server incomingDataRate:vector:starttime 0.1
scalar SignalBasedTokenGeneratorTutorialStep.server incomingDataRate:vector:endtime 10
scalar SignalBasedTokenGeneratorTutorialStep.server outgoingPacketLengths:vector:count 11
scalar SignalBasedTokenGeneratorTutorialStep.server outgoingPacketLengths:vector:sum 88
scalar SignalBasedTokenGeneratorTutorialStep.server outgoingPacketLengths:vector:sumweights 11
scalar SignalBasedTokenGeneratorTutorialStep.server outgoingPacketLengths:vector:mean 8
scalar SignalBasedTokenGeneratorTutorialStep.server outgoingPacketLengths:vector:stddev 0
scalar SignalBasedTokenGeneratorTutorialStep.server outgoingPacketLengths:vector:min 8
scalar SignalBasedTokenGeneratorTutorialStep.server outgoingPacketLengths:vector:max 8
scalar SignalBasedTokenGeneratorTutorialStep.server outgoingPacketLengths:vector:starttime 0
scalar SignalBasedTokenGeneratorTutorialStep.server outgoingPacketLengths:vector:endtime 10
scalar SignalBasedTokenGeneratorTutorialStep.server outgoingDataRate:vector:count 100
scalar SignalBasedTokenGeneratorTutorialStep.server outgoingDataRate:vector:sum 800
scalar SignalBasedTokenGeneratorTutorialStep.server outgoingDataRate:vector:sumweights 100
scalar SignalBasedTokenGeneratorTutorialStep.server outgoingDataRate:vector:mean 8
scalar SignalBasedTokenGeneratorTutorialStep.server outgoingDataRate:vector:stddev 24.120907566221
scalar SignalBasedTokenGeneratorTutorialStep.server outgoingDataRate:vector:min 0
scalar SignalBasedTokenGeneratorTutorialStep.server outgoingDataRate:vector:max 80
scalar SignalBasedTokenGeneratorTutorialStep.server outgoingDataRate:vector:starttime 0.1
scalar SignalBasedTokenGeneratorTutorialStep.server outgoingDataRate:vector:endtime 10
scalar SignalBasedTokenGeneratorTutorialStep.server numTokens:vector:count 24
scalar SignalBasedTokenGeneratorTutorialStep.server numTokens:vector:sum 143
scalar SignalBasedTokenGeneratorTutorialStep.server numTokens:vector:sumweights 24
scalar SignalBasedTokenGeneratorTutorialStep.server numTokens:vector:mean 5.9583333333333
scalar SignalBasedTokenGeneratorTutorialStep.server numTokens:vector:stddev 3.6293389824148
scalar SignalBasedTokenGeneratorTutorialStep.server numTokens:vector:min 0
scalar SignalBasedTokenGeneratorTutorialStep.server numTokens:vector:max 12
scalar SignalBasedTokenGeneratorTutorialStep.server numTokens:vector:starttime 0
scalar SignalBasedTokenGeneratorTutorialStep.server numTokens:vector:endtime 10
scalar SignalBasedTokenGeneratorTutorialStep.consumer droppedPacketLengths:vector:count 11
scalar SignalBasedTokenGeneratorTutorialStep.consumer droppedPacketLengths:vector:sum 88
scalar SignalBasedTokenGeneratorTutorialStep.consumer droppedPacketLengths:vector:sumweights 11
scalar SignalBasedTokenGeneratorTutorialStep.consumer droppedPacketLengths:vector:mean 8
scalar SignalBasedTokenGeneratorTutorialStep.consumer droppedPacketLengths:vector:stddev 0
scalar SignalBasedTokenGeneratorTutorialStep.consumer droppedPacketLengths:vector:min 8
scalar SignalBasedTokenGeneratorTutorialStep.consumer droppedPacketLengths:vector:max 8
scalar SignalBasedTokenGeneratorTutorialStep.consumer droppedPacketLengths:vector:starttime 0
scalar SignalBasedTokenGeneratorTutorialStep.consumer droppedPacketLengths:vector:endtime 10
scalar SignalBasedTokenGeneratorTutorialStep.consumer droppedDataRate:vector:count 100
scalar SignalBasedTokenGeneratorTutorialStep.consumer droppedDataRate:vector:sum 800
scalar SignalBasedTokenGeneratorTutorialStep.consumer droppedDataRate:vector:sumweights 100
scalar SignalBasedTokenGeneratorTutorialStep.consumer droppedDataRate:vector:mean 8
scalar SignalBasedTokenGeneratorTutorialStep.consumer droppedDataRate:vector:stddev 24.120907566221
scalar SignalBasedTokenGeneratorTutorialStep.consumer droppedDataRate:vector:min 0
scalar SignalBasedTokenGeneratorTutorialStep.consumer droppedDataRate:vector:max 80
scalar SignalBasedTokenGeneratorTutorialStep.consumer droppedDataRate:vector:starttime 0.1
scalar SignalBasedTokenGeneratorTutorialStep.consumer droppedDataRate:vector:endtime 10
scalar SignalBasedTokenGeneratorTutorialStep.consumer packetLengths:vector:count 11
scalar SignalBasedTokenGeneratorTutorialStep.consumer packetLengths:vector:sum 88
scalar SignalBasedTokenGeneratorTutorialStep.consumer packetLengths:vector:sumweights 11
scalar SignalBasedTokenGeneratorTutorialStep.consumer packetLengths:vector:mean 8
scalar SignalBasedTokenGeneratorTutorialStep.consumer packetLengths:vector:stddev 0
scalar SignalBasedTokenGeneratorTutorialStep.consumer packetLengths:vector:min 8
scalar SignalBasedTokenGeneratorTutorialStep.consumer packetLengths:vector:max 8
scalar SignalBasedTokenGeneratorTutorialStep.consumer packetLengths:vector:starttime 0
scalar SignalBasedTokenGeneratorTutorialStep.consumer packetLengths:vector:endtime 10
scalar SignalBasedTokenGeneratorTutorialStep.consumer dataRate:vector:count 100
scalar SignalBasedTokenGeneratorTutorialStep.consumer dataRate:vector:sum 800
scalar SignalBasedTokenGeneratorTutorialStep.consumer dataRate:vector:sumweights 100
scalar SignalBasedTokenGeneratorTutorialStep.consumer dataRate:vector:mean 8
scalar SignalBasedTokenGeneratorTutorialStep.consumer dataRate:vector:stddev 24.120907566221
scalar SignalBasedTokenGeneratorTutorialStep.consumer dataRate:vector:min 0
scalar SignalBasedTokenGeneratorTutorialStep.consumer dataRate:vector:max 80
scalar SignalBasedTokenGeneratorTutorialStep.consumer dataRate:vector:starttime 0.1
scalar SignalBasedTokenGeneratorTutorialStep.consumer dataRate:vector:endtime 10
scalar SignalBasedTokenGeneratorTutorialStep.consumer meanBitLifeTimePerPacket:vector:count 11
scalar SignalBasedTokenGeneratorTutorialStep.consumer meanBitLifeTimePerPacket:vector:sum 0
scalar SignalBasedTokenGeneratorTutorialStep.consumer meanBitLifeTimePerPacket:vector:sumweights 11
scalar SignalBasedTokenGeneratorTutorialStep.consumer meanBitLifeTimePerPacket:vector:mean 0
scalar SignalBasedTokenGeneratorTutorialStep.consumer meanBitLifeTimePerPacket:vector:stddev 0
scalar SignalBasedTokenGeneratorTutorialStep.consumer meanBitLifeTimePerPacket:vector:min 0
scalar SignalBasedTokenGeneratorTutorialStep.consumer meanBitLifeTimePerPacket:vector:max 0
scalar SignalBasedTokenGeneratorTutorialStep.consumer meanBitLifeTimePerPacket:vector:starttime 0
scalar SignalBasedTokenGeneratorTutorialStep.consumer meanBitLifeTimePerPacket:vector:endtime 10
scalar SignalBasedTokenGeneratorTutorialStep.consumer packetJitter:vector:count 11
scalar SignalBasedTokenGeneratorTutorialStep.consumer packetJitter:vector:sum 0
scalar SignalBasedTokenGeneratorTutorialStep.consumer packetJitter:vector:sumweights 11
scalar SignalBasedTokenGeneratorTutorialStep.consumer packetJitter:vector:mean 0
scalar SignalBasedTokenGeneratorTutorialStep.consumer packetJitter:vector:stddev 0
scalar SignalBasedTokenGeneratorTutorialStep.consumer packetJitter:vector:min 0
scalar SignalBasedTokenGeneratorTutorialStep.consumer packetJitter:vector:max 0
scalar SignalBasedTokenGeneratorTutorialStep.consumer packetJitter:vector:starttime 0
scalar SignalBasedTokenGeneratorTutorialStep.consumer packetJitter:vector:endtime 10
scalar SignalBasedTokenGeneratorTutorialStep.consumer packetDelayDifferenceToMean:vector:count 11
scalar SignalBasedTokenGeneratorTutorialStep.consumer packetDelayDifferenceToMean:vector:sum 0
scalar SignalBasedTokenGeneratorTutorialStep.consumer packetDelayDifferenceToMean:vector:sumweights 11
scalar SignalBasedTokenGeneratorTutorialStep.consumer packetDelayDifferenceToMean:vector:mean 0
scalar SignalBasedTokenGeneratorTutorialStep.consumer packetDelayDifferenceToMean:vector:stddev 0
scalar SignalBasedTokenGeneratorTutorialStep.consumer packetDelayDifferenceToMean:vector:min 0
scalar SignalBasedTokenGeneratorTutorialStep.consumer packetDelayDifferenceToMean:vector:max 0
scalar SignalBasedTokenGeneratorTutorialStep.consumer packetDelayDifferenceToMean:vector:starttime 0
scalar SignalBasedTokenGeneratorTutorialStep.consumer packetDelayDifferenceToMean:vector:endtime 10
scalar SignalBasedTokenGeneratorTutorialStep.consumer packetDelayVariation:vector:count 11
scalar SignalBasedTokenGeneratorTutorialStep.consumer packetDelayVariation:vector:sum 0
scalar SignalBasedTokenGeneratorTutorialStep.consumer packetDelayVariation:vector:sumweights 11
scalar SignalBasedTokenGeneratorTutorialStep.consumer packetDelayVariation:vector:mean 0
scalar SignalBasedTokenGeneratorTutorialStep.consumer packetDelayVariation:vector:stddev 0
scalar SignalBasedTokenGeneratorTutorialStep.consumer packetDelayVariation:vector:min 0
scalar SignalBasedTokenGeneratorTutorialStep.consumer packetDelayVariation:vector:max 0
scalar SignalBasedTokenGeneratorTutorialStep.consumer packetDelayVariation:vector:starttime 0
scalar SignalBasedTokenGeneratorTutorialStep.consumer packetDelayVariation:vector:endtime 10
scalar SignalBasedTokenGeneratorTutorialStep.tokenGenerator numTokensCreated:vector:count 11
scalar SignalBasedTokenGeneratorTutorialStep.tokenGenerator numTokensCreated:vector:sum 11
scalar SignalBasedTokenGeneratorTutorialStep.tokenGenerator numTokensCreated:vector:sumweights 11
scalar SignalBasedTokenGeneratorTutorialStep.tokenGenerator numTokensCreated:vector:mean 1
scalar SignalBasedTokenGeneratorTutorialStep.tokenGenerator numTokensCreated:vector:stddev 0
scalar SignalBasedTokenGeneratorTutorialStep.tokenGenerator numTokensCreated:vector:min 1
scalar SignalBasedTokenGeneratorTutorialStep.tokenGenerator numTokensCreated:vector:max 1
scalar SignalBasedTokenGeneratorTutorialStep.tokenGenerator numTokensCreated:vector:starttime 0
scalar SignalBasedTokenGeneratorTutorialStep.tokenGenerator numTokensCreated:vector:endtime 10

