version 3
run Delayer-0-20250108-11:39:26-15335
attr configname Delayer
attr datetime 20250108-11:39:26
attr datetimef 20250108-113926
attr experiment Delayer
attr inifile omnetpp.ini
attr iterationvars ""
attr iterationvarsd ""
attr iterationvarsf ""
attr measurement ""
attr network DelayerTutorialStep
attr processid 15335
attr repetition 0
attr replication #0
attr resultdir results
attr runnumber 0
attr seedset 0
config **.param-recording false
config image-path /home/levy/workspace/inet/images
config output-scalar-file results/omnetpp.ini-Delayer-#0.sca
config output-vector-file results/omnetpp.ini-Delayer-#0.vec
config sim-time-limit 10s
config network DelayerTutorialStep
config sim-time-limit 10s
config *.producer.packetLength 1B
config *.producer.productionInterval 1s
config *.delayer.delay "uniform(0s, 2s)"

scalar DelayerTutorialStep.producer packets:count 11
scalar DelayerTutorialStep.producer packetLengths:sum 88
scalar DelayerTutorialStep.consumer packets:count 9
scalar DelayerTutorialStep.consumer packetLengths:sum 72
scalar DelayerTutorialStep.consumer droppedPackets:count 9
scalar DelayerTutorialStep.consumer droppedPacketLengths:sum 72
scalar DelayerTutorialStep.producer packetLengths:histogram:count 11
scalar DelayerTutorialStep.producer packetLengths:histogram:sumweights 11
scalar DelayerTutorialStep.producer packetLengths:histogram:mean 8
scalar DelayerTutorialStep.producer packetLengths:histogram:stddev 0
scalar DelayerTutorialStep.producer packetLengths:histogram:min 8
scalar DelayerTutorialStep.producer packetLengths:histogram:max 8
scalar DelayerTutorialStep.producer packetLengths:histogram:numbins 2
scalar DelayerTutorialStep.producer packetLengths:histogram:rangemin 7
scalar DelayerTutorialStep.producer packetLengths:histogram:rangemax 9
scalar DelayerTutorialStep.producer packetLengths:histogram:underflows 0
scalar DelayerTutorialStep.producer packetLengths:histogram:overflows 0
scalar DelayerTutorialStep.consumer packetLengths:histogram:count 9
scalar DelayerTutorialStep.consumer packetLengths:histogram:sumweights 9
scalar DelayerTutorialStep.consumer packetLengths:histogram:mean 8
scalar DelayerTutorialStep.consumer packetLengths:histogram:stddev 0
scalar DelayerTutorialStep.consumer packetLengths:histogram:min 8
scalar DelayerTutorialStep.consumer packetLengths:histogram:max 8
scalar DelayerTutorialStep.consumer packetLengths:histogram:numbins 2
scalar DelayerTutorialStep.consumer packetLengths:histogram:rangemin 7
scalar DelayerTutorialStep.consumer packetLengths:histogram:rangemax 9
scalar DelayerTutorialStep.consumer packetLengths:histogram:underflows 0
scalar DelayerTutorialStep.consumer packetLengths:histogram:overflows 0
scalar DelayerTutorialStep.consumer meanBitLifeTimePerPacket:histogram:count 9
scalar DelayerTutorialStep.consumer meanBitLifeTimePerPacket:histogram:sumweights 9
scalar DelayerTutorialStep.consumer meanBitLifeTimePerPacket:histogram:mean 1.3283582065359
scalar DelayerTutorialStep.consumer meanBitLifeTimePerPacket:histogram:stddev 0.31650235414306
scalar DelayerTutorialStep.consumer meanBitLifeTimePerPacket:histogram:min 0.847309593577
scalar DelayerTutorialStep.consumer meanBitLifeTimePerPacket:histogram:max 1.715891239699
scalar DelayerTutorialStep.consumer meanBitLifeTimePerPacket:histogram:numbins 66
scalar DelayerTutorialStep.consumer meanBitLifeTimePerPacket:histogram:rangemin 0.62
scalar DelayerTutorialStep.consumer meanBitLifeTimePerPacket:histogram:rangemax 1.94
scalar DelayerTutorialStep.consumer meanBitLifeTimePerPacket:histogram:underflows 0
scalar DelayerTutorialStep.consumer meanBitLifeTimePerPacket:histogram:overflows 0
scalar DelayerTutorialStep.consumer packetJitter:histogram:count 9
scalar DelayerTutorialStep.consumer packetJitter:histogram:sumweights 9
scalar DelayerTutorialStep.consumer packetJitter:histogram:mean 0.094145510397444
scalar DelayerTutorialStep.consumer packetJitter:histogram:stddev 0.63526842112038
scalar DelayerTutorialStep.consumer packetJitter:histogram:min -0.847193880938
scalar DelayerTutorialStep.consumer packetJitter:histogram:max 1.097627004609
scalar DelayerTutorialStep.consumer packetJitter:histogram:numbins 59
scalar DelayerTutorialStep.consumer packetJitter:histogram:rangemin -1.35
scalar DelayerTutorialStep.consumer packetJitter:histogram:rangemax 1.6
scalar DelayerTutorialStep.consumer packetJitter:histogram:underflows 0
scalar DelayerTutorialStep.consumer packetJitter:histogram:overflows 0
scalar DelayerTutorialStep.consumer packetDelayDifferenceToMean:histogram:count 9
scalar DelayerTutorialStep.consumer packetDelayDifferenceToMean:histogram:sumweights 9
scalar DelayerTutorialStep.consumer packetDelayDifferenceToMean:histogram:mean -0.039670958609952
scalar DelayerTutorialStep.consumer packetDelayDifferenceToMean:histogram:stddev 0.28517144230034
scalar DelayerTutorialStep.consumer packetDelayDifferenceToMean:histogram:min -0.3379748743025
scalar DelayerTutorialStep.consumer packetDelayDifferenceToMean:histogram:max 0.48104861295889
scalar DelayerTutorialStep.consumer packetDelayDifferenceToMean:histogram:numbins 63
scalar DelayerTutorialStep.consumer packetDelayDifferenceToMean:histogram:rangemin -0.56
scalar DelayerTutorialStep.consumer packetDelayDifferenceToMean:histogram:rangemax 0.7
scalar DelayerTutorialStep.consumer packetDelayDifferenceToMean:histogram:underflows 0
scalar DelayerTutorialStep.consumer packetDelayDifferenceToMean:histogram:overflows 0
scalar DelayerTutorialStep.consumer packetDelayVariation:histogram:count 9
scalar DelayerTutorialStep.consumer packetDelayVariation:histogram:sumweights 9
scalar DelayerTutorialStep.consumer packetDelayVariation:histogram:mean 0.23163250602928
scalar DelayerTutorialStep.consumer packetDelayVariation:histogram:stddev 0.11769194978946
scalar DelayerTutorialStep.consumer packetDelayVariation:histogram:min -0
scalar DelayerTutorialStep.consumer packetDelayVariation:histogram:max 0.33487107397497
scalar DelayerTutorialStep.consumer packetDelayVariation:histogram:numbins 84
scalar DelayerTutorialStep.consumer packetDelayVariation:histogram:rangemin 0
scalar DelayerTutorialStep.consumer packetDelayVariation:histogram:rangemax 0.42
scalar DelayerTutorialStep.consumer packetDelayVariation:histogram:underflows 0
scalar DelayerTutorialStep.consumer packetDelayVariation:histogram:overflows 0
scalar DelayerTutorialStep.consumer droppedPacketLengths:histogram:count 9
scalar DelayerTutorialStep.consumer droppedPacketLengths:histogram:sumweights 9
scalar DelayerTutorialStep.consumer droppedPacketLengths:histogram:mean 8
scalar DelayerTutorialStep.consumer droppedPacketLengths:histogram:stddev 0
scalar DelayerTutorialStep.consumer droppedPacketLengths:histogram:min 8
scalar DelayerTutorialStep.consumer droppedPacketLengths:histogram:max 8
scalar DelayerTutorialStep.consumer droppedPacketLengths:histogram:numbins 2
scalar DelayerTutorialStep.consumer droppedPacketLengths:histogram:rangemin 7
scalar DelayerTutorialStep.consumer droppedPacketLengths:histogram:rangemax 9
scalar DelayerTutorialStep.consumer droppedPacketLengths:histogram:underflows 0
scalar DelayerTutorialStep.consumer droppedPacketLengths:histogram:overflows 0
statistic DelayerTutorialStep.producer packetLengths:histogram
field count 11
field mean 8
field stddev 0
field min 8
field max 8
field sum 88
field sqrsum 704
bin	-inf	0
bin	7	0
bin	8	11
bin	9	0
statistic DelayerTutorialStep.consumer packetLengths:histogram
field count 9
field mean 8
field stddev 0
field min 8
field max 8
field sum 72
field sqrsum 576
bin	-inf	0
bin	7	0
bin	8	9
bin	9	0
statistic DelayerTutorialStep.consumer meanBitLifeTimePerPacket:histogram
field count 9
field mean 1.3283582065359
field stddev 0.31650235414306
field min 0.847309593577
field max 1.715891239699
field sum 11.955223858823
field sqrsum 16.682209645266
bin	-inf	0
bin	0.62	0
bin	0.64	0
bin	0.66	0
bin	0.68	0
bin	0.7	0
bin	0.72	0
bin	0.74	0
bin	0.76	0
bin	0.78	0
bin	0.8	0
bin	0.82	0
bin	0.84	1
bin	0.86	0
bin	0.88	0
bin	0.9	0
bin	0.92	0
bin	0.94	0
bin	0.96	0
bin	0.98	0
bin	1	0
bin	1.02	0
bin	1.04	0
bin	1.06	0
bin	1.08	2
bin	1.1	0
bin	1.12	0
bin	1.14	0
bin	1.16	0
bin	1.18	1
bin	1.2	1
bin	1.22	0
bin	1.24	0
bin	1.26	0
bin	1.28	0
bin	1.3	0
bin	1.32	0
bin	1.34	0
bin	1.36	0
bin	1.38	0
bin	1.4	0
bin	1.42	1
bin	1.44	0
bin	1.46	0
bin	1.48	0
bin	1.5	0
bin	1.52	0
bin	1.54	0
bin	1.56	0
bin	1.58	0
bin	1.6	0
bin	1.62	0
bin	1.64	0
bin	1.66	0
bin	1.68	2
bin	1.7	1
bin	1.72	0
bin	1.74	0
bin	1.76	0
bin	1.78	0
bin	1.8	0
bin	1.82	0
bin	1.84	0
bin	1.86	0
bin	1.88	0
bin	1.9	0
bin	1.92	0
bin	1.94	0
statistic DelayerTutorialStep.consumer packetJitter:histogram
field count 9
field mean 0.094145510397444
field stddev 0.63526842112038
field min -0.847193880938
field max 1.097627004609
field sum 0.847309593577
field sqrsum 3.3082981291342
bin	-inf	0
bin	-1.35	0
bin	-1.3	0
bin	-1.25	0
bin	-1.2	0
bin	-1.15	0
bin	-1.1	0
bin	-1.05	0
bin	-1	0
bin	-0.95	0
bin	-0.9	0
bin	-0.85	1
bin	-0.8	0
bin	-0.75	0
bin	-0.7	0
bin	-0.65	1
bin	-0.6	0
bin	-0.55	0
bin	-0.5	1
bin	-0.45	0
bin	-0.4	0
bin	-0.35	0
bin	-0.3	0
bin	-0.25	0
bin	-0.2	0
bin	-0.15	0
bin	-0.1	0
bin	-0.05	0
bin	0	0
bin	0.05	1
bin	0.1	0
bin	0.15	0
bin	0.2	1
bin	0.25	1
bin	0.3	0
bin	0.35	0
bin	0.4	0
bin	0.45	0
bin	0.5	1
bin	0.55	0
bin	0.6	1
bin	0.65	0
bin	0.7	0
bin	0.75	0
bin	0.8	0
bin	0.85	0
bin	0.9	0
bin	0.95	0
bin	1	0
bin	1.05	1
bin	1.1	0
bin	1.15	0
bin	1.2	0
bin	1.25	0
bin	1.3	0
bin	1.35	0
bin	1.4	0
bin	1.45	0
bin	1.5	0
bin	1.55	0
bin	1.6	0
statistic DelayerTutorialStep.consumer packetDelayDifferenceToMean:histogram
field count 9
field mean -0.039670958609952
field stddev 0.28517144230034
field min -0.3379748743025
field max 0.48104861295889
field sum -0.35703862748957
field sqrsum 0.66474607664252
bin	-inf	0
bin	-0.56	0
bin	-0.54	0
bin	-0.52	0
bin	-0.5	0
bin	-0.48	0
bin	-0.46	0
bin	-0.44	0
bin	-0.42	0
bin	-0.4	0
bin	-0.38	0
bin	-0.36	0
bin	-0.34	2
bin	-0.32	1
bin	-0.3	0
bin	-0.28	0
bin	-0.26	0
bin	-0.24	0
bin	-0.22	0
bin	-0.2	1
bin	-0.18	0
bin	-0.16	0
bin	-0.14	0
bin	-0.12	0
bin	-0.1	0
bin	-0.08	0
bin	-0.06	1
bin	-0.04	0
bin	-0.02	0
bin	0	1
bin	0.02	0
bin	0.04	0
bin	0.06	0
bin	0.08	0
bin	0.1	1
bin	0.12	0
bin	0.14	0
bin	0.16	0
bin	0.18	0
bin	0.2	0
bin	0.22	0
bin	0.24	1
bin	0.26	0
bin	0.28	0
bin	0.3	0
bin	0.32	0
bin	0.34	0
bin	0.36	0
bin	0.38	0
bin	0.4	0
bin	0.42	0
bin	0.44	0
bin	0.46	0
bin	0.48	1
bin	0.5	0
bin	0.52	0
bin	0.54	0
bin	0.56	0
bin	0.58	0
bin	0.6	0
bin	0.62	0
bin	0.64	0
bin	0.66	0
bin	0.68	0
bin	0.7	0
statistic DelayerTutorialStep.consumer packetDelayVariation:histogram
field count 9
field mean 0.23163250602928
field stddev 0.11769194978946
field min -0
field max 0.33487107397497
field sum 2.0846925542635
field sqrsum 0.59369372100658
bin	-inf	0
bin	0	1
bin	0.005	0
bin	0.01	0
bin	0.015	0
bin	0.02	0
bin	0.025	0
bin	0.03	0
bin	0.035	0
bin	0.04	0
bin	0.045	0
bin	0.05	0
bin	0.055	0
bin	0.06	0
bin	0.065	0
bin	0.07	1
bin	0.075	0
bin	0.08	0
bin	0.085	0
bin	0.09	0
bin	0.095	0
bin	0.1	0
bin	0.105	0
bin	0.11	0
bin	0.115	0
bin	0.12	0
bin	0.125	0
bin	0.13	0
bin	0.135	0
bin	0.14	0
bin	0.145	0
bin	0.15	0
bin	0.155	0
bin	0.16	0
bin	0.165	0
bin	0.17	0
bin	0.175	0
bin	0.18	0
bin	0.185	0
bin	0.19	0
bin	0.195	0
bin	0.2	1
bin	0.205	0
bin	0.21	0
bin	0.215	0
bin	0.22	0
bin	0.225	0
bin	0.23	0
bin	0.235	0
bin	0.24	0
bin	0.245	0
bin	0.25	0
bin	0.255	0
bin	0.26	0
bin	0.265	1
bin	0.27	0
bin	0.275	0
bin	0.28	0
bin	0.285	0
bin	0.29	1
bin	0.295	1
bin	0.3	1
bin	0.305	0
bin	0.31	0
bin	0.315	1
bin	0.32	0
bin	0.325	0
bin	0.33	1
bin	0.335	0
bin	0.34	0
bin	0.345	0
bin	0.35	0
bin	0.355	0
bin	0.36	0
bin	0.365	0
bin	0.37	0
bin	0.375	0
bin	0.38	0
bin	0.385	0
bin	0.39	0
bin	0.395	0
bin	0.4	0
bin	0.405	0
bin	0.41	0
bin	0.415	0
bin	0.42	0
statistic DelayerTutorialStep.consumer droppedPacketLengths:histogram
field count 9
field mean 8
field stddev 0
field min 8
field max 8
field sum 72
field sqrsum 576
bin	-inf	0
bin	7	0
bin	8	9
bin	9	0
scalar DelayerTutorialStep.producer packetLengths:vector:count 11
scalar DelayerTutorialStep.producer packetLengths:vector:sum 88
scalar DelayerTutorialStep.producer packetLengths:vector:sumweights 11
scalar DelayerTutorialStep.producer packetLengths:vector:mean 8
scalar DelayerTutorialStep.producer packetLengths:vector:stddev 0
scalar DelayerTutorialStep.producer packetLengths:vector:min 8
scalar DelayerTutorialStep.producer packetLengths:vector:max 8
scalar DelayerTutorialStep.producer packetLengths:vector:starttime 0
scalar DelayerTutorialStep.producer packetLengths:vector:endtime 10
scalar DelayerTutorialStep.producer dataRate:vector:count 100
scalar DelayerTutorialStep.producer dataRate:vector:sum 800
scalar DelayerTutorialStep.producer dataRate:vector:sumweights 100
scalar DelayerTutorialStep.producer dataRate:vector:mean 8
scalar DelayerTutorialStep.producer dataRate:vector:stddev 24.120907566221
scalar DelayerTutorialStep.producer dataRate:vector:min 0
scalar DelayerTutorialStep.producer dataRate:vector:max 80
scalar DelayerTutorialStep.producer dataRate:vector:starttime 0.1
scalar DelayerTutorialStep.producer dataRate:vector:endtime 10
scalar DelayerTutorialStep.consumer droppedPacketLengths:vector:count 9
scalar DelayerTutorialStep.consumer droppedPacketLengths:vector:sum 72
scalar DelayerTutorialStep.consumer droppedPacketLengths:vector:sumweights 9
scalar DelayerTutorialStep.consumer droppedPacketLengths:vector:mean 8
scalar DelayerTutorialStep.consumer droppedPacketLengths:vector:stddev 0
scalar DelayerTutorialStep.consumer droppedPacketLengths:vector:min 8
scalar DelayerTutorialStep.consumer droppedPacketLengths:vector:max 8
scalar DelayerTutorialStep.consumer droppedPacketLengths:vector:starttime 1.097627004609
scalar DelayerTutorialStep.consumer droppedPacketLengths:vector:endtime 8.847309593577
scalar DelayerTutorialStep.consumer droppedDataRate:vector:count 100
scalar DelayerTutorialStep.consumer droppedDataRate:vector:sum 720
scalar DelayerTutorialStep.consumer droppedDataRate:vector:sumweights 100
scalar DelayerTutorialStep.consumer droppedDataRate:vector:mean 7.2
scalar DelayerTutorialStep.consumer droppedDataRate:vector:stddev 23.009879301173
scalar DelayerTutorialStep.consumer droppedDataRate:vector:min 0
scalar DelayerTutorialStep.consumer droppedDataRate:vector:max 80
scalar DelayerTutorialStep.consumer droppedDataRate:vector:starttime 0.1
scalar DelayerTutorialStep.consumer droppedDataRate:vector:endtime 10
scalar DelayerTutorialStep.consumer packetLengths:vector:count 9
scalar DelayerTutorialStep.consumer packetLengths:vector:sum 72
scalar DelayerTutorialStep.consumer packetLengths:vector:sumweights 9
scalar DelayerTutorialStep.consumer packetLengths:vector:mean 8
scalar DelayerTutorialStep.consumer packetLengths:vector:stddev 0
scalar DelayerTutorialStep.consumer packetLengths:vector:min 8
scalar DelayerTutorialStep.consumer packetLengths:vector:max 8
scalar DelayerTutorialStep.consumer packetLengths:vector:starttime 1.097627004609
scalar DelayerTutorialStep.consumer packetLengths:vector:endtime 8.847309593577
scalar DelayerTutorialStep.consumer dataRate:vector:count 100
scalar DelayerTutorialStep.consumer dataRate:vector:sum 720
scalar DelayerTutorialStep.consumer dataRate:vector:sumweights 100
scalar DelayerTutorialStep.consumer dataRate:vector:mean 7.2
scalar DelayerTutorialStep.consumer dataRate:vector:stddev 23.009879301173
scalar DelayerTutorialStep.consumer dataRate:vector:min 0
scalar DelayerTutorialStep.consumer dataRate:vector:max 80
scalar DelayerTutorialStep.consumer dataRate:vector:starttime 0.1
scalar DelayerTutorialStep.consumer dataRate:vector:endtime 10
scalar DelayerTutorialStep.consumer meanBitLifeTimePerPacket:vector:count 9
scalar DelayerTutorialStep.consumer meanBitLifeTimePerPacket:vector:sum 11.955223858823
scalar DelayerTutorialStep.consumer meanBitLifeTimePerPacket:vector:sumweights 9
scalar DelayerTutorialStep.consumer meanBitLifeTimePerPacket:vector:mean 1.3283582065359
scalar DelayerTutorialStep.consumer meanBitLifeTimePerPacket:vector:stddev 0.31650235414306
scalar DelayerTutorialStep.consumer meanBitLifeTimePerPacket:vector:min 0.847309593577
scalar DelayerTutorialStep.consumer meanBitLifeTimePerPacket:vector:max 1.715891239699
scalar DelayerTutorialStep.consumer meanBitLifeTimePerPacket:vector:starttime 1.097627004609
scalar DelayerTutorialStep.consumer meanBitLifeTimePerPacket:vector:endtime 8.847309593577
scalar DelayerTutorialStep.consumer packetJitter:vector:count 9
scalar DelayerTutorialStep.consumer packetJitter:vector:sum 0.847309593577
scalar DelayerTutorialStep.consumer packetJitter:vector:sumweights 9
scalar DelayerTutorialStep.consumer packetJitter:vector:mean 0.094145510397444
scalar DelayerTutorialStep.consumer packetJitter:vector:stddev 0.63526842112038
scalar DelayerTutorialStep.consumer packetJitter:vector:min -0.847193880938
scalar DelayerTutorialStep.consumer packetJitter:vector:max 1.097627004609
scalar DelayerTutorialStep.consumer packetJitter:vector:starttime 1.097627004609
scalar DelayerTutorialStep.consumer packetJitter:vector:endtime 8.847309593577
scalar DelayerTutorialStep.consumer packetDelayDifferenceToMean:vector:count 9
scalar DelayerTutorialStep.consumer packetDelayDifferenceToMean:vector:sum -0.35703862748957
scalar DelayerTutorialStep.consumer packetDelayDifferenceToMean:vector:sumweights 9
scalar DelayerTutorialStep.consumer packetDelayDifferenceToMean:vector:mean -0.039670958609952
scalar DelayerTutorialStep.consumer packetDelayDifferenceToMean:vector:stddev 0.28517144230034
scalar DelayerTutorialStep.consumer packetDelayDifferenceToMean:vector:min -0.3379748743025
scalar DelayerTutorialStep.consumer packetDelayDifferenceToMean:vector:max 0.48104861295889
scalar DelayerTutorialStep.consumer packetDelayDifferenceToMean:vector:starttime 1.097627004609
scalar DelayerTutorialStep.consumer packetDelayDifferenceToMean:vector:endtime 8.847309593577
scalar DelayerTutorialStep.consumer packetDelayVariation:vector:count 9
scalar DelayerTutorialStep.consumer packetDelayVariation:vector:sum 2.0846925542635
scalar DelayerTutorialStep.consumer packetDelayVariation:vector:sumweights 9
scalar DelayerTutorialStep.consumer packetDelayVariation:vector:mean 0.23163250602928
scalar DelayerTutorialStep.consumer packetDelayVariation:vector:stddev 0.11769194978946
scalar DelayerTutorialStep.consumer packetDelayVariation:vector:min -0
scalar DelayerTutorialStep.consumer packetDelayVariation:vector:max 0.33487107397497
scalar DelayerTutorialStep.consumer packetDelayVariation:vector:starttime 1.097627004609
scalar DelayerTutorialStep.consumer packetDelayVariation:vector:endtime 8.847309593577

