version 3
run RequestResponse-0-20251118-12:02:02-115431
attr configname RequestResponse
attr datetime 20251118-12:02:02
attr datetimef 20251118-120202
attr experiment RequestResponse
attr inifile omnetpp.ini
attr iterationvars ""
attr iterationvarsd ""
attr iterationvarsf ""
attr measurement ""
attr network RequestResponseTutorialStep
attr processid 115431
attr repetition 0
attr replication #0
attr resultdir results
attr runnumber 0
attr seedset 0
config **.param-recording false
config image-path /home/zoli/Projects/OMNET/inet/images
config output-scalar-file results/omnetpp.ini-RequestResponse-#0.sca
config output-scalar-precision 17
config output-vector-file results/omnetpp.ini-RequestResponse-#0.vec
config output-vector-precision 17
config record-eventlog false
config sim-time-limit 100s
config network RequestResponseTutorialStep
config sim-time-limit 100s
config *.requestProducer.packetLength 1B
config *.requestProducer.packetData "intuniform(0, 1)"
config *.requestProducer.productionInterval "uniform(0s, 2s)"
config *.requestConsumer.numKind 2
config *.requestConsumer.classifier.typename ContentBasedClassifier
config *.requestConsumer.classifier.packetFilters "[expr(ByteCountChunk.data == 0), expr(ByteCountChunk.data == 1)]"
config *.requestConsumer.tokenGenerator[0].numTokensPerPacket 10
config *.requestConsumer.tokenGenerator[1].numTokensPerPacket 10
config *.responseProducer.numKind 2
config *.responseProducer.provider[0].packetLength "intuniform(1B, 10B)"
config *.responseProducer.provider[0].providingInterval "uniform(0s, 0.2s)"
config *.responseProducer.provider[1].packetLength "intuniform(1B, 100B)"
config *.responseProducer.provider[1].providingInterval "uniform(0s, 0.2s)"

scalar RequestResponseTutorialStep.requestProducer packets:count 108
scalar RequestResponseTutorialStep.requestProducer packetLengths:sum 864
scalar RequestResponseTutorialStep.responseConsumer packets:count 963
scalar RequestResponseTutorialStep.responseConsumer packetLengths:sum 213216
scalar RequestResponseTutorialStep.responseConsumer droppedPackets:count 963
scalar RequestResponseTutorialStep.responseConsumer droppedPacketLengths:sum 213216
scalar RequestResponseTutorialStep.requestConsumer.queue queueLength:last 11
scalar RequestResponseTutorialStep.requestConsumer.queue queueLength:max 13
scalar RequestResponseTutorialStep.requestConsumer.queue queueLength:timeavg 7.7277876174127194
scalar RequestResponseTutorialStep.requestConsumer.queue queueBitLength:last 88
scalar RequestResponseTutorialStep.requestConsumer.queue queueBitLength:max 104
scalar RequestResponseTutorialStep.requestConsumer.queue queueBitLength:timeavg 61.822300939301755
scalar RequestResponseTutorialStep.requestConsumer.queue outgoingPackets:count 97
scalar RequestResponseTutorialStep.requestConsumer.queue outgoingPacketLengths:sum 776
scalar RequestResponseTutorialStep.requestConsumer.queue incomingPackets:count 108
scalar RequestResponseTutorialStep.requestConsumer.queue incomingPacketLengths:sum 864
scalar RequestResponseTutorialStep.requestConsumer.queue droppedPacketsQueueOverflow:count 0
scalar RequestResponseTutorialStep.requestConsumer.queue droppedPacketLengthsQueueOverflow:sum 0
scalar RequestResponseTutorialStep.requestConsumer.server numTokensDepleted:count 94
scalar RequestResponseTutorialStep.requestConsumer.server removedTokens:sum 0
scalar RequestResponseTutorialStep.requestConsumer.server addedTokens:sum 96
scalar RequestResponseTutorialStep.requestConsumer.server incomingPackets:count 97
scalar RequestResponseTutorialStep.requestConsumer.server incomingPacketLengths:sum 776
scalar RequestResponseTutorialStep.requestConsumer.server outgoingPackets:count 97
scalar RequestResponseTutorialStep.requestConsumer.server outgoingPacketLengths:sum 776
scalar RequestResponseTutorialStep.requestConsumer.classifier packets:count 97
scalar RequestResponseTutorialStep.requestConsumer.classifier packetLengths:sum 776
scalar RequestResponseTutorialStep.requestConsumer.tokenGenerator[0] tokensCreated:count 50
scalar RequestResponseTutorialStep.requestConsumer.tokenGenerator[0] numTokensCreated:sum 490
scalar RequestResponseTutorialStep.requestConsumer.tokenGenerator[1] tokensCreated:count 49
scalar RequestResponseTutorialStep.requestConsumer.tokenGenerator[1] numTokensCreated:sum 480
scalar RequestResponseTutorialStep.responseProducer.provider[0] packets:count 490
scalar RequestResponseTutorialStep.responseProducer.provider[0] packetLengths:sum 20392
scalar RequestResponseTutorialStep.responseProducer.provider[1] packets:count 473
scalar RequestResponseTutorialStep.responseProducer.provider[1] packetLengths:sum 192824
scalar RequestResponseTutorialStep.responseProducer.server[0] numTokensDepleted:count 49
scalar RequestResponseTutorialStep.responseProducer.server[0] removedTokens:sum 2205
scalar RequestResponseTutorialStep.responseProducer.server[0] addedTokens:sum 490
scalar RequestResponseTutorialStep.responseProducer.server[0] incomingPackets:count 490
scalar RequestResponseTutorialStep.responseProducer.server[0] incomingPacketLengths:sum 20392
scalar RequestResponseTutorialStep.responseProducer.server[0] outgoingPackets:count 490
scalar RequestResponseTutorialStep.responseProducer.server[0] outgoingPacketLengths:sum 20392
scalar RequestResponseTutorialStep.responseProducer.server[1] numTokensDepleted:count 47
scalar RequestResponseTutorialStep.responseProducer.server[1] removedTokens:sum 2139
scalar RequestResponseTutorialStep.responseProducer.server[1] addedTokens:sum 480
scalar RequestResponseTutorialStep.responseProducer.server[1] incomingPackets:count 473
scalar RequestResponseTutorialStep.responseProducer.server[1] incomingPacketLengths:sum 192824
scalar RequestResponseTutorialStep.responseProducer.server[1] outgoingPackets:count 473
scalar RequestResponseTutorialStep.responseProducer.server[1] outgoingPacketLengths:sum 192824
scalar RequestResponseTutorialStep.responseProducer.multiplexer packets:count 0
scalar RequestResponseTutorialStep.responseProducer.multiplexer packetLengths:sum 0
scalar RequestResponseTutorialStep.responseProducer.tokenGenerator tokensCreated:count 97
scalar RequestResponseTutorialStep.responseProducer.tokenGenerator numTokensCreated:sum 96
scalar RequestResponseTutorialStep.requestProducer packetLengths:histogram:count 108
scalar RequestResponseTutorialStep.requestProducer packetLengths:histogram:sumweights 108
scalar RequestResponseTutorialStep.requestProducer packetLengths:histogram:mean 8
scalar RequestResponseTutorialStep.requestProducer packetLengths:histogram:stddev 0
scalar RequestResponseTutorialStep.requestProducer packetLengths:histogram:min 8
scalar RequestResponseTutorialStep.requestProducer packetLengths:histogram:max 8
scalar RequestResponseTutorialStep.requestProducer packetLengths:histogram:numbins 2
scalar RequestResponseTutorialStep.requestProducer packetLengths:histogram:rangemin 7
scalar RequestResponseTutorialStep.requestProducer packetLengths:histogram:rangemax 9
scalar RequestResponseTutorialStep.requestProducer packetLengths:histogram:underflows 0
scalar RequestResponseTutorialStep.requestProducer packetLengths:histogram:overflows 0
scalar RequestResponseTutorialStep.responseConsumer packetLengths:histogram:count 963
scalar RequestResponseTutorialStep.responseConsumer packetLengths:histogram:sumweights 963
scalar RequestResponseTutorialStep.responseConsumer packetLengths:histogram:mean 221.40809968847353
scalar RequestResponseTutorialStep.responseConsumer packetLengths:histogram:stddev 246.75064769533847
scalar RequestResponseTutorialStep.responseConsumer packetLengths:histogram:min 8
scalar RequestResponseTutorialStep.responseConsumer packetLengths:histogram:max 800
scalar RequestResponseTutorialStep.responseConsumer packetLengths:histogram:numbins 50
scalar RequestResponseTutorialStep.responseConsumer packetLengths:histogram:rangemin 0
scalar RequestResponseTutorialStep.responseConsumer packetLengths:histogram:rangemax 1000
scalar RequestResponseTutorialStep.responseConsumer packetLengths:histogram:underflows 0
scalar RequestResponseTutorialStep.responseConsumer packetLengths:histogram:overflows 0
scalar RequestResponseTutorialStep.responseConsumer meanBitLifeTimePerPacket:histogram:count 963
scalar RequestResponseTutorialStep.responseConsumer meanBitLifeTimePerPacket:histogram:sumweights 963
scalar RequestResponseTutorialStep.responseConsumer meanBitLifeTimePerPacket:histogram:mean 0.10379586118401871
scalar RequestResponseTutorialStep.responseConsumer meanBitLifeTimePerPacket:histogram:stddev 0.5002596306189554
scalar RequestResponseTutorialStep.responseConsumer meanBitLifeTimePerPacket:histogram:min 0
scalar RequestResponseTutorialStep.responseConsumer meanBitLifeTimePerPacket:histogram:max 4.8049363635910005
scalar RequestResponseTutorialStep.responseConsumer meanBitLifeTimePerPacket:histogram:numbins 49
scalar RequestResponseTutorialStep.responseConsumer meanBitLifeTimePerPacket:histogram:rangemin 0
scalar RequestResponseTutorialStep.responseConsumer meanBitLifeTimePerPacket:histogram:rangemax 4.8999999999999995
scalar RequestResponseTutorialStep.responseConsumer meanBitLifeTimePerPacket:histogram:underflows 0
scalar RequestResponseTutorialStep.responseConsumer meanBitLifeTimePerPacket:histogram:overflows 0
scalar RequestResponseTutorialStep.responseConsumer packetLifeTime:histogram:count 963
scalar RequestResponseTutorialStep.responseConsumer packetLifeTime:histogram:sumweights 963
scalar RequestResponseTutorialStep.responseConsumer packetLifeTime:histogram:mean 0.10379586118401871
scalar RequestResponseTutorialStep.responseConsumer packetLifeTime:histogram:stddev 0.5002596306189554
scalar RequestResponseTutorialStep.responseConsumer packetLifeTime:histogram:min 0
scalar RequestResponseTutorialStep.responseConsumer packetLifeTime:histogram:max 4.8049363635909996
scalar RequestResponseTutorialStep.responseConsumer packetLifeTime:histogram:numbins 49
scalar RequestResponseTutorialStep.responseConsumer packetLifeTime:histogram:rangemin 0
scalar RequestResponseTutorialStep.responseConsumer packetLifeTime:histogram:rangemax 4.8999999999999995
scalar RequestResponseTutorialStep.responseConsumer packetLifeTime:histogram:underflows 0
scalar RequestResponseTutorialStep.responseConsumer packetLifeTime:histogram:overflows 0
scalar RequestResponseTutorialStep.responseConsumer packetJitter:histogram:count 963
scalar RequestResponseTutorialStep.responseConsumer packetJitter:histogram:sumweights 963
scalar RequestResponseTutorialStep.responseConsumer packetJitter:histogram:mean 0
scalar RequestResponseTutorialStep.responseConsumer packetJitter:histogram:stddev 0.72255723368378966
scalar RequestResponseTutorialStep.responseConsumer packetJitter:histogram:min -4.8049363635910005
scalar RequestResponseTutorialStep.responseConsumer packetJitter:histogram:max 4.8049363635910005
scalar RequestResponseTutorialStep.responseConsumer packetJitter:histogram:numbins 50
scalar RequestResponseTutorialStep.responseConsumer packetJitter:histogram:rangemin -5.0000000000000009
scalar RequestResponseTutorialStep.responseConsumer packetJitter:histogram:rangemax 5.0000000000000009
scalar RequestResponseTutorialStep.responseConsumer packetJitter:histogram:underflows 0
scalar RequestResponseTutorialStep.responseConsumer packetJitter:histogram:overflows 0
scalar RequestResponseTutorialStep.responseConsumer packetDelayDifferenceToMean:histogram:count 963
scalar RequestResponseTutorialStep.responseConsumer packetDelayDifferenceToMean:histogram:sumweights 963
scalar RequestResponseTutorialStep.responseConsumer packetDelayDifferenceToMean:histogram:mean 0.0010878195365164839
scalar RequestResponseTutorialStep.responseConsumer packetDelayDifferenceToMean:histogram:stddev 0.49912796327094228
scalar RequestResponseTutorialStep.responseConsumer packetDelayDifferenceToMean:histogram:min -4.6961355594607888
scalar RequestResponseTutorialStep.responseConsumer packetDelayDifferenceToMean:histogram:max 0.13799870112694229
scalar RequestResponseTutorialStep.responseConsumer packetDelayDifferenceToMean:histogram:numbins 56
scalar RequestResponseTutorialStep.responseConsumer packetDelayDifferenceToMean:histogram:rangemin -4.7000000000000011
scalar RequestResponseTutorialStep.responseConsumer packetDelayDifferenceToMean:histogram:rangemax 0.90000000000000036
scalar RequestResponseTutorialStep.responseConsumer packetDelayDifferenceToMean:histogram:underflows 0
scalar RequestResponseTutorialStep.responseConsumer packetDelayDifferenceToMean:histogram:overflows 0
scalar RequestResponseTutorialStep.responseConsumer packetDelayVariation:histogram:count 963
scalar RequestResponseTutorialStep.responseConsumer packetDelayVariation:histogram:sumweights 963
scalar RequestResponseTutorialStep.responseConsumer packetDelayVariation:histogram:mean 0.48100285616484045
scalar RequestResponseTutorialStep.responseConsumer packetDelayVariation:histogram:stddev 0.066467277095744445
scalar RequestResponseTutorialStep.responseConsumer packetDelayVariation:histogram:min 0
scalar RequestResponseTutorialStep.responseConsumer packetDelayVariation:histogram:max 0.54193411003375702
scalar RequestResponseTutorialStep.responseConsumer packetDelayVariation:histogram:numbins 68
scalar RequestResponseTutorialStep.responseConsumer packetDelayVariation:histogram:rangemin 0
scalar RequestResponseTutorialStep.responseConsumer packetDelayVariation:histogram:rangemax 0.68000000000000005
scalar RequestResponseTutorialStep.responseConsumer packetDelayVariation:histogram:underflows 0
scalar RequestResponseTutorialStep.responseConsumer packetDelayVariation:histogram:overflows 0
scalar RequestResponseTutorialStep.responseConsumer droppedPacketLengths:histogram:count 963
scalar RequestResponseTutorialStep.responseConsumer droppedPacketLengths:histogram:sumweights 963
scalar RequestResponseTutorialStep.responseConsumer droppedPacketLengths:histogram:mean 221.40809968847353
scalar RequestResponseTutorialStep.responseConsumer droppedPacketLengths:histogram:stddev 246.75064769533847
scalar RequestResponseTutorialStep.responseConsumer droppedPacketLengths:histogram:min 8
scalar RequestResponseTutorialStep.responseConsumer droppedPacketLengths:histogram:max 800
scalar RequestResponseTutorialStep.responseConsumer droppedPacketLengths:histogram:numbins 50
scalar RequestResponseTutorialStep.responseConsumer droppedPacketLengths:histogram:rangemin 0
scalar RequestResponseTutorialStep.responseConsumer droppedPacketLengths:histogram:rangemax 1000
scalar RequestResponseTutorialStep.responseConsumer droppedPacketLengths:histogram:underflows 0
scalar RequestResponseTutorialStep.responseConsumer droppedPacketLengths:histogram:overflows 0
scalar RequestResponseTutorialStep.requestConsumer.queue queueingTime:histogram:count 97
scalar RequestResponseTutorialStep.requestConsumer.queue queueingTime:histogram:sumweights 97
scalar RequestResponseTutorialStep.requestConsumer.queue queueingTime:histogram:mean 7.4194307058051097
scalar RequestResponseTutorialStep.requestConsumer.queue queueingTime:histogram:stddev 3.962904781502913
scalar RequestResponseTutorialStep.requestConsumer.queue queueingTime:histogram:min 0
scalar RequestResponseTutorialStep.requestConsumer.queue queueingTime:histogram:max 12.344868334812
scalar RequestResponseTutorialStep.requestConsumer.queue queueingTime:histogram:numbins 78
scalar RequestResponseTutorialStep.requestConsumer.queue queueingTime:histogram:rangemin 0
scalar RequestResponseTutorialStep.requestConsumer.queue queueingTime:histogram:rangemax 15.600000000000001
scalar RequestResponseTutorialStep.requestConsumer.queue queueingTime:histogram:underflows 0
scalar RequestResponseTutorialStep.requestConsumer.queue queueingTime:histogram:overflows 0
scalar RequestResponseTutorialStep.requestConsumer.queue outgoingPacketLengths:histogram:count 97
scalar RequestResponseTutorialStep.requestConsumer.queue outgoingPacketLengths:histogram:sumweights 97
scalar RequestResponseTutorialStep.requestConsumer.queue outgoingPacketLengths:histogram:mean 8
scalar RequestResponseTutorialStep.requestConsumer.queue outgoingPacketLengths:histogram:stddev 0
scalar RequestResponseTutorialStep.requestConsumer.queue outgoingPacketLengths:histogram:min 8
scalar RequestResponseTutorialStep.requestConsumer.queue outgoingPacketLengths:histogram:max 8
scalar RequestResponseTutorialStep.requestConsumer.queue outgoingPacketLengths:histogram:numbins 2
scalar RequestResponseTutorialStep.requestConsumer.queue outgoingPacketLengths:histogram:rangemin 7
scalar RequestResponseTutorialStep.requestConsumer.queue outgoingPacketLengths:histogram:rangemax 9
scalar RequestResponseTutorialStep.requestConsumer.queue outgoingPacketLengths:histogram:underflows 0
scalar RequestResponseTutorialStep.requestConsumer.queue outgoingPacketLengths:histogram:overflows 0
scalar RequestResponseTutorialStep.requestConsumer.queue flowQueueingTime:histogram:count 0
scalar RequestResponseTutorialStep.requestConsumer.queue flowQueueingTime:histogram:sumweights 0
scalar RequestResponseTutorialStep.requestConsumer.queue flowQueueingTime:histogram:mean -nan
scalar RequestResponseTutorialStep.requestConsumer.queue flowQueueingTime:histogram:stddev nan
scalar RequestResponseTutorialStep.requestConsumer.queue flowQueueingTime:histogram:min nan
scalar RequestResponseTutorialStep.requestConsumer.queue flowQueueingTime:histogram:max nan
scalar RequestResponseTutorialStep.requestConsumer.queue flowQueueingTime:histogram:numbins 1
scalar RequestResponseTutorialStep.requestConsumer.queue flowQueueingTime:histogram:rangemin 0
scalar RequestResponseTutorialStep.requestConsumer.queue flowQueueingTime:histogram:rangemax 1
scalar RequestResponseTutorialStep.requestConsumer.queue flowQueueingTime:histogram:underflows 0
scalar RequestResponseTutorialStep.requestConsumer.queue flowQueueingTime:histogram:overflows 0
scalar RequestResponseTutorialStep.requestConsumer.queue incomingPacketLengths:histogram:count 108
scalar RequestResponseTutorialStep.requestConsumer.queue incomingPacketLengths:histogram:sumweights 108
scalar RequestResponseTutorialStep.requestConsumer.queue incomingPacketLengths:histogram:mean 8
scalar RequestResponseTutorialStep.requestConsumer.queue incomingPacketLengths:histogram:stddev 0
scalar RequestResponseTutorialStep.requestConsumer.queue incomingPacketLengths:histogram:min 8
scalar RequestResponseTutorialStep.requestConsumer.queue incomingPacketLengths:histogram:max 8
scalar RequestResponseTutorialStep.requestConsumer.queue incomingPacketLengths:histogram:numbins 2
scalar RequestResponseTutorialStep.requestConsumer.queue incomingPacketLengths:histogram:rangemin 7
scalar RequestResponseTutorialStep.requestConsumer.queue incomingPacketLengths:histogram:rangemax 9
scalar RequestResponseTutorialStep.requestConsumer.queue incomingPacketLengths:histogram:underflows 0
scalar RequestResponseTutorialStep.requestConsumer.queue incomingPacketLengths:histogram:overflows 0
scalar RequestResponseTutorialStep.requestConsumer.server incomingPacketLengths:histogram:count 97
scalar RequestResponseTutorialStep.requestConsumer.server incomingPacketLengths:histogram:sumweights 97
scalar RequestResponseTutorialStep.requestConsumer.server incomingPacketLengths:histogram:mean 8
scalar RequestResponseTutorialStep.requestConsumer.server incomingPacketLengths:histogram:stddev 0
scalar RequestResponseTutorialStep.requestConsumer.server incomingPacketLengths:histogram:min 8
scalar RequestResponseTutorialStep.requestConsumer.server incomingPacketLengths:histogram:max 8
scalar RequestResponseTutorialStep.requestConsumer.server incomingPacketLengths:histogram:numbins 2
scalar RequestResponseTutorialStep.requestConsumer.server incomingPacketLengths:histogram:rangemin 7
scalar RequestResponseTutorialStep.requestConsumer.server incomingPacketLengths:histogram:rangemax 9
scalar RequestResponseTutorialStep.requestConsumer.server incomingPacketLengths:histogram:underflows 0
scalar RequestResponseTutorialStep.requestConsumer.server incomingPacketLengths:histogram:overflows 0
scalar RequestResponseTutorialStep.requestConsumer.server outgoingPacketLengths:histogram:count 97
scalar RequestResponseTutorialStep.requestConsumer.server outgoingPacketLengths:histogram:sumweights 97
scalar RequestResponseTutorialStep.requestConsumer.server outgoingPacketLengths:histogram:mean 8
scalar RequestResponseTutorialStep.requestConsumer.server outgoingPacketLengths:histogram:stddev 0
scalar RequestResponseTutorialStep.requestConsumer.server outgoingPacketLengths:histogram:min 8
scalar RequestResponseTutorialStep.requestConsumer.server outgoingPacketLengths:histogram:max 8
scalar RequestResponseTutorialStep.requestConsumer.server outgoingPacketLengths:histogram:numbins 2
scalar RequestResponseTutorialStep.requestConsumer.server outgoingPacketLengths:histogram:rangemin 7
scalar RequestResponseTutorialStep.requestConsumer.server outgoingPacketLengths:histogram:rangemax 9
scalar RequestResponseTutorialStep.requestConsumer.server outgoingPacketLengths:histogram:underflows 0
scalar RequestResponseTutorialStep.requestConsumer.server outgoingPacketLengths:histogram:overflows 0
scalar RequestResponseTutorialStep.requestConsumer.classifier packetLengths:histogram:count 97
scalar RequestResponseTutorialStep.requestConsumer.classifier packetLengths:histogram:sumweights 97
scalar RequestResponseTutorialStep.requestConsumer.classifier packetLengths:histogram:mean 8
scalar RequestResponseTutorialStep.requestConsumer.classifier packetLengths:histogram:stddev 0
scalar RequestResponseTutorialStep.requestConsumer.classifier packetLengths:histogram:min 8
scalar RequestResponseTutorialStep.requestConsumer.classifier packetLengths:histogram:max 8
scalar RequestResponseTutorialStep.requestConsumer.classifier packetLengths:histogram:numbins 2
scalar RequestResponseTutorialStep.requestConsumer.classifier packetLengths:histogram:rangemin 7
scalar RequestResponseTutorialStep.requestConsumer.classifier packetLengths:histogram:rangemax 9
scalar RequestResponseTutorialStep.requestConsumer.classifier packetLengths:histogram:underflows 0
scalar RequestResponseTutorialStep.requestConsumer.classifier packetLengths:histogram:overflows 0
scalar RequestResponseTutorialStep.responseProducer.provider[0] packetLengths:histogram:count 490
scalar RequestResponseTutorialStep.responseProducer.provider[0] packetLengths:histogram:sumweights 490
scalar RequestResponseTutorialStep.responseProducer.provider[0] packetLengths:histogram:mean 41.616326530612248
scalar RequestResponseTutorialStep.responseProducer.provider[0] packetLengths:histogram:stddev 22.15689866062414
scalar RequestResponseTutorialStep.responseProducer.provider[0] packetLengths:histogram:min 8
scalar RequestResponseTutorialStep.responseProducer.provider[0] packetLengths:histogram:max 80
scalar RequestResponseTutorialStep.responseProducer.provider[0] packetLengths:histogram:numbins 49
scalar RequestResponseTutorialStep.responseProducer.provider[0] packetLengths:histogram:rangemin 0
scalar RequestResponseTutorialStep.responseProducer.provider[0] packetLengths:histogram:rangemax 98
scalar RequestResponseTutorialStep.responseProducer.provider[0] packetLengths:histogram:underflows 0
scalar RequestResponseTutorialStep.responseProducer.provider[0] packetLengths:histogram:overflows 0
scalar RequestResponseTutorialStep.responseProducer.provider[1] packetLengths:histogram:count 473
scalar RequestResponseTutorialStep.responseProducer.provider[1] packetLengths:histogram:sumweights 473
scalar RequestResponseTutorialStep.responseProducer.provider[1] packetLengths:histogram:mean 407.66173361522198
scalar RequestResponseTutorialStep.responseProducer.provider[1] packetLengths:histogram:stddev 235.08156661156471
scalar RequestResponseTutorialStep.responseProducer.provider[1] packetLengths:histogram:min 8
scalar RequestResponseTutorialStep.responseProducer.provider[1] packetLengths:histogram:max 800
scalar RequestResponseTutorialStep.responseProducer.provider[1] packetLengths:histogram:numbins 50
scalar RequestResponseTutorialStep.responseProducer.provider[1] packetLengths:histogram:rangemin 0
scalar RequestResponseTutorialStep.responseProducer.provider[1] packetLengths:histogram:rangemax 1000
scalar RequestResponseTutorialStep.responseProducer.provider[1] packetLengths:histogram:underflows 0
scalar RequestResponseTutorialStep.responseProducer.provider[1] packetLengths:histogram:overflows 0
scalar RequestResponseTutorialStep.responseProducer.server[0] incomingPacketLengths:histogram:count 490
scalar RequestResponseTutorialStep.responseProducer.server[0] incomingPacketLengths:histogram:sumweights 490
scalar RequestResponseTutorialStep.responseProducer.server[0] incomingPacketLengths:histogram:mean 41.616326530612248
scalar RequestResponseTutorialStep.responseProducer.server[0] incomingPacketLengths:histogram:stddev 22.15689866062414
scalar RequestResponseTutorialStep.responseProducer.server[0] incomingPacketLengths:histogram:min 8
scalar RequestResponseTutorialStep.responseProducer.server[0] incomingPacketLengths:histogram:max 80
scalar RequestResponseTutorialStep.responseProducer.server[0] incomingPacketLengths:histogram:numbins 49
scalar RequestResponseTutorialStep.responseProducer.server[0] incomingPacketLengths:histogram:rangemin 0
scalar RequestResponseTutorialStep.responseProducer.server[0] incomingPacketLengths:histogram:rangemax 98
scalar RequestResponseTutorialStep.responseProducer.server[0] incomingPacketLengths:histogram:underflows 0
scalar RequestResponseTutorialStep.responseProducer.server[0] incomingPacketLengths:histogram:overflows 0
scalar RequestResponseTutorialStep.responseProducer.server[0] outgoingPacketLengths:histogram:count 490
scalar RequestResponseTutorialStep.responseProducer.server[0] outgoingPacketLengths:histogram:sumweights 490
scalar RequestResponseTutorialStep.responseProducer.server[0] outgoingPacketLengths:histogram:mean 41.616326530612248
scalar RequestResponseTutorialStep.responseProducer.server[0] outgoingPacketLengths:histogram:stddev 22.15689866062414
scalar RequestResponseTutorialStep.responseProducer.server[0] outgoingPacketLengths:histogram:min 8
scalar RequestResponseTutorialStep.responseProducer.server[0] outgoingPacketLengths:histogram:max 80
scalar RequestResponseTutorialStep.responseProducer.server[0] outgoingPacketLengths:histogram:numbins 49
scalar RequestResponseTutorialStep.responseProducer.server[0] outgoingPacketLengths:histogram:rangemin 0
scalar RequestResponseTutorialStep.responseProducer.server[0] outgoingPacketLengths:histogram:rangemax 98
scalar RequestResponseTutorialStep.responseProducer.server[0] outgoingPacketLengths:histogram:underflows 0
scalar RequestResponseTutorialStep.responseProducer.server[0] outgoingPacketLengths:histogram:overflows 0
scalar RequestResponseTutorialStep.responseProducer.server[1] incomingPacketLengths:histogram:count 473
scalar RequestResponseTutorialStep.responseProducer.server[1] incomingPacketLengths:histogram:sumweights 473
scalar RequestResponseTutorialStep.responseProducer.server[1] incomingPacketLengths:histogram:mean 407.66173361522198
scalar RequestResponseTutorialStep.responseProducer.server[1] incomingPacketLengths:histogram:stddev 235.08156661156471
scalar RequestResponseTutorialStep.responseProducer.server[1] incomingPacketLengths:histogram:min 8
scalar RequestResponseTutorialStep.responseProducer.server[1] incomingPacketLengths:histogram:max 800
scalar RequestResponseTutorialStep.responseProducer.server[1] incomingPacketLengths:histogram:numbins 50
scalar RequestResponseTutorialStep.responseProducer.server[1] incomingPacketLengths:histogram:rangemin 0
scalar RequestResponseTutorialStep.responseProducer.server[1] incomingPacketLengths:histogram:rangemax 1000
scalar RequestResponseTutorialStep.responseProducer.server[1] incomingPacketLengths:histogram:underflows 0
scalar RequestResponseTutorialStep.responseProducer.server[1] incomingPacketLengths:histogram:overflows 0
scalar RequestResponseTutorialStep.responseProducer.server[1] outgoingPacketLengths:histogram:count 473
scalar RequestResponseTutorialStep.responseProducer.server[1] outgoingPacketLengths:histogram:sumweights 473
scalar RequestResponseTutorialStep.responseProducer.server[1] outgoingPacketLengths:histogram:mean 407.66173361522198
scalar RequestResponseTutorialStep.responseProducer.server[1] outgoingPacketLengths:histogram:stddev 235.08156661156471
scalar RequestResponseTutorialStep.responseProducer.server[1] outgoingPacketLengths:histogram:min 8
scalar RequestResponseTutorialStep.responseProducer.server[1] outgoingPacketLengths:histogram:max 800
scalar RequestResponseTutorialStep.responseProducer.server[1] outgoingPacketLengths:histogram:numbins 50
scalar RequestResponseTutorialStep.responseProducer.server[1] outgoingPacketLengths:histogram:rangemin 0
scalar RequestResponseTutorialStep.responseProducer.server[1] outgoingPacketLengths:histogram:rangemax 1000
scalar RequestResponseTutorialStep.responseProducer.server[1] outgoingPacketLengths:histogram:underflows 0
scalar RequestResponseTutorialStep.responseProducer.server[1] outgoingPacketLengths:histogram:overflows 0
scalar RequestResponseTutorialStep.responseProducer.multiplexer packetLengths:histogram:count 0
scalar RequestResponseTutorialStep.responseProducer.multiplexer packetLengths:histogram:sumweights 0
scalar RequestResponseTutorialStep.responseProducer.multiplexer packetLengths:histogram:mean -nan
scalar RequestResponseTutorialStep.responseProducer.multiplexer packetLengths:histogram:stddev nan
scalar RequestResponseTutorialStep.responseProducer.multiplexer packetLengths:histogram:min nan
scalar RequestResponseTutorialStep.responseProducer.multiplexer packetLengths:histogram:max nan
scalar RequestResponseTutorialStep.responseProducer.multiplexer packetLengths:histogram:numbins 1
scalar RequestResponseTutorialStep.responseProducer.multiplexer packetLengths:histogram:rangemin 0
scalar RequestResponseTutorialStep.responseProducer.multiplexer packetLengths:histogram:rangemax 1
scalar RequestResponseTutorialStep.responseProducer.multiplexer packetLengths:histogram:underflows 0
scalar RequestResponseTutorialStep.responseProducer.multiplexer packetLengths:histogram:overflows 0
statistic RequestResponseTutorialStep.requestProducer packetLengths:histogram
field count 108
field mean 8
field stddev 0
field min 8
field max 8
field sum 864
field sqrsum 6912
bin	-inf	0
bin	7	0
bin	8	108
bin	9	0
statistic RequestResponseTutorialStep.responseConsumer packetLengths:histogram
field count 963
field mean 221.40809968847353
field stddev 246.75064769533847
field min 8
field max 800
field sum 213216
field sqrsum 105779968
bin	-inf	0
bin	0	113
bin	20	128
bin	40	158
bin	60	102
bin	80	49
bin	100	8
bin	120	16
bin	140	4
bin	160	17
bin	180	9
bin	200	6
bin	220	9
bin	240	18
bin	260	8
bin	280	17
bin	300	10
bin	320	20
bin	340	12
bin	360	17
bin	380	6
bin	400	22
bin	420	2
bin	440	9
bin	460	10
bin	480	10
bin	500	4
bin	520	8
bin	540	4
bin	560	16
bin	580	12
bin	600	18
bin	620	15
bin	640	17
bin	660	15
bin	680	7
bin	700	11
bin	720	22
bin	740	8
bin	760	9
bin	780	12
bin	800	5
bin	820	0
bin	840	0
bin	860	0
bin	880	0
bin	900	0
bin	920	0
bin	940	0
bin	960	0
bin	980	0
bin	1000	0
statistic RequestResponseTutorialStep.responseConsumer meanBitLifeTimePerPacket:histogram
field count 963
field mean 0.10379586118401871
field stddev 0.5002596306189554
field min 0
field max 4.8049363635910005
field sum 99.955414320210011
field sqrsum 251.12478781135877
bin	-inf	0
bin	0	912
bin	0.10000000000000001	0
bin	0.20000000000000001	0
bin	0.30000000000000004	1
bin	0.40000000000000002	1
bin	0.5	0
bin	0.60000000000000009	0
bin	0.70000000000000007	0
bin	0.80000000000000004	4
bin	0.90000000000000002	4
bin	1	4
bin	1.1000000000000001	5
bin	1.2000000000000002	1
bin	1.3	2
bin	1.4000000000000001	1
bin	1.5	0
bin	1.6000000000000001	1
bin	1.7000000000000002	0
bin	1.8	1
bin	1.9000000000000001	0
bin	2	3
bin	2.1000000000000001	3
bin	2.2000000000000002	3
bin	2.3000000000000003	2
bin	2.4000000000000004	2
bin	2.5	1
bin	2.6000000000000001	0
bin	2.7000000000000002	1
bin	2.8000000000000003	0
bin	2.9000000000000004	0
bin	3	1
bin	3.1000000000000001	3
bin	3.2000000000000002	1
bin	3.3000000000000003	1
bin	3.4000000000000004	1
bin	3.5	0
bin	3.6000000000000001	1
bin	3.7000000000000002	0
bin	3.8000000000000003	1
bin	3.8999999999999999	0
bin	4	0
bin	4.0999999999999996	0
bin	4.2000000000000002	0
bin	4.2999999999999998	1
bin	4.3999999999999995	0
bin	4.5	0
bin	4.5999999999999996	0
bin	4.6999999999999993	0
bin	4.7999999999999998	1
bin	4.8999999999999995	0
statistic RequestResponseTutorialStep.responseConsumer packetLifeTime:histogram
field count 963
field mean 0.10379586118401871
field stddev 0.5002596306189554
field min 0
field max 4.8049363635909996
field sum 99.955414320210011
field sqrsum 251.12478781135871
bin	-inf	0
bin	0	912
bin	0.10000000000000001	0
bin	0.20000000000000001	0
bin	0.30000000000000004	1
bin	0.40000000000000002	1
bin	0.5	0
bin	0.60000000000000009	0
bin	0.70000000000000007	0
bin	0.80000000000000004	4
bin	0.90000000000000002	4
bin	1	4
bin	1.1000000000000001	5
bin	1.2000000000000002	1
bin	1.3	2
bin	1.4000000000000001	1
bin	1.5	0
bin	1.6000000000000001	1
bin	1.7000000000000002	0
bin	1.8	1
bin	1.9000000000000001	0
bin	2	3
bin	2.1000000000000001	3
bin	2.2000000000000002	3
bin	2.3000000000000003	2
bin	2.4000000000000004	2
bin	2.5	1
bin	2.6000000000000001	0
bin	2.7000000000000002	1
bin	2.8000000000000003	0
bin	2.9000000000000004	0
bin	3	1
bin	3.1000000000000001	3
bin	3.2000000000000002	1
bin	3.3000000000000003	1
bin	3.4000000000000004	1
bin	3.5	0
bin	3.6000000000000001	1
bin	3.7000000000000002	0
bin	3.8000000000000003	1
bin	3.8999999999999999	0
bin	4	0
bin	4.0999999999999996	0
bin	4.2000000000000002	0
bin	4.2999999999999998	1
bin	4.3999999999999995	0
bin	4.5	0
bin	4.5999999999999996	0
bin	4.6999999999999993	0
bin	4.7999999999999998	1
bin	4.8999999999999995	0
statistic RequestResponseTutorialStep.responseConsumer packetJitter:histogram
field count 963
field mean 0
field stddev 0.72255723368378966
field min -4.8049363635910005
field max 4.8049363635910005
field sum 0
field sqrsum 502.24957562271737
bin	-inf	0
bin	-5.0000000000000009	1
bin	-4.8000000000000007	0
bin	-4.6000000000000005	0
bin	-4.4000000000000004	1
bin	-4.2000000000000002	0
bin	-4	1
bin	-3.8000000000000007	1
bin	-3.6000000000000005	1
bin	-3.4000000000000004	2
bin	-3.2000000000000002	4
bin	-3.0000000000000004	0
bin	-2.8000000000000007	1
bin	-2.6000000000000005	3
bin	-2.4000000000000004	5
bin	-2.2000000000000002	6
bin	-2.0000000000000004	1
bin	-1.8000000000000003	1
bin	-1.6000000000000005	1
bin	-1.4000000000000004	3
bin	-1.2000000000000002	9
bin	-1.0000000000000004	8
bin	-0.80000000000000027	0
bin	-0.60000000000000053	1
bin	-0.40000000000000036	1
bin	-0.20000000000000018	0
bin	0	861
bin	0.20000000000000018	1
bin	0.39999999999999947	1
bin	0.59999999999999964	0
bin	0.79999999999999982	8
bin	1	9
bin	1.2000000000000002	3
bin	1.3999999999999995	1
bin	1.5999999999999996	1
bin	1.7999999999999998	1
bin	2	6
bin	2.2000000000000002	5
bin	2.3999999999999995	3
bin	2.5999999999999996	1
bin	2.7999999999999998	0
bin	3	4
bin	3.2000000000000002	2
bin	3.3999999999999995	1
bin	3.6000000000000005	1
bin	3.7999999999999998	1
bin	3.9999999999999991	0
bin	4.2000000000000002	1
bin	4.3999999999999995	0
bin	4.6000000000000005	0
bin	4.8000000000000007	1
bin	5.0000000000000009	0
statistic RequestResponseTutorialStep.responseConsumer packetDelayDifferenceToMean:histogram
field count 963
field mean 0.0010878195365164839
field stddev 0.49912796327094228
field min -4.6961355594607888
field max 0.13799870112694229
field sum 1.047570213665374
field sqrsum 239.66297178502143
bin	-inf	0
bin	-4.7000000000000011	1
bin	-4.6000000000000005	0
bin	-4.5000000000000009	0
bin	-4.4000000000000004	0
bin	-4.3000000000000007	1
bin	-4.2000000000000002	0
bin	-4.1000000000000005	0
bin	-4	0
bin	-3.9000000000000004	0
bin	-3.8000000000000003	1
bin	-3.7000000000000002	0
bin	-3.6000000000000001	1
bin	-3.5	0
bin	-3.4000000000000004	1
bin	-3.3000000000000003	1
bin	-3.2000000000000002	1
bin	-3.1000000000000001	2
bin	-3	1
bin	-2.9000000000000004	1
bin	-2.8000000000000003	0
bin	-2.7000000000000002	0
bin	-2.6000000000000001	1
bin	-2.5	1
bin	-2.4000000000000004	1
bin	-2.2999999999999998	3
bin	-2.2000000000000002	1
bin	-2.1000000000000001	5
bin	-2	3
bin	-1.9000000000000001	0
bin	-1.8	0
bin	-1.7000000000000002	1
bin	-1.6000000000000001	1
bin	-1.5	0
bin	-1.3999999999999999	0
bin	-1.2999999999999998	3
bin	-1.2000000000000002	1
bin	-1.1000000000000001	4
bin	-1	4
bin	-0.89999999999999991	4
bin	-0.79999999999999982	5
bin	-0.70000000000000018	0
bin	-0.60000000000000009	0
bin	-0.5	0
bin	-0.39999999999999991	1
bin	-0.29999999999999982	1
bin	-0.20000000000000018	0
bin	-0.10000000000000009	0
bin	0	53
bin	0.10000000000000009	859
bin	0.20000000000000018	0
bin	0.29999999999999982	0
bin	0.40000000000000036	0
bin	0.5	0
bin	0.59999999999999964	0
bin	0.70000000000000018	0
bin	0.79999999999999982	0
bin	0.90000000000000036	0
statistic RequestResponseTutorialStep.responseConsumer packetDelayVariation:histogram
field count 963
field mean 0.48100285616484045
field stddev 0.066467277095744445
field min 0
field max 0.54193411003375702
field sum 463.20575048674135
field sqrsum 227.05330774149166
bin	-inf	0
bin	0	10
bin	0.01	0
bin	0.02	0
bin	0.029999999999999999	0
bin	0.040000000000000001	0
bin	0.050000000000000003	0
bin	0.059999999999999998	0
bin	0.070000000000000007	0
bin	0.080000000000000002	0
bin	0.089999999999999997	0
bin	0.10000000000000001	0
bin	0.11	0
bin	0.12	0
bin	0.13	0
bin	0.14000000000000001	0
bin	0.14999999999999999	0
bin	0.16	0
bin	0.17000000000000001	0
bin	0.17999999999999999	0
bin	0.19	1
bin	0.20000000000000001	3
bin	0.20999999999999999	3
bin	0.22	2
bin	0.23000000000000001	2
bin	0.23999999999999999	1
bin	0.25	2
bin	0.26000000000000001	1
bin	0.27000000000000002	1
bin	0.28000000000000003	1
bin	0.28999999999999998	1
bin	0.29999999999999999	1
bin	0.31	1
bin	0.32000000000000001	0
bin	0.33000000000000002	0
bin	0.34000000000000002	0
bin	0.35000000000000003	1
bin	0.35999999999999999	2
bin	0.37	3
bin	0.38	4
bin	0.39000000000000001	4
bin	0.40000000000000002	2
bin	0.41000000000000003	2
bin	0.41999999999999998	11
bin	0.42999999999999999	12
bin	0.44	34
bin	0.45000000000000001	40
bin	0.46000000000000002	59
bin	0.47000000000000003	72
bin	0.47999999999999998	77
bin	0.48999999999999999	196
bin	0.5	197
bin	0.51000000000000001	149
bin	0.52000000000000002	37
bin	0.53000000000000003	30
bin	0.54000000000000004	1
bin	0.55000000000000004	0
bin	0.56000000000000005	0
bin	0.57000000000000006	0
bin	0.57999999999999996	0
bin	0.58999999999999997	0
bin	0.59999999999999998	0
bin	0.60999999999999999	0
bin	0.62	0
bin	0.63	0
bin	0.64000000000000001	0
bin	0.65000000000000002	0
bin	0.66000000000000003	0
bin	0.67000000000000004	0
bin	0.68000000000000005	0
statistic RequestResponseTutorialStep.responseConsumer droppedPacketLengths:histogram
field count 963
field mean 221.40809968847353
field stddev 246.75064769533847
field min 8
field max 800
field sum 213216
field sqrsum 105779968
bin	-inf	0
bin	0	113
bin	20	128
bin	40	158
bin	60	102
bin	80	49
bin	100	8
bin	120	16
bin	140	4
bin	160	17
bin	180	9
bin	200	6
bin	220	9
bin	240	18
bin	260	8
bin	280	17
bin	300	10
bin	320	20
bin	340	12
bin	360	17
bin	380	6
bin	400	22
bin	420	2
bin	440	9
bin	460	10
bin	480	10
bin	500	4
bin	520	8
bin	540	4
bin	560	16
bin	580	12
bin	600	18
bin	620	15
bin	640	17
bin	660	15
bin	680	7
bin	700	11
bin	720	22
bin	740	8
bin	760	9
bin	780	12
bin	800	5
bin	820	0
bin	840	0
bin	860	0
bin	880	0
bin	900	0
bin	920	0
bin	940	0
bin	960	0
bin	980	0
bin	1000	0
statistic RequestResponseTutorialStep.requestConsumer.queue queueingTime:histogram
field count 97
field mean 7.4194307058051097
field stddev 3.962904781502913
field min 0
field max 12.344868334812
field sum 719.68477846309565
field sqrsum 6847.2943173264703
bin	-inf	0
bin	0	5
bin	0.20000000000000001	0
bin	0.40000000000000002	1
bin	0.60000000000000009	2
bin	0.80000000000000004	3
bin	1	2
bin	1.2000000000000002	1
bin	1.4000000000000001	0
bin	1.6000000000000001	3
bin	1.8	1
bin	2	1
bin	2.2000000000000002	1
bin	2.4000000000000004	0
bin	2.6000000000000001	1
bin	2.8000000000000003	0
bin	3	1
bin	3.2000000000000002	0
bin	3.4000000000000004	0
bin	3.6000000000000001	1
bin	3.8000000000000003	0
bin	4	0
bin	4.2000000000000002	0
bin	4.4000000000000004	1
bin	4.6000000000000005	0
bin	4.8000000000000007	2
bin	5	1
bin	5.2000000000000002	0
bin	5.4000000000000004	0
bin	5.6000000000000005	2
bin	5.8000000000000007	2
bin	6	2
bin	6.2000000000000002	0
bin	6.4000000000000004	4
bin	6.6000000000000005	2
bin	6.8000000000000007	2
bin	7	1
bin	7.2000000000000002	2
bin	7.4000000000000004	0
bin	7.6000000000000005	1
bin	7.8000000000000007	0
bin	8	0
bin	8.2000000000000011	0
bin	8.4000000000000004	0
bin	8.5999999999999996	0
bin	8.8000000000000007	2
bin	9	2
bin	9.2000000000000011	3
bin	9.4000000000000004	0
bin	9.6000000000000014	2
bin	9.8000000000000007	1
bin	10	4
bin	10.200000000000001	4
bin	10.4	8
bin	10.600000000000001	6
bin	10.800000000000001	5
bin	11	2
bin	11.200000000000001	1
bin	11.4	5
bin	11.600000000000001	1
bin	11.800000000000001	4
bin	12	1
bin	12.200000000000001	1
bin	12.4	0
bin	12.600000000000001	0
bin	12.800000000000001	0
bin	13	0
bin	13.200000000000001	0
bin	13.4	0
bin	13.600000000000001	0
bin	13.800000000000001	0
bin	14	0
bin	14.200000000000001	0
bin	14.4	0
bin	14.600000000000001	0
bin	14.800000000000001	0
bin	15	0
bin	15.200000000000001	0
bin	15.4	0
bin	15.600000000000001	0
statistic RequestResponseTutorialStep.requestConsumer.queue outgoingPacketLengths:histogram
field count 97
field mean 8
field stddev 0
field min 8
field max 8
field sum 776
field sqrsum 6208
bin	-inf	0
bin	7	0
bin	8	97
bin	9	0
statistic RequestResponseTutorialStep.requestConsumer.queue flowQueueingTime:histogram
field count 0
field mean -nan
field stddev nan
field min nan
field max nan
field sum 0
field sqrsum 0
bin	-inf	0
bin	0	0
bin	1	0
statistic RequestResponseTutorialStep.requestConsumer.queue incomingPacketLengths:histogram
field count 108
field mean 8
field stddev 0
field min 8
field max 8
field sum 864
field sqrsum 6912
bin	-inf	0
bin	7	0
bin	8	108
bin	9	0
statistic RequestResponseTutorialStep.requestConsumer.server incomingPacketLengths:histogram
field count 97
field mean 8
field stddev 0
field min 8
field max 8
field sum 776
field sqrsum 6208
bin	-inf	0
bin	7	0
bin	8	97
bin	9	0
statistic RequestResponseTutorialStep.requestConsumer.server outgoingPacketLengths:histogram
field count 97
field mean 8
field stddev 0
field min 8
field max 8
field sum 776
field sqrsum 6208
bin	-inf	0
bin	7	0
bin	8	97
bin	9	0
statistic RequestResponseTutorialStep.requestConsumer.classifier packetLengths:histogram
field count 97
field mean 8
field stddev 0
field min 8
field max 8
field sum 776
field sqrsum 6208
bin	-inf	0
bin	7	0
bin	8	97
bin	9	0
statistic RequestResponseTutorialStep.responseProducer.provider[0] packetLengths:histogram
field count 490
field mean 41.616326530612248
field stddev 22.15689866062414
field min 8
field max 80
field sum 20392
field sqrsum 1088704
bin	-inf	0
bin	0	0
bin	2	0
bin	4	0
bin	6	0
bin	8	50
bin	10	0
bin	12	0
bin	14	0
bin	16	52
bin	18	0
bin	20	0
bin	22	0
bin	24	52
bin	26	0
bin	28	0
bin	30	0
bin	32	66
bin	34	0
bin	36	0
bin	38	0
bin	40	53
bin	42	0
bin	44	0
bin	46	0
bin	48	52
bin	50	0
bin	52	0
bin	54	0
bin	56	38
bin	58	0
bin	60	0
bin	62	0
bin	64	46
bin	66	0
bin	68	0
bin	70	0
bin	72	46
bin	74	0
bin	76	0
bin	78	0
bin	80	35
bin	82	0
bin	84	0
bin	86	0
bin	88	0
bin	90	0
bin	92	0
bin	94	0
bin	96	0
bin	98	0
statistic RequestResponseTutorialStep.responseProducer.provider[1] packetLengths:histogram
field count 473
field mean 407.66173361522198
field stddev 235.08156661156471
field min 8
field max 800
field sum 192824
field sqrsum 104691264
bin	-inf	0
bin	0	11
bin	20	10
bin	40	15
bin	60	10
bin	80	14
bin	100	8
bin	120	16
bin	140	4
bin	160	17
bin	180	9
bin	200	6
bin	220	9
bin	240	18
bin	260	8
bin	280	17
bin	300	10
bin	320	20
bin	340	12
bin	360	17
bin	380	6
bin	400	22
bin	420	2
bin	440	9
bin	460	10
bin	480	10
bin	500	4
bin	520	8
bin	540	4
bin	560	16
bin	580	12
bin	600	18
bin	620	15
bin	640	17
bin	660	15
bin	680	7
bin	700	11
bin	720	22
bin	740	8
bin	760	9
bin	780	12
bin	800	5
bin	820	0
bin	840	0
bin	860	0
bin	880	0
bin	900	0
bin	920	0
bin	940	0
bin	960	0
bin	980	0
bin	1000	0
statistic RequestResponseTutorialStep.responseProducer.server[0] incomingPacketLengths:histogram
field count 490
field mean 41.616326530612248
field stddev 22.15689866062414
field min 8
field max 80
field sum 20392
field sqrsum 1088704
bin	-inf	0
bin	0	0
bin	2	0
bin	4	0
bin	6	0
bin	8	50
bin	10	0
bin	12	0
bin	14	0
bin	16	52
bin	18	0
bin	20	0
bin	22	0
bin	24	52
bin	26	0
bin	28	0
bin	30	0
bin	32	66
bin	34	0
bin	36	0
bin	38	0
bin	40	53
bin	42	0
bin	44	0
bin	46	0
bin	48	52
bin	50	0
bin	52	0
bin	54	0
bin	56	38
bin	58	0
bin	60	0
bin	62	0
bin	64	46
bin	66	0
bin	68	0
bin	70	0
bin	72	46
bin	74	0
bin	76	0
bin	78	0
bin	80	35
bin	82	0
bin	84	0
bin	86	0
bin	88	0
bin	90	0
bin	92	0
bin	94	0
bin	96	0
bin	98	0
statistic RequestResponseTutorialStep.responseProducer.server[0] outgoingPacketLengths:histogram
field count 490
field mean 41.616326530612248
field stddev 22.15689866062414
field min 8
field max 80
field sum 20392
field sqrsum 1088704
bin	-inf	0
bin	0	0
bin	2	0
bin	4	0
bin	6	0
bin	8	50
bin	10	0
bin	12	0
bin	14	0
bin	16	52
bin	18	0
bin	20	0
bin	22	0
bin	24	52
bin	26	0
bin	28	0
bin	30	0
bin	32	66
bin	34	0
bin	36	0
bin	38	0
bin	40	53
bin	42	0
bin	44	0
bin	46	0
bin	48	52
bin	50	0
bin	52	0
bin	54	0
bin	56	38
bin	58	0
bin	60	0
bin	62	0
bin	64	46
bin	66	0
bin	68	0
bin	70	0
bin	72	46
bin	74	0
bin	76	0
bin	78	0
bin	80	35
bin	82	0
bin	84	0
bin	86	0
bin	88	0
bin	90	0
bin	92	0
bin	94	0
bin	96	0
bin	98	0
statistic RequestResponseTutorialStep.responseProducer.server[1] incomingPacketLengths:histogram
field count 473
field mean 407.66173361522198
field stddev 235.08156661156471
field min 8
field max 800
field sum 192824
field sqrsum 104691264
bin	-inf	0
bin	0	11
bin	20	10
bin	40	15
bin	60	10
bin	80	14
bin	100	8
bin	120	16
bin	140	4
bin	160	17
bin	180	9
bin	200	6
bin	220	9
bin	240	18
bin	260	8
bin	280	17
bin	300	10
bin	320	20
bin	340	12
bin	360	17
bin	380	6
bin	400	22
bin	420	2
bin	440	9
bin	460	10
bin	480	10
bin	500	4
bin	520	8
bin	540	4
bin	560	16
bin	580	12
bin	600	18
bin	620	15
bin	640	17
bin	660	15
bin	680	7
bin	700	11
bin	720	22
bin	740	8
bin	760	9
bin	780	12
bin	800	5
bin	820	0
bin	840	0
bin	860	0
bin	880	0
bin	900	0
bin	920	0
bin	940	0
bin	960	0
bin	980	0
bin	1000	0
statistic RequestResponseTutorialStep.responseProducer.server[1] outgoingPacketLengths:histogram
field count 473
field mean 407.66173361522198
field stddev 235.08156661156471
field min 8
field max 800
field sum 192824
field sqrsum 104691264
bin	-inf	0
bin	0	11
bin	20	10
bin	40	15
bin	60	10
bin	80	14
bin	100	8
bin	120	16
bin	140	4
bin	160	17
bin	180	9
bin	200	6
bin	220	9
bin	240	18
bin	260	8
bin	280	17
bin	300	10
bin	320	20
bin	340	12
bin	360	17
bin	380	6
bin	400	22
bin	420	2
bin	440	9
bin	460	10
bin	480	10
bin	500	4
bin	520	8
bin	540	4
bin	560	16
bin	580	12
bin	600	18
bin	620	15
bin	640	17
bin	660	15
bin	680	7
bin	700	11
bin	720	22
bin	740	8
bin	760	9
bin	780	12
bin	800	5
bin	820	0
bin	840	0
bin	860	0
bin	880	0
bin	900	0
bin	920	0
bin	940	0
bin	960	0
bin	980	0
bin	1000	0
statistic RequestResponseTutorialStep.responseProducer.multiplexer packetLengths:histogram
field count 0
field mean -nan
field stddev nan
field min nan
field max nan
field sum 0
field sqrsum 0
bin	-inf	0
bin	0	0
bin	1	0
scalar RequestResponseTutorialStep.requestProducer packetLengths:vector:count 108
scalar RequestResponseTutorialStep.requestProducer packetLengths:vector:sum 864
scalar RequestResponseTutorialStep.requestProducer packetLengths:vector:sumweights 108
scalar RequestResponseTutorialStep.requestProducer packetLengths:vector:mean 8
scalar RequestResponseTutorialStep.requestProducer packetLengths:vector:stddev 0
scalar RequestResponseTutorialStep.requestProducer packetLengths:vector:min 8
scalar RequestResponseTutorialStep.requestProducer packetLengths:vector:max 8
scalar RequestResponseTutorialStep.requestProducer packetLengths:vector:starttime 0
scalar RequestResponseTutorialStep.requestProducer packetLengths:vector:endtime 99.604378499087019
scalar RequestResponseTutorialStep.requestProducer dataRate:vector:count 1000
scalar RequestResponseTutorialStep.requestProducer dataRate:vector:sum 8640
scalar RequestResponseTutorialStep.requestProducer dataRate:vector:sumweights 1000
scalar RequestResponseTutorialStep.requestProducer dataRate:vector:mean 8.6400000000000006
scalar RequestResponseTutorialStep.requestProducer dataRate:vector:stddev 25.604804353988062
scalar RequestResponseTutorialStep.requestProducer dataRate:vector:min 0
scalar RequestResponseTutorialStep.requestProducer dataRate:vector:max 160
scalar RequestResponseTutorialStep.requestProducer dataRate:vector:starttime 0.10000000000000001
scalar RequestResponseTutorialStep.requestProducer dataRate:vector:endtime 100
scalar RequestResponseTutorialStep.responseConsumer droppedPacketLengths:vector:count 963
scalar RequestResponseTutorialStep.responseConsumer droppedPacketLengths:vector:sum 213216
scalar RequestResponseTutorialStep.responseConsumer droppedPacketLengths:vector:sumweights 963
scalar RequestResponseTutorialStep.responseConsumer droppedPacketLengths:vector:mean 221.40809968847353
scalar RequestResponseTutorialStep.responseConsumer droppedPacketLengths:vector:stddev 246.75064769533847
scalar RequestResponseTutorialStep.responseConsumer droppedPacketLengths:vector:min 8
scalar RequestResponseTutorialStep.responseConsumer droppedPacketLengths:vector:max 800
scalar RequestResponseTutorialStep.responseConsumer droppedPacketLengths:vector:starttime 0
scalar RequestResponseTutorialStep.responseConsumer droppedPacketLengths:vector:endtime 99.922440423730023
scalar RequestResponseTutorialStep.responseConsumer droppedDataRate:vector:count 1000
scalar RequestResponseTutorialStep.responseConsumer droppedDataRate:vector:sum 2132160
scalar RequestResponseTutorialStep.responseConsumer droppedDataRate:vector:sumweights 1000
scalar RequestResponseTutorialStep.responseConsumer droppedDataRate:vector:mean 2132.1599999999999
scalar RequestResponseTutorialStep.responseConsumer droppedDataRate:vector:stddev 3134.3178017684299
scalar RequestResponseTutorialStep.responseConsumer droppedDataRate:vector:min 0
scalar RequestResponseTutorialStep.responseConsumer droppedDataRate:vector:max 18960
scalar RequestResponseTutorialStep.responseConsumer droppedDataRate:vector:starttime 0.10000000000000001
scalar RequestResponseTutorialStep.responseConsumer droppedDataRate:vector:endtime 100
scalar RequestResponseTutorialStep.responseConsumer packetLengths:vector:count 963
scalar RequestResponseTutorialStep.responseConsumer packetLengths:vector:sum 213216
scalar RequestResponseTutorialStep.responseConsumer packetLengths:vector:sumweights 963
scalar RequestResponseTutorialStep.responseConsumer packetLengths:vector:mean 221.40809968847353
scalar RequestResponseTutorialStep.responseConsumer packetLengths:vector:stddev 246.75064769533847
scalar RequestResponseTutorialStep.responseConsumer packetLengths:vector:min 8
scalar RequestResponseTutorialStep.responseConsumer packetLengths:vector:max 800
scalar RequestResponseTutorialStep.responseConsumer packetLengths:vector:starttime 0
scalar RequestResponseTutorialStep.responseConsumer packetLengths:vector:endtime 99.922440423730023
scalar RequestResponseTutorialStep.responseConsumer dataRate:vector:count 1000
scalar RequestResponseTutorialStep.responseConsumer dataRate:vector:sum 2132160
scalar RequestResponseTutorialStep.responseConsumer dataRate:vector:sumweights 1000
scalar RequestResponseTutorialStep.responseConsumer dataRate:vector:mean 2132.1599999999999
scalar RequestResponseTutorialStep.responseConsumer dataRate:vector:stddev 3134.3178017684299
scalar RequestResponseTutorialStep.responseConsumer dataRate:vector:min 0
scalar RequestResponseTutorialStep.responseConsumer dataRate:vector:max 18960
scalar RequestResponseTutorialStep.responseConsumer dataRate:vector:starttime 0.10000000000000001
scalar RequestResponseTutorialStep.responseConsumer dataRate:vector:endtime 100
scalar RequestResponseTutorialStep.responseConsumer meanBitLifeTimePerPacket:vector:count 963
scalar RequestResponseTutorialStep.responseConsumer meanBitLifeTimePerPacket:vector:sum 99.955414320210011
scalar RequestResponseTutorialStep.responseConsumer meanBitLifeTimePerPacket:vector:sumweights 963
scalar RequestResponseTutorialStep.responseConsumer meanBitLifeTimePerPacket:vector:mean 0.10379586118401871
scalar RequestResponseTutorialStep.responseConsumer meanBitLifeTimePerPacket:vector:stddev 0.5002596306189554
scalar RequestResponseTutorialStep.responseConsumer meanBitLifeTimePerPacket:vector:min 0
scalar RequestResponseTutorialStep.responseConsumer meanBitLifeTimePerPacket:vector:max 4.8049363635910005
scalar RequestResponseTutorialStep.responseConsumer meanBitLifeTimePerPacket:vector:starttime 0
scalar RequestResponseTutorialStep.responseConsumer meanBitLifeTimePerPacket:vector:endtime 99.922440423730023
scalar RequestResponseTutorialStep.responseConsumer packetLifeTime:vector:count 963
scalar RequestResponseTutorialStep.responseConsumer packetLifeTime:vector:sum 99.955414320210011
scalar RequestResponseTutorialStep.responseConsumer packetLifeTime:vector:sumweights 963
scalar RequestResponseTutorialStep.responseConsumer packetLifeTime:vector:mean 0.10379586118401871
scalar RequestResponseTutorialStep.responseConsumer packetLifeTime:vector:stddev 0.5002596306189554
scalar RequestResponseTutorialStep.responseConsumer packetLifeTime:vector:min 0
scalar RequestResponseTutorialStep.responseConsumer packetLifeTime:vector:max 4.8049363635909996
scalar RequestResponseTutorialStep.responseConsumer packetLifeTime:vector:starttime 0
scalar RequestResponseTutorialStep.responseConsumer packetLifeTime:vector:endtime 99.922440423730023
scalar RequestResponseTutorialStep.responseConsumer packetJitter:vector:count 963
scalar RequestResponseTutorialStep.responseConsumer packetJitter:vector:sum 0
scalar RequestResponseTutorialStep.responseConsumer packetJitter:vector:sumweights 963
scalar RequestResponseTutorialStep.responseConsumer packetJitter:vector:mean 0
scalar RequestResponseTutorialStep.responseConsumer packetJitter:vector:stddev 0.72255723368378966
scalar RequestResponseTutorialStep.responseConsumer packetJitter:vector:min -4.8049363635910005
scalar RequestResponseTutorialStep.responseConsumer packetJitter:vector:max 4.8049363635910005
scalar RequestResponseTutorialStep.responseConsumer packetJitter:vector:starttime 0
scalar RequestResponseTutorialStep.responseConsumer packetJitter:vector:endtime 99.922440423730023
scalar RequestResponseTutorialStep.responseConsumer packetDelayDifferenceToMean:vector:count 963
scalar RequestResponseTutorialStep.responseConsumer packetDelayDifferenceToMean:vector:sum 1.047570213665374
scalar RequestResponseTutorialStep.responseConsumer packetDelayDifferenceToMean:vector:sumweights 963
scalar RequestResponseTutorialStep.responseConsumer packetDelayDifferenceToMean:vector:mean 0.0010878195365164839
scalar RequestResponseTutorialStep.responseConsumer packetDelayDifferenceToMean:vector:stddev 0.49912796327094228
scalar RequestResponseTutorialStep.responseConsumer packetDelayDifferenceToMean:vector:min -4.6961355594607888
scalar RequestResponseTutorialStep.responseConsumer packetDelayDifferenceToMean:vector:max 0.13799870112694229
scalar RequestResponseTutorialStep.responseConsumer packetDelayDifferenceToMean:vector:starttime 0
scalar RequestResponseTutorialStep.responseConsumer packetDelayDifferenceToMean:vector:endtime 99.922440423730023
scalar RequestResponseTutorialStep.responseConsumer packetDelayVariation:vector:count 963
scalar RequestResponseTutorialStep.responseConsumer packetDelayVariation:vector:sum 463.20575048674135
scalar RequestResponseTutorialStep.responseConsumer packetDelayVariation:vector:sumweights 963
scalar RequestResponseTutorialStep.responseConsumer packetDelayVariation:vector:mean 0.48100285616484045
scalar RequestResponseTutorialStep.responseConsumer packetDelayVariation:vector:stddev 0.066467277095744445
scalar RequestResponseTutorialStep.responseConsumer packetDelayVariation:vector:min 0
scalar RequestResponseTutorialStep.responseConsumer packetDelayVariation:vector:max 0.54193411003375702
scalar RequestResponseTutorialStep.responseConsumer packetDelayVariation:vector:starttime 0
scalar RequestResponseTutorialStep.responseConsumer packetDelayVariation:vector:endtime 99.922440423730023
scalar RequestResponseTutorialStep.requestConsumer.queue queueLength:vector:count 206
scalar RequestResponseTutorialStep.requestConsumer.queue queueLength:vector:sum 1587
scalar RequestResponseTutorialStep.requestConsumer.queue queueLength:vector:sumweights 206
scalar RequestResponseTutorialStep.requestConsumer.queue queueLength:vector:mean 7.7038834951456314
scalar RequestResponseTutorialStep.requestConsumer.queue queueLength:vector:stddev 3.9514967174871378
scalar RequestResponseTutorialStep.requestConsumer.queue queueLength:vector:min 0
scalar RequestResponseTutorialStep.requestConsumer.queue queueLength:vector:max 13
scalar RequestResponseTutorialStep.requestConsumer.queue queueLength:vector:starttime 0
scalar RequestResponseTutorialStep.requestConsumer.queue queueLength:vector:endtime 99.682616238583023
scalar RequestResponseTutorialStep.requestConsumer.queue queueBitLength:vector:count 206
scalar RequestResponseTutorialStep.requestConsumer.queue queueBitLength:vector:sum 12696
scalar RequestResponseTutorialStep.requestConsumer.queue queueBitLength:vector:sumweights 206
scalar RequestResponseTutorialStep.requestConsumer.queue queueBitLength:vector:mean 61.631067961165051
scalar RequestResponseTutorialStep.requestConsumer.queue queueBitLength:vector:stddev 31.611973739897103
scalar RequestResponseTutorialStep.requestConsumer.queue queueBitLength:vector:min 0
scalar RequestResponseTutorialStep.requestConsumer.queue queueBitLength:vector:max 104
scalar RequestResponseTutorialStep.requestConsumer.queue queueBitLength:vector:starttime 0
scalar RequestResponseTutorialStep.requestConsumer.queue queueBitLength:vector:endtime 99.682616238583023
scalar RequestResponseTutorialStep.requestConsumer.queue queueingTime:vector:count 97
scalar RequestResponseTutorialStep.requestConsumer.queue queueingTime:vector:sum 719.68477846309565
scalar RequestResponseTutorialStep.requestConsumer.queue queueingTime:vector:sumweights 97
scalar RequestResponseTutorialStep.requestConsumer.queue queueingTime:vector:mean 7.4194307058051097
scalar RequestResponseTutorialStep.requestConsumer.queue queueingTime:vector:stddev 3.962904781502913
scalar RequestResponseTutorialStep.requestConsumer.queue queueingTime:vector:min 0
scalar RequestResponseTutorialStep.requestConsumer.queue queueingTime:vector:max 12.344868334812
scalar RequestResponseTutorialStep.requestConsumer.queue queueingTime:vector:starttime 0
scalar RequestResponseTutorialStep.requestConsumer.queue queueingTime:vector:endtime 99.682616238583023
scalar RequestResponseTutorialStep.requestConsumer.queue incomingPacketLengths:vector:count 108
scalar RequestResponseTutorialStep.requestConsumer.queue incomingPacketLengths:vector:sum 864
scalar RequestResponseTutorialStep.requestConsumer.queue incomingPacketLengths:vector:sumweights 108
scalar RequestResponseTutorialStep.requestConsumer.queue incomingPacketLengths:vector:mean 8
scalar RequestResponseTutorialStep.requestConsumer.queue incomingPacketLengths:vector:stddev 0
scalar RequestResponseTutorialStep.requestConsumer.queue incomingPacketLengths:vector:min 8
scalar RequestResponseTutorialStep.requestConsumer.queue incomingPacketLengths:vector:max 8
scalar RequestResponseTutorialStep.requestConsumer.queue incomingPacketLengths:vector:starttime 0
scalar RequestResponseTutorialStep.requestConsumer.queue incomingPacketLengths:vector:endtime 99.604378499087019
scalar RequestResponseTutorialStep.requestConsumer.queue incomingDataRate:vector:count 1000
scalar RequestResponseTutorialStep.requestConsumer.queue incomingDataRate:vector:sum 8640
scalar RequestResponseTutorialStep.requestConsumer.queue incomingDataRate:vector:sumweights 1000
scalar RequestResponseTutorialStep.requestConsumer.queue incomingDataRate:vector:mean 8.6400000000000006
scalar RequestResponseTutorialStep.requestConsumer.queue incomingDataRate:vector:stddev 25.604804353988062
scalar RequestResponseTutorialStep.requestConsumer.queue incomingDataRate:vector:min 0
scalar RequestResponseTutorialStep.requestConsumer.queue incomingDataRate:vector:max 160
scalar RequestResponseTutorialStep.requestConsumer.queue incomingDataRate:vector:starttime 0.10000000000000001
scalar RequestResponseTutorialStep.requestConsumer.queue incomingDataRate:vector:endtime 100
scalar RequestResponseTutorialStep.requestConsumer.queue outgoingPacketLengths:vector:count 97
scalar RequestResponseTutorialStep.requestConsumer.queue outgoingPacketLengths:vector:sum 776
scalar RequestResponseTutorialStep.requestConsumer.queue outgoingPacketLengths:vector:sumweights 97
scalar RequestResponseTutorialStep.requestConsumer.queue outgoingPacketLengths:vector:mean 8
scalar RequestResponseTutorialStep.requestConsumer.queue outgoingPacketLengths:vector:stddev 0
scalar RequestResponseTutorialStep.requestConsumer.queue outgoingPacketLengths:vector:min 8
scalar RequestResponseTutorialStep.requestConsumer.queue outgoingPacketLengths:vector:max 8
scalar RequestResponseTutorialStep.requestConsumer.queue outgoingPacketLengths:vector:starttime 0
scalar RequestResponseTutorialStep.requestConsumer.queue outgoingPacketLengths:vector:endtime 99.682616238583023
scalar RequestResponseTutorialStep.requestConsumer.queue outgoingDataRate:vector:count 1000
scalar RequestResponseTutorialStep.requestConsumer.queue outgoingDataRate:vector:sum 7760
scalar RequestResponseTutorialStep.requestConsumer.queue outgoingDataRate:vector:sumweights 1000
scalar RequestResponseTutorialStep.requestConsumer.queue outgoingDataRate:vector:mean 7.7599999999999998
scalar RequestResponseTutorialStep.requestConsumer.queue outgoingDataRate:vector:stddev 23.688468577422721
scalar RequestResponseTutorialStep.requestConsumer.queue outgoingDataRate:vector:min 0
scalar RequestResponseTutorialStep.requestConsumer.queue outgoingDataRate:vector:max 80
scalar RequestResponseTutorialStep.requestConsumer.queue outgoingDataRate:vector:starttime 0.10000000000000001
scalar RequestResponseTutorialStep.requestConsumer.queue outgoingDataRate:vector:endtime 100
scalar RequestResponseTutorialStep.requestConsumer.queue droppedPacketLengthsQueueOverflow:vector:count 0
scalar RequestResponseTutorialStep.requestConsumer.queue droppedPacketLengthsQueueOverflow:vector:sum 0
scalar RequestResponseTutorialStep.requestConsumer.queue droppedPacketLengthsQueueOverflow:vector:sumweights 0
scalar RequestResponseTutorialStep.requestConsumer.queue droppedPacketLengthsQueueOverflow:vector:mean -nan
scalar RequestResponseTutorialStep.requestConsumer.queue droppedPacketLengthsQueueOverflow:vector:stddev nan
scalar RequestResponseTutorialStep.requestConsumer.queue droppedPacketLengthsQueueOverflow:vector:min inf
scalar RequestResponseTutorialStep.requestConsumer.queue droppedPacketLengthsQueueOverflow:vector:max -inf
scalar RequestResponseTutorialStep.requestConsumer.queue droppedPacketLengthsQueueOverflow:vector:starttime nan
scalar RequestResponseTutorialStep.requestConsumer.queue droppedPacketLengthsQueueOverflow:vector:endtime nan
scalar RequestResponseTutorialStep.requestConsumer.queue flowQueueingTime:vector:count 0
scalar RequestResponseTutorialStep.requestConsumer.queue flowQueueingTime:vector:sum 0
scalar RequestResponseTutorialStep.requestConsumer.queue flowQueueingTime:vector:sumweights 0
scalar RequestResponseTutorialStep.requestConsumer.queue flowQueueingTime:vector:mean -nan
scalar RequestResponseTutorialStep.requestConsumer.queue flowQueueingTime:vector:stddev nan
scalar RequestResponseTutorialStep.requestConsumer.queue flowQueueingTime:vector:min inf
scalar RequestResponseTutorialStep.requestConsumer.queue flowQueueingTime:vector:max -inf
scalar RequestResponseTutorialStep.requestConsumer.queue flowQueueingTime:vector:starttime nan
scalar RequestResponseTutorialStep.requestConsumer.queue flowQueueingTime:vector:endtime nan
scalar RequestResponseTutorialStep.requestConsumer.queue flowIncomingDataRate:vector:count 1000
scalar RequestResponseTutorialStep.requestConsumer.queue flowIncomingDataRate:vector:sum 0
scalar RequestResponseTutorialStep.requestConsumer.queue flowIncomingDataRate:vector:sumweights 1000
scalar RequestResponseTutorialStep.requestConsumer.queue flowIncomingDataRate:vector:mean 0
scalar RequestResponseTutorialStep.requestConsumer.queue flowIncomingDataRate:vector:stddev 0
scalar RequestResponseTutorialStep.requestConsumer.queue flowIncomingDataRate:vector:min 0
scalar RequestResponseTutorialStep.requestConsumer.queue flowIncomingDataRate:vector:max 0
scalar RequestResponseTutorialStep.requestConsumer.queue flowIncomingDataRate:vector:starttime 0.10000000000000001
scalar RequestResponseTutorialStep.requestConsumer.queue flowIncomingDataRate:vector:endtime 100
scalar RequestResponseTutorialStep.requestConsumer.queue flowOutgoingDataRate:vector:count 1000
scalar RequestResponseTutorialStep.requestConsumer.queue flowOutgoingDataRate:vector:sum 0
scalar RequestResponseTutorialStep.requestConsumer.queue flowOutgoingDataRate:vector:sumweights 1000
scalar RequestResponseTutorialStep.requestConsumer.queue flowOutgoingDataRate:vector:mean 0
scalar RequestResponseTutorialStep.requestConsumer.queue flowOutgoingDataRate:vector:stddev 0
scalar RequestResponseTutorialStep.requestConsumer.queue flowOutgoingDataRate:vector:min 0
scalar RequestResponseTutorialStep.requestConsumer.queue flowOutgoingDataRate:vector:max 0
scalar RequestResponseTutorialStep.requestConsumer.queue flowOutgoingDataRate:vector:starttime 0.10000000000000001
scalar RequestResponseTutorialStep.requestConsumer.queue flowOutgoingDataRate:vector:endtime 100
scalar RequestResponseTutorialStep.requestConsumer.server incomingPacketLengths:vector:count 97
scalar RequestResponseTutorialStep.requestConsumer.server incomingPacketLengths:vector:sum 776
scalar RequestResponseTutorialStep.requestConsumer.server incomingPacketLengths:vector:sumweights 97
scalar RequestResponseTutorialStep.requestConsumer.server incomingPacketLengths:vector:mean 8
scalar RequestResponseTutorialStep.requestConsumer.server incomingPacketLengths:vector:stddev 0
scalar RequestResponseTutorialStep.requestConsumer.server incomingPacketLengths:vector:min 8
scalar RequestResponseTutorialStep.requestConsumer.server incomingPacketLengths:vector:max 8
scalar RequestResponseTutorialStep.requestConsumer.server incomingPacketLengths:vector:starttime 0
scalar RequestResponseTutorialStep.requestConsumer.server incomingPacketLengths:vector:endtime 99.682616238583023
scalar RequestResponseTutorialStep.requestConsumer.server incomingDataRate:vector:count 1000
scalar RequestResponseTutorialStep.requestConsumer.server incomingDataRate:vector:sum 7760
scalar RequestResponseTutorialStep.requestConsumer.server incomingDataRate:vector:sumweights 1000
scalar RequestResponseTutorialStep.requestConsumer.server incomingDataRate:vector:mean 7.7599999999999998
scalar RequestResponseTutorialStep.requestConsumer.server incomingDataRate:vector:stddev 23.688468577422721
scalar RequestResponseTutorialStep.requestConsumer.server incomingDataRate:vector:min 0
scalar RequestResponseTutorialStep.requestConsumer.server incomingDataRate:vector:max 80
scalar RequestResponseTutorialStep.requestConsumer.server incomingDataRate:vector:starttime 0.10000000000000001
scalar RequestResponseTutorialStep.requestConsumer.server incomingDataRate:vector:endtime 100
scalar RequestResponseTutorialStep.requestConsumer.server outgoingPacketLengths:vector:count 97
scalar RequestResponseTutorialStep.requestConsumer.server outgoingPacketLengths:vector:sum 776
scalar RequestResponseTutorialStep.requestConsumer.server outgoingPacketLengths:vector:sumweights 97
scalar RequestResponseTutorialStep.requestConsumer.server outgoingPacketLengths:vector:mean 8
scalar RequestResponseTutorialStep.requestConsumer.server outgoingPacketLengths:vector:stddev 0
scalar RequestResponseTutorialStep.requestConsumer.server outgoingPacketLengths:vector:min 8
scalar RequestResponseTutorialStep.requestConsumer.server outgoingPacketLengths:vector:max 8
scalar RequestResponseTutorialStep.requestConsumer.server outgoingPacketLengths:vector:starttime 0
scalar RequestResponseTutorialStep.requestConsumer.server outgoingPacketLengths:vector:endtime 99.682616238583023
scalar RequestResponseTutorialStep.requestConsumer.server outgoingDataRate:vector:count 1000
scalar RequestResponseTutorialStep.requestConsumer.server outgoingDataRate:vector:sum 7760
scalar RequestResponseTutorialStep.requestConsumer.server outgoingDataRate:vector:sumweights 1000
scalar RequestResponseTutorialStep.requestConsumer.server outgoingDataRate:vector:mean 7.7599999999999998
scalar RequestResponseTutorialStep.requestConsumer.server outgoingDataRate:vector:stddev 23.688468577422721
scalar RequestResponseTutorialStep.requestConsumer.server outgoingDataRate:vector:min 0
scalar RequestResponseTutorialStep.requestConsumer.server outgoingDataRate:vector:max 80
scalar RequestResponseTutorialStep.requestConsumer.server outgoingDataRate:vector:starttime 0.10000000000000001
scalar RequestResponseTutorialStep.requestConsumer.server outgoingDataRate:vector:endtime 100
scalar RequestResponseTutorialStep.requestConsumer.server numTokens:vector:count 195
scalar RequestResponseTutorialStep.requestConsumer.server numTokens:vector:sum 9312
scalar RequestResponseTutorialStep.requestConsumer.server numTokens:vector:sumweights 195
scalar RequestResponseTutorialStep.requestConsumer.server numTokens:vector:mean 47.753846153846155
scalar RequestResponseTutorialStep.requestConsumer.server numTokens:vector:stddev 28.210200010198164
scalar RequestResponseTutorialStep.requestConsumer.server numTokens:vector:min 0
scalar RequestResponseTutorialStep.requestConsumer.server numTokens:vector:max 96
scalar RequestResponseTutorialStep.requestConsumer.server numTokens:vector:starttime 0
scalar RequestResponseTutorialStep.requestConsumer.server numTokens:vector:endtime 99.682616238583023
scalar RequestResponseTutorialStep.requestConsumer.classifier packetLengths:vector:count 97
scalar RequestResponseTutorialStep.requestConsumer.classifier packetLengths:vector:sum 776
scalar RequestResponseTutorialStep.requestConsumer.classifier packetLengths:vector:sumweights 97
scalar RequestResponseTutorialStep.requestConsumer.classifier packetLengths:vector:mean 8
scalar RequestResponseTutorialStep.requestConsumer.classifier packetLengths:vector:stddev 0
scalar RequestResponseTutorialStep.requestConsumer.classifier packetLengths:vector:min 8
scalar RequestResponseTutorialStep.requestConsumer.classifier packetLengths:vector:max 8
scalar RequestResponseTutorialStep.requestConsumer.classifier packetLengths:vector:starttime 0
scalar RequestResponseTutorialStep.requestConsumer.classifier packetLengths:vector:endtime 99.682616238583023
scalar RequestResponseTutorialStep.requestConsumer.classifier dataRate:vector:count 1000
scalar RequestResponseTutorialStep.requestConsumer.classifier dataRate:vector:sum 7760
scalar RequestResponseTutorialStep.requestConsumer.classifier dataRate:vector:sumweights 1000
scalar RequestResponseTutorialStep.requestConsumer.classifier dataRate:vector:mean 7.7599999999999998
scalar RequestResponseTutorialStep.requestConsumer.classifier dataRate:vector:stddev 23.688468577422721
scalar RequestResponseTutorialStep.requestConsumer.classifier dataRate:vector:min 0
scalar RequestResponseTutorialStep.requestConsumer.classifier dataRate:vector:max 80
scalar RequestResponseTutorialStep.requestConsumer.classifier dataRate:vector:starttime 0.10000000000000001
scalar RequestResponseTutorialStep.requestConsumer.classifier dataRate:vector:endtime 100
scalar RequestResponseTutorialStep.requestConsumer.tokenGenerator[0] numTokensCreated:vector:count 49
scalar RequestResponseTutorialStep.requestConsumer.tokenGenerator[0] numTokensCreated:vector:sum 490
scalar RequestResponseTutorialStep.requestConsumer.tokenGenerator[0] numTokensCreated:vector:sumweights 49
scalar RequestResponseTutorialStep.requestConsumer.tokenGenerator[0] numTokensCreated:vector:mean 10
scalar RequestResponseTutorialStep.requestConsumer.tokenGenerator[0] numTokensCreated:vector:stddev 0
scalar RequestResponseTutorialStep.requestConsumer.tokenGenerator[0] numTokensCreated:vector:min 10
scalar RequestResponseTutorialStep.requestConsumer.tokenGenerator[0] numTokensCreated:vector:max 10
scalar RequestResponseTutorialStep.requestConsumer.tokenGenerator[0] numTokensCreated:vector:starttime 1.0976270046090002
scalar RequestResponseTutorialStep.requestConsumer.tokenGenerator[0] numTokensCreated:vector:endtime 97.813781572514017
scalar RequestResponseTutorialStep.requestConsumer.tokenGenerator[1] numTokensCreated:vector:count 48
scalar RequestResponseTutorialStep.requestConsumer.tokenGenerator[1] numTokensCreated:vector:sum 480
scalar RequestResponseTutorialStep.requestConsumer.tokenGenerator[1] numTokensCreated:vector:sumweights 48
scalar RequestResponseTutorialStep.requestConsumer.tokenGenerator[1] numTokensCreated:vector:mean 10
scalar RequestResponseTutorialStep.requestConsumer.tokenGenerator[1] numTokensCreated:vector:stddev 0
scalar RequestResponseTutorialStep.requestConsumer.tokenGenerator[1] numTokensCreated:vector:min 10
scalar RequestResponseTutorialStep.requestConsumer.tokenGenerator[1] numTokensCreated:vector:max 10
scalar RequestResponseTutorialStep.requestConsumer.tokenGenerator[1] numTokensCreated:vector:starttime 0
scalar RequestResponseTutorialStep.requestConsumer.tokenGenerator[1] numTokensCreated:vector:endtime 99.682616238583023
scalar RequestResponseTutorialStep.responseProducer.provider[0] packetLengths:vector:count 490
scalar RequestResponseTutorialStep.responseProducer.provider[0] packetLengths:vector:sum 20392
scalar RequestResponseTutorialStep.responseProducer.provider[0] packetLengths:vector:sumweights 490
scalar RequestResponseTutorialStep.responseProducer.provider[0] packetLengths:vector:mean 41.616326530612248
scalar RequestResponseTutorialStep.responseProducer.provider[0] packetLengths:vector:stddev 22.15689866062414
scalar RequestResponseTutorialStep.responseProducer.provider[0] packetLengths:vector:min 8
scalar RequestResponseTutorialStep.responseProducer.provider[0] packetLengths:vector:max 80
scalar RequestResponseTutorialStep.responseProducer.provider[0] packetLengths:vector:starttime 1.0976270046090002
scalar RequestResponseTutorialStep.responseProducer.provider[0] packetLengths:vector:endtime 98.523549965125014
scalar RequestResponseTutorialStep.responseProducer.provider[0] dataRate:vector:count 1000
scalar RequestResponseTutorialStep.responseProducer.provider[0] dataRate:vector:sum 203920
scalar RequestResponseTutorialStep.responseProducer.provider[0] dataRate:vector:sumweights 1000
scalar RequestResponseTutorialStep.responseProducer.provider[0] dataRate:vector:mean 203.91999999999999
scalar RequestResponseTutorialStep.responseProducer.provider[0] dataRate:vector:stddev 336.14524721796562
scalar RequestResponseTutorialStep.responseProducer.provider[0] dataRate:vector:min 0
scalar RequestResponseTutorialStep.responseProducer.provider[0] dataRate:vector:max 1680.0000000000002
scalar RequestResponseTutorialStep.responseProducer.provider[0] dataRate:vector:starttime 0.10000000000000001
scalar RequestResponseTutorialStep.responseProducer.provider[0] dataRate:vector:endtime 100
scalar RequestResponseTutorialStep.responseProducer.provider[1] packetLengths:vector:count 473
scalar RequestResponseTutorialStep.responseProducer.provider[1] packetLengths:vector:sum 192824
scalar RequestResponseTutorialStep.responseProducer.provider[1] packetLengths:vector:sumweights 473
scalar RequestResponseTutorialStep.responseProducer.provider[1] packetLengths:vector:mean 407.66173361522198
scalar RequestResponseTutorialStep.responseProducer.provider[1] packetLengths:vector:stddev 235.08156661156471
scalar RequestResponseTutorialStep.responseProducer.provider[1] packetLengths:vector:min 8
scalar RequestResponseTutorialStep.responseProducer.provider[1] packetLengths:vector:max 800
scalar RequestResponseTutorialStep.responseProducer.provider[1] packetLengths:vector:starttime 0
scalar RequestResponseTutorialStep.responseProducer.provider[1] packetLengths:vector:endtime 99.922440423730023
scalar RequestResponseTutorialStep.responseProducer.provider[1] dataRate:vector:count 1000
scalar RequestResponseTutorialStep.responseProducer.provider[1] dataRate:vector:sum 1928240
scalar RequestResponseTutorialStep.responseProducer.provider[1] dataRate:vector:sumweights 1000
scalar RequestResponseTutorialStep.responseProducer.provider[1] dataRate:vector:mean 1928.24
scalar RequestResponseTutorialStep.responseProducer.provider[1] dataRate:vector:stddev 3227.6526833357157
scalar RequestResponseTutorialStep.responseProducer.provider[1] dataRate:vector:min 0
scalar RequestResponseTutorialStep.responseProducer.provider[1] dataRate:vector:max 18960
scalar RequestResponseTutorialStep.responseProducer.provider[1] dataRate:vector:starttime 0.10000000000000001
scalar RequestResponseTutorialStep.responseProducer.provider[1] dataRate:vector:endtime 100
scalar RequestResponseTutorialStep.responseProducer.server[0] incomingPacketLengths:vector:count 490
scalar RequestResponseTutorialStep.responseProducer.server[0] incomingPacketLengths:vector:sum 20392
scalar RequestResponseTutorialStep.responseProducer.server[0] incomingPacketLengths:vector:sumweights 490
scalar RequestResponseTutorialStep.responseProducer.server[0] incomingPacketLengths:vector:mean 41.616326530612248
scalar RequestResponseTutorialStep.responseProducer.server[0] incomingPacketLengths:vector:stddev 22.15689866062414
scalar RequestResponseTutorialStep.responseProducer.server[0] incomingPacketLengths:vector:min 8
scalar RequestResponseTutorialStep.responseProducer.server[0] incomingPacketLengths:vector:max 80
scalar RequestResponseTutorialStep.responseProducer.server[0] incomingPacketLengths:vector:starttime 1.0976270046090002
scalar RequestResponseTutorialStep.responseProducer.server[0] incomingPacketLengths:vector:endtime 98.523549965125014
scalar RequestResponseTutorialStep.responseProducer.server[0] incomingDataRate:vector:count 1000
scalar RequestResponseTutorialStep.responseProducer.server[0] incomingDataRate:vector:sum 203920
scalar RequestResponseTutorialStep.responseProducer.server[0] incomingDataRate:vector:sumweights 1000
scalar RequestResponseTutorialStep.responseProducer.server[0] incomingDataRate:vector:mean 203.91999999999999
scalar RequestResponseTutorialStep.responseProducer.server[0] incomingDataRate:vector:stddev 336.14524721796562
scalar RequestResponseTutorialStep.responseProducer.server[0] incomingDataRate:vector:min 0
scalar RequestResponseTutorialStep.responseProducer.server[0] incomingDataRate:vector:max 1680.0000000000002
scalar RequestResponseTutorialStep.responseProducer.server[0] incomingDataRate:vector:starttime 0.10000000000000001
scalar RequestResponseTutorialStep.responseProducer.server[0] incomingDataRate:vector:endtime 100
scalar RequestResponseTutorialStep.responseProducer.server[0] outgoingPacketLengths:vector:count 490
scalar RequestResponseTutorialStep.responseProducer.server[0] outgoingPacketLengths:vector:sum 20392
scalar RequestResponseTutorialStep.responseProducer.server[0] outgoingPacketLengths:vector:sumweights 490
scalar RequestResponseTutorialStep.responseProducer.server[0] outgoingPacketLengths:vector:mean 41.616326530612248
scalar RequestResponseTutorialStep.responseProducer.server[0] outgoingPacketLengths:vector:stddev 22.15689866062414
scalar RequestResponseTutorialStep.responseProducer.server[0] outgoingPacketLengths:vector:min 8
scalar RequestResponseTutorialStep.responseProducer.server[0] outgoingPacketLengths:vector:max 80
scalar RequestResponseTutorialStep.responseProducer.server[0] outgoingPacketLengths:vector:starttime 1.0976270046090002
scalar RequestResponseTutorialStep.responseProducer.server[0] outgoingPacketLengths:vector:endtime 98.523549965125014
scalar RequestResponseTutorialStep.responseProducer.server[0] outgoingDataRate:vector:count 1000
scalar RequestResponseTutorialStep.responseProducer.server[0] outgoingDataRate:vector:sum 203920
scalar RequestResponseTutorialStep.responseProducer.server[0] outgoingDataRate:vector:sumweights 1000
scalar RequestResponseTutorialStep.responseProducer.server[0] outgoingDataRate:vector:mean 203.91999999999999
scalar RequestResponseTutorialStep.responseProducer.server[0] outgoingDataRate:vector:stddev 336.14524721796562
scalar RequestResponseTutorialStep.responseProducer.server[0] outgoingDataRate:vector:min 0
scalar RequestResponseTutorialStep.responseProducer.server[0] outgoingDataRate:vector:max 1680.0000000000002
scalar RequestResponseTutorialStep.responseProducer.server[0] outgoingDataRate:vector:starttime 0.10000000000000001
scalar RequestResponseTutorialStep.responseProducer.server[0] outgoingDataRate:vector:endtime 100
scalar RequestResponseTutorialStep.responseProducer.server[0] numTokens:vector:count 541
scalar RequestResponseTutorialStep.responseProducer.server[0] numTokens:vector:sum -463540
scalar RequestResponseTutorialStep.responseProducer.server[0] numTokens:vector:sumweights 541
scalar RequestResponseTutorialStep.responseProducer.server[0] numTokens:vector:mean -856.82070240295752
scalar RequestResponseTutorialStep.responseProducer.server[0] numTokens:vector:stddev 497.49072131331155
scalar RequestResponseTutorialStep.responseProducer.server[0] numTokens:vector:min -1715
scalar RequestResponseTutorialStep.responseProducer.server[0] numTokens:vector:max 10
scalar RequestResponseTutorialStep.responseProducer.server[0] numTokens:vector:starttime 0
scalar RequestResponseTutorialStep.responseProducer.server[0] numTokens:vector:endtime 98.523549965125014
scalar RequestResponseTutorialStep.responseProducer.server[1] incomingPacketLengths:vector:count 473
scalar RequestResponseTutorialStep.responseProducer.server[1] incomingPacketLengths:vector:sum 192824
scalar RequestResponseTutorialStep.responseProducer.server[1] incomingPacketLengths:vector:sumweights 473
scalar RequestResponseTutorialStep.responseProducer.server[1] incomingPacketLengths:vector:mean 407.66173361522198
scalar RequestResponseTutorialStep.responseProducer.server[1] incomingPacketLengths:vector:stddev 235.08156661156471
scalar RequestResponseTutorialStep.responseProducer.server[1] incomingPacketLengths:vector:min 8
scalar RequestResponseTutorialStep.responseProducer.server[1] incomingPacketLengths:vector:max 800
scalar RequestResponseTutorialStep.responseProducer.server[1] incomingPacketLengths:vector:starttime 0
scalar RequestResponseTutorialStep.responseProducer.server[1] incomingPacketLengths:vector:endtime 99.922440423730023
scalar RequestResponseTutorialStep.responseProducer.server[1] incomingDataRate:vector:count 1000
scalar RequestResponseTutorialStep.responseProducer.server[1] incomingDataRate:vector:sum 1928240
scalar RequestResponseTutorialStep.responseProducer.server[1] incomingDataRate:vector:sumweights 1000
scalar RequestResponseTutorialStep.responseProducer.server[1] incomingDataRate:vector:mean 1928.24
scalar RequestResponseTutorialStep.responseProducer.server[1] incomingDataRate:vector:stddev 3227.6526833357157
scalar RequestResponseTutorialStep.responseProducer.server[1] incomingDataRate:vector:min 0
scalar RequestResponseTutorialStep.responseProducer.server[1] incomingDataRate:vector:max 18960
scalar RequestResponseTutorialStep.responseProducer.server[1] incomingDataRate:vector:starttime 0.10000000000000001
scalar RequestResponseTutorialStep.responseProducer.server[1] incomingDataRate:vector:endtime 100
scalar RequestResponseTutorialStep.responseProducer.server[1] outgoingPacketLengths:vector:count 473
scalar RequestResponseTutorialStep.responseProducer.server[1] outgoingPacketLengths:vector:sum 192824
scalar RequestResponseTutorialStep.responseProducer.server[1] outgoingPacketLengths:vector:sumweights 473
scalar RequestResponseTutorialStep.responseProducer.server[1] outgoingPacketLengths:vector:mean 407.66173361522198
scalar RequestResponseTutorialStep.responseProducer.server[1] outgoingPacketLengths:vector:stddev 235.08156661156471
scalar RequestResponseTutorialStep.responseProducer.server[1] outgoingPacketLengths:vector:min 8
scalar RequestResponseTutorialStep.responseProducer.server[1] outgoingPacketLengths:vector:max 800
scalar RequestResponseTutorialStep.responseProducer.server[1] outgoingPacketLengths:vector:starttime 0
scalar RequestResponseTutorialStep.responseProducer.server[1] outgoingPacketLengths:vector:endtime 99.922440423730023
scalar RequestResponseTutorialStep.responseProducer.server[1] outgoingDataRate:vector:count 1000
scalar RequestResponseTutorialStep.responseProducer.server[1] outgoingDataRate:vector:sum 1928240
scalar RequestResponseTutorialStep.responseProducer.server[1] outgoingDataRate:vector:sumweights 1000
scalar RequestResponseTutorialStep.responseProducer.server[1] outgoingDataRate:vector:mean 1928.24
scalar RequestResponseTutorialStep.responseProducer.server[1] outgoingDataRate:vector:stddev 3227.6526833357157
scalar RequestResponseTutorialStep.responseProducer.server[1] outgoingDataRate:vector:min 0
scalar RequestResponseTutorialStep.responseProducer.server[1] outgoingDataRate:vector:max 18960
scalar RequestResponseTutorialStep.responseProducer.server[1] outgoingDataRate:vector:starttime 0.10000000000000001
scalar RequestResponseTutorialStep.responseProducer.server[1] outgoingDataRate:vector:endtime 100
scalar RequestResponseTutorialStep.responseProducer.server[1] numTokens:vector:count 523
scalar RequestResponseTutorialStep.responseProducer.server[1] numTokens:vector:sum -433115
scalar RequestResponseTutorialStep.responseProducer.server[1] numTokens:vector:sumweights 523
scalar RequestResponseTutorialStep.responseProducer.server[1] numTokens:vector:mean -828.13575525812621
scalar RequestResponseTutorialStep.responseProducer.server[1] numTokens:vector:stddev 480.87768448492966
scalar RequestResponseTutorialStep.responseProducer.server[1] numTokens:vector:min -1659
scalar RequestResponseTutorialStep.responseProducer.server[1] numTokens:vector:max 10
scalar RequestResponseTutorialStep.responseProducer.server[1] numTokens:vector:starttime 0
scalar RequestResponseTutorialStep.responseProducer.server[1] numTokens:vector:endtime 99.922440423730023
scalar RequestResponseTutorialStep.responseProducer.multiplexer packetLengths:vector:count 0
scalar RequestResponseTutorialStep.responseProducer.multiplexer packetLengths:vector:sum 0
scalar RequestResponseTutorialStep.responseProducer.multiplexer packetLengths:vector:sumweights 0
scalar RequestResponseTutorialStep.responseProducer.multiplexer packetLengths:vector:mean -nan
scalar RequestResponseTutorialStep.responseProducer.multiplexer packetLengths:vector:stddev nan
scalar RequestResponseTutorialStep.responseProducer.multiplexer packetLengths:vector:min inf
scalar RequestResponseTutorialStep.responseProducer.multiplexer packetLengths:vector:max -inf
scalar RequestResponseTutorialStep.responseProducer.multiplexer packetLengths:vector:starttime nan
scalar RequestResponseTutorialStep.responseProducer.multiplexer packetLengths:vector:endtime nan
scalar RequestResponseTutorialStep.responseProducer.multiplexer dataRate:vector:count 1000
scalar RequestResponseTutorialStep.responseProducer.multiplexer dataRate:vector:sum 0
scalar RequestResponseTutorialStep.responseProducer.multiplexer dataRate:vector:sumweights 1000
scalar RequestResponseTutorialStep.responseProducer.multiplexer dataRate:vector:mean 0
scalar RequestResponseTutorialStep.responseProducer.multiplexer dataRate:vector:stddev 0
scalar RequestResponseTutorialStep.responseProducer.multiplexer dataRate:vector:min 0
scalar RequestResponseTutorialStep.responseProducer.multiplexer dataRate:vector:max 0
scalar RequestResponseTutorialStep.responseProducer.multiplexer dataRate:vector:starttime 0.10000000000000001
scalar RequestResponseTutorialStep.responseProducer.multiplexer dataRate:vector:endtime 100
scalar RequestResponseTutorialStep.responseProducer.tokenGenerator numTokensCreated:vector:count 96
scalar RequestResponseTutorialStep.responseProducer.tokenGenerator numTokensCreated:vector:sum 96
scalar RequestResponseTutorialStep.responseProducer.tokenGenerator numTokensCreated:vector:sumweights 96
scalar RequestResponseTutorialStep.responseProducer.tokenGenerator numTokensCreated:vector:mean 1
scalar RequestResponseTutorialStep.responseProducer.tokenGenerator numTokensCreated:vector:stddev 0
scalar RequestResponseTutorialStep.responseProducer.tokenGenerator numTokensCreated:vector:min 1
scalar RequestResponseTutorialStep.responseProducer.tokenGenerator numTokensCreated:vector:max 1
scalar RequestResponseTutorialStep.responseProducer.tokenGenerator numTokensCreated:vector:starttime 0.94756277613300022
scalar RequestResponseTutorialStep.responseProducer.tokenGenerator numTokensCreated:vector:endtime 99.682616238583023

