version 3
run TimeBasedTokenGenerator-0-20250108-11:39:43-15615
attr configname TimeBasedTokenGenerator
attr datetime 20250108-11:39:43
attr datetimef 20250108-113943
attr experiment TimeBasedTokenGenerator
attr inifile omnetpp.ini
attr iterationvars ""
attr iterationvarsd ""
attr iterationvarsf ""
attr measurement ""
attr network TimeBasedTokenGeneratorTutorialStep
attr processid 15615
attr repetition 0
attr replication #0
attr resultdir results
attr runnumber 0
attr seedset 0
config **.param-recording false
config image-path /home/levy/workspace/inet/images
config output-scalar-file results/omnetpp.ini-TimeBasedTokenGenerator-#0.sca
config output-vector-file results/omnetpp.ini-TimeBasedTokenGenerator-#0.vec
config sim-time-limit 10s
config network TimeBasedTokenGeneratorTutorialStep
config sim-time-limit 10s
config *.provider.packetLength 1B
config *.tokenGenerator.generationInterval intuniform(1s,2s)
config *.tokenGenerator.numTokens intuniform(1,2)
config *.server.tokenConsumptionPerPacket intuniform(1,2)

scalar TimeBasedTokenGeneratorTutorialStep.provider packets:count 6
scalar TimeBasedTokenGeneratorTutorialStep.provider packetLengths:sum 48
scalar TimeBasedTokenGeneratorTutorialStep.server numTokensDepleted:count 5
scalar TimeBasedTokenGeneratorTutorialStep.server removedTokens:sum 6
scalar TimeBasedTokenGeneratorTutorialStep.server addedTokens:sum 11
scalar TimeBasedTokenGeneratorTutorialStep.server incomingPackets:count 6
scalar TimeBasedTokenGeneratorTutorialStep.server incomingPacketLengths:sum 48
scalar TimeBasedTokenGeneratorTutorialStep.server outgoingPackets:count 6
scalar TimeBasedTokenGeneratorTutorialStep.server outgoingPacketLengths:sum 48
scalar TimeBasedTokenGeneratorTutorialStep.consumer packets:count 6
scalar TimeBasedTokenGeneratorTutorialStep.consumer packetLengths:sum 48
scalar TimeBasedTokenGeneratorTutorialStep.consumer droppedPackets:count 6
scalar TimeBasedTokenGeneratorTutorialStep.consumer droppedPacketLengths:sum 48
scalar TimeBasedTokenGeneratorTutorialStep.tokenGenerator tokensCreated:count 6
scalar TimeBasedTokenGeneratorTutorialStep.tokenGenerator numTokensCreated:sum 8
scalar TimeBasedTokenGeneratorTutorialStep.provider packetLengths:histogram:count 6
scalar TimeBasedTokenGeneratorTutorialStep.provider packetLengths:histogram:sumweights 6
scalar TimeBasedTokenGeneratorTutorialStep.provider packetLengths:histogram:mean 8
scalar TimeBasedTokenGeneratorTutorialStep.provider packetLengths:histogram:stddev 0
scalar TimeBasedTokenGeneratorTutorialStep.provider packetLengths:histogram:min 8
scalar TimeBasedTokenGeneratorTutorialStep.provider packetLengths:histogram:max 8
scalar TimeBasedTokenGeneratorTutorialStep.provider packetLengths:histogram:numbins 2
scalar TimeBasedTokenGeneratorTutorialStep.provider packetLengths:histogram:rangemin 7
scalar TimeBasedTokenGeneratorTutorialStep.provider packetLengths:histogram:rangemax 9
scalar TimeBasedTokenGeneratorTutorialStep.provider packetLengths:histogram:underflows 0
scalar TimeBasedTokenGeneratorTutorialStep.provider packetLengths:histogram:overflows 0
scalar TimeBasedTokenGeneratorTutorialStep.server incomingPacketLengths:histogram:count 6
scalar TimeBasedTokenGeneratorTutorialStep.server incomingPacketLengths:histogram:sumweights 6
scalar TimeBasedTokenGeneratorTutorialStep.server incomingPacketLengths:histogram:mean 8
scalar TimeBasedTokenGeneratorTutorialStep.server incomingPacketLengths:histogram:stddev 0
scalar TimeBasedTokenGeneratorTutorialStep.server incomingPacketLengths:histogram:min 8
scalar TimeBasedTokenGeneratorTutorialStep.server incomingPacketLengths:histogram:max 8
scalar TimeBasedTokenGeneratorTutorialStep.server incomingPacketLengths:histogram:numbins 2
scalar TimeBasedTokenGeneratorTutorialStep.server incomingPacketLengths:histogram:rangemin 7
scalar TimeBasedTokenGeneratorTutorialStep.server incomingPacketLengths:histogram:rangemax 9
scalar TimeBasedTokenGeneratorTutorialStep.server incomingPacketLengths:histogram:underflows 0
scalar TimeBasedTokenGeneratorTutorialStep.server incomingPacketLengths:histogram:overflows 0
scalar TimeBasedTokenGeneratorTutorialStep.server outgoingPacketLengths:histogram:count 6
scalar TimeBasedTokenGeneratorTutorialStep.server outgoingPacketLengths:histogram:sumweights 6
scalar TimeBasedTokenGeneratorTutorialStep.server outgoingPacketLengths:histogram:mean 8
scalar TimeBasedTokenGeneratorTutorialStep.server outgoingPacketLengths:histogram:stddev 0
scalar TimeBasedTokenGeneratorTutorialStep.server outgoingPacketLengths:histogram:min 8
scalar TimeBasedTokenGeneratorTutorialStep.server outgoingPacketLengths:histogram:max 8
scalar TimeBasedTokenGeneratorTutorialStep.server outgoingPacketLengths:histogram:numbins 2
scalar TimeBasedTokenGeneratorTutorialStep.server outgoingPacketLengths:histogram:rangemin 7
scalar TimeBasedTokenGeneratorTutorialStep.server outgoingPacketLengths:histogram:rangemax 9
scalar TimeBasedTokenGeneratorTutorialStep.server outgoingPacketLengths:histogram:underflows 0
scalar TimeBasedTokenGeneratorTutorialStep.server outgoingPacketLengths:histogram:overflows 0
scalar TimeBasedTokenGeneratorTutorialStep.consumer packetLengths:histogram:count 6
scalar TimeBasedTokenGeneratorTutorialStep.consumer packetLengths:histogram:sumweights 6
scalar TimeBasedTokenGeneratorTutorialStep.consumer packetLengths:histogram:mean 8
scalar TimeBasedTokenGeneratorTutorialStep.consumer packetLengths:histogram:stddev 0
scalar TimeBasedTokenGeneratorTutorialStep.consumer packetLengths:histogram:min 8
scalar TimeBasedTokenGeneratorTutorialStep.consumer packetLengths:histogram:max 8
scalar TimeBasedTokenGeneratorTutorialStep.consumer packetLengths:histogram:numbins 2
scalar TimeBasedTokenGeneratorTutorialStep.consumer packetLengths:histogram:rangemin 7
scalar TimeBasedTokenGeneratorTutorialStep.consumer packetLengths:histogram:rangemax 9
scalar TimeBasedTokenGeneratorTutorialStep.consumer packetLengths:histogram:underflows 0
scalar TimeBasedTokenGeneratorTutorialStep.consumer packetLengths:histogram:overflows 0
scalar TimeBasedTokenGeneratorTutorialStep.consumer meanBitLifeTimePerPacket:histogram:count 6
scalar TimeBasedTokenGeneratorTutorialStep.consumer meanBitLifeTimePerPacket:histogram:sumweights 6
scalar TimeBasedTokenGeneratorTutorialStep.consumer meanBitLifeTimePerPacket:histogram:mean 1.1666666666667
scalar TimeBasedTokenGeneratorTutorialStep.consumer meanBitLifeTimePerPacket:histogram:stddev 0.98319208025018
scalar TimeBasedTokenGeneratorTutorialStep.consumer meanBitLifeTimePerPacket:histogram:min 0
scalar TimeBasedTokenGeneratorTutorialStep.consumer meanBitLifeTimePerPacket:histogram:max 2
scalar TimeBasedTokenGeneratorTutorialStep.consumer meanBitLifeTimePerPacket:histogram:numbins 3
scalar TimeBasedTokenGeneratorTutorialStep.consumer meanBitLifeTimePerPacket:histogram:rangemin 0
scalar TimeBasedTokenGeneratorTutorialStep.consumer meanBitLifeTimePerPacket:histogram:rangemax 3
scalar TimeBasedTokenGeneratorTutorialStep.consumer meanBitLifeTimePerPacket:histogram:underflows 0
scalar TimeBasedTokenGeneratorTutorialStep.consumer meanBitLifeTimePerPacket:histogram:overflows 0
scalar TimeBasedTokenGeneratorTutorialStep.consumer packetJitter:histogram:count 6
scalar TimeBasedTokenGeneratorTutorialStep.consumer packetJitter:histogram:sumweights 6
scalar TimeBasedTokenGeneratorTutorialStep.consumer packetJitter:histogram:mean 0
scalar TimeBasedTokenGeneratorTutorialStep.consumer packetJitter:histogram:stddev 1.4142135623731
scalar TimeBasedTokenGeneratorTutorialStep.consumer packetJitter:histogram:min -2
scalar TimeBasedTokenGeneratorTutorialStep.consumer packetJitter:histogram:max 2
scalar TimeBasedTokenGeneratorTutorialStep.consumer packetJitter:histogram:numbins 6
scalar TimeBasedTokenGeneratorTutorialStep.consumer packetJitter:histogram:rangemin -3
scalar TimeBasedTokenGeneratorTutorialStep.consumer packetJitter:histogram:rangemax 3
scalar TimeBasedTokenGeneratorTutorialStep.consumer packetJitter:histogram:underflows 0
scalar TimeBasedTokenGeneratorTutorialStep.consumer packetJitter:histogram:overflows 0
scalar TimeBasedTokenGeneratorTutorialStep.consumer packetDelayDifferenceToMean:histogram:count 6
scalar TimeBasedTokenGeneratorTutorialStep.consumer packetDelayDifferenceToMean:histogram:sumweights 6
scalar TimeBasedTokenGeneratorTutorialStep.consumer packetDelayDifferenceToMean:histogram:mean 0.51111111111112
scalar TimeBasedTokenGeneratorTutorialStep.consumer packetDelayDifferenceToMean:histogram:stddev 0.66388307761287
scalar TimeBasedTokenGeneratorTutorialStep.consumer packetDelayDifferenceToMean:histogram:min 0
scalar TimeBasedTokenGeneratorTutorialStep.consumer packetDelayDifferenceToMean:histogram:max 1.5
scalar TimeBasedTokenGeneratorTutorialStep.consumer packetDelayDifferenceToMean:histogram:numbins 94
scalar TimeBasedTokenGeneratorTutorialStep.consumer packetDelayDifferenceToMean:histogram:rangemin 0
scalar TimeBasedTokenGeneratorTutorialStep.consumer packetDelayDifferenceToMean:histogram:rangemax 1.88
scalar TimeBasedTokenGeneratorTutorialStep.consumer packetDelayDifferenceToMean:histogram:underflows 0
scalar TimeBasedTokenGeneratorTutorialStep.consumer packetDelayDifferenceToMean:histogram:overflows 0
scalar TimeBasedTokenGeneratorTutorialStep.consumer packetDelayVariation:histogram:count 6
scalar TimeBasedTokenGeneratorTutorialStep.consumer packetDelayVariation:histogram:sumweights 6
scalar TimeBasedTokenGeneratorTutorialStep.consumer packetDelayVariation:histogram:mean 0.66827263838477
scalar TimeBasedTokenGeneratorTutorialStep.consumer packetDelayVariation:histogram:stddev 0.76350153677229
scalar TimeBasedTokenGeneratorTutorialStep.consumer packetDelayVariation:histogram:min -0
scalar TimeBasedTokenGeneratorTutorialStep.consumer packetDelayVariation:histogram:max 1.7320508075689
scalar TimeBasedTokenGeneratorTutorialStep.consumer packetDelayVariation:histogram:numbins 44
scalar TimeBasedTokenGeneratorTutorialStep.consumer packetDelayVariation:histogram:rangemin 0
scalar TimeBasedTokenGeneratorTutorialStep.consumer packetDelayVariation:histogram:rangemax 2.2
scalar TimeBasedTokenGeneratorTutorialStep.consumer packetDelayVariation:histogram:underflows 0
scalar TimeBasedTokenGeneratorTutorialStep.consumer packetDelayVariation:histogram:overflows 0
scalar TimeBasedTokenGeneratorTutorialStep.consumer droppedPacketLengths:histogram:count 6
scalar TimeBasedTokenGeneratorTutorialStep.consumer droppedPacketLengths:histogram:sumweights 6
scalar TimeBasedTokenGeneratorTutorialStep.consumer droppedPacketLengths:histogram:mean 8
scalar TimeBasedTokenGeneratorTutorialStep.consumer droppedPacketLengths:histogram:stddev 0
scalar TimeBasedTokenGeneratorTutorialStep.consumer droppedPacketLengths:histogram:min 8
scalar TimeBasedTokenGeneratorTutorialStep.consumer droppedPacketLengths:histogram:max 8
scalar TimeBasedTokenGeneratorTutorialStep.consumer droppedPacketLengths:histogram:numbins 2
scalar TimeBasedTokenGeneratorTutorialStep.consumer droppedPacketLengths:histogram:rangemin 7
scalar TimeBasedTokenGeneratorTutorialStep.consumer droppedPacketLengths:histogram:rangemax 9
scalar TimeBasedTokenGeneratorTutorialStep.consumer droppedPacketLengths:histogram:underflows 0
scalar TimeBasedTokenGeneratorTutorialStep.consumer droppedPacketLengths:histogram:overflows 0
statistic TimeBasedTokenGeneratorTutorialStep.provider packetLengths:histogram
field count 6
field mean 8
field stddev 0
field min 8
field max 8
field sum 48
field sqrsum 384
bin	-inf	0
bin	7	0
bin	8	6
bin	9	0
statistic TimeBasedTokenGeneratorTutorialStep.server incomingPacketLengths:histogram
field count 6
field mean 8
field stddev 0
field min 8
field max 8
field sum 48
field sqrsum 384
bin	-inf	0
bin	7	0
bin	8	6
bin	9	0
statistic TimeBasedTokenGeneratorTutorialStep.server outgoingPacketLengths:histogram
field count 6
field mean 8
field stddev 0
field min 8
field max 8
field sum 48
field sqrsum 384
bin	-inf	0
bin	7	0
bin	8	6
bin	9	0
statistic TimeBasedTokenGeneratorTutorialStep.consumer packetLengths:histogram
field count 6
field mean 8
field stddev 0
field min 8
field max 8
field sum 48
field sqrsum 384
bin	-inf	0
bin	7	0
bin	8	6
bin	9	0
statistic TimeBasedTokenGeneratorTutorialStep.consumer meanBitLifeTimePerPacket:histogram
field count 6
field mean 1.1666666666667
field stddev 0.98319208025018
field min 0
field max 2
field sum 7
field sqrsum 13
bin	-inf	0
bin	0	2
bin	1	1
bin	2	3
bin	3	0
statistic TimeBasedTokenGeneratorTutorialStep.consumer packetJitter:histogram
field count 6
field mean 0
field stddev 1.4142135623731
field min -2
field max 2
field sum 0
field sqrsum 10
bin	-inf	0
bin	-3	0
bin	-2	1
bin	-1	1
bin	0	2
bin	1	1
bin	2	1
bin	3	0
statistic TimeBasedTokenGeneratorTutorialStep.consumer packetDelayDifferenceToMean:histogram
field count 6
field mean 0.51111111111112
field stddev 0.66388307761287
field min 0
field max 1.5
field sum 3.0666666666667
field sqrsum 3.7711111111111
bin	-inf	0
bin	0	3
bin	0.02	0
bin	0.04	0
bin	0.06	0
bin	0.08	0
bin	0.1	0
bin	0.12	0
bin	0.14	0
bin	0.16	0
bin	0.18	0
bin	0.2	0
bin	0.22	0
bin	0.24	0
bin	0.26	0
bin	0.28	0
bin	0.3	0
bin	0.32	0
bin	0.34	0
bin	0.36	0
bin	0.38	1
bin	0.4	0
bin	0.42	0
bin	0.44	0
bin	0.46	0
bin	0.48	0
bin	0.5	0
bin	0.52	0
bin	0.54	0
bin	0.56	0
bin	0.58	0
bin	0.6	0
bin	0.62	0
bin	0.64	0
bin	0.66	0
bin	0.68	0
bin	0.7	0
bin	0.72	0
bin	0.74	0
bin	0.76	0
bin	0.78	0
bin	0.8	0
bin	0.82	0
bin	0.84	0
bin	0.86	0
bin	0.88	0
bin	0.9	0
bin	0.92	0
bin	0.94	0
bin	0.96	0
bin	0.98	0
bin	1	0
bin	1.02	0
bin	1.04	0
bin	1.06	0
bin	1.08	0
bin	1.1	0
bin	1.12	0
bin	1.14	0
bin	1.16	1
bin	1.18	0
bin	1.2	0
bin	1.22	0
bin	1.24	0
bin	1.26	0
bin	1.28	0
bin	1.3	0
bin	1.32	0
bin	1.34	0
bin	1.36	0
bin	1.38	0
bin	1.4	0
bin	1.42	0
bin	1.44	0
bin	1.46	0
bin	1.48	0
bin	1.5	1
bin	1.52	0
bin	1.54	0
bin	1.56	0
bin	1.58	0
bin	1.6	0
bin	1.62	0
bin	1.64	0
bin	1.66	0
bin	1.68	0
bin	1.7	0
bin	1.72	0
bin	1.74	0
bin	1.76	0
bin	1.78	0
bin	1.8	0
bin	1.82	0
bin	1.84	0
bin	1.86	0
bin	1.88	0
statistic TimeBasedTokenGeneratorTutorialStep.consumer packetDelayVariation:histogram
field count 6
field mean 0.66827263838477
field stddev 0.76350153677229
field min -0
field max 1.7320508075689
field sum 4.0096358303086
field sqrsum 5.5942028985507
bin	-inf	0
bin	0	3
bin	0.05	0
bin	0.1	0
bin	0.15	0
bin	0.2	0
bin	0.25	0
bin	0.3	0
bin	0.35	0
bin	0.4	0
bin	0.45	0
bin	0.5	0
bin	0.55	0
bin	0.6	0
bin	0.65	0
bin	0.7	0
bin	0.75	0
bin	0.8	0
bin	0.85	0
bin	0.9	0
bin	0.95	0
bin	1	0
bin	1.05	0
bin	1.1	1
bin	1.15	1
bin	1.2	0
bin	1.25	0
bin	1.3	0
bin	1.35	0
bin	1.4	0
bin	1.45	0
bin	1.5	0
bin	1.55	0
bin	1.6	0
bin	1.65	0
bin	1.7	1
bin	1.75	0
bin	1.8	0
bin	1.85	0
bin	1.9	0
bin	1.95	0
bin	2	0
bin	2.05	0
bin	2.1	0
bin	2.15	0
bin	2.2	0
statistic TimeBasedTokenGeneratorTutorialStep.consumer droppedPacketLengths:histogram
field count 6
field mean 8
field stddev 0
field min 8
field max 8
field sum 48
field sqrsum 384
bin	-inf	0
bin	7	0
bin	8	6
bin	9	0
scalar TimeBasedTokenGeneratorTutorialStep.provider packetLengths:vector:count 6
scalar TimeBasedTokenGeneratorTutorialStep.provider packetLengths:vector:sum 48
scalar TimeBasedTokenGeneratorTutorialStep.provider packetLengths:vector:sumweights 6
scalar TimeBasedTokenGeneratorTutorialStep.provider packetLengths:vector:mean 8
scalar TimeBasedTokenGeneratorTutorialStep.provider packetLengths:vector:stddev 0
scalar TimeBasedTokenGeneratorTutorialStep.provider packetLengths:vector:min 8
scalar TimeBasedTokenGeneratorTutorialStep.provider packetLengths:vector:max 8
scalar TimeBasedTokenGeneratorTutorialStep.provider packetLengths:vector:starttime 2
scalar TimeBasedTokenGeneratorTutorialStep.provider packetLengths:vector:endtime 7
scalar TimeBasedTokenGeneratorTutorialStep.provider dataRate:vector:count 100
scalar TimeBasedTokenGeneratorTutorialStep.provider dataRate:vector:sum 480
scalar TimeBasedTokenGeneratorTutorialStep.provider dataRate:vector:sumweights 100
scalar TimeBasedTokenGeneratorTutorialStep.provider dataRate:vector:mean 4.8
scalar TimeBasedTokenGeneratorTutorialStep.provider dataRate:vector:stddev 24.96381219269
scalar TimeBasedTokenGeneratorTutorialStep.provider dataRate:vector:min 0
scalar TimeBasedTokenGeneratorTutorialStep.provider dataRate:vector:max 160
scalar TimeBasedTokenGeneratorTutorialStep.provider dataRate:vector:starttime 0.1
scalar TimeBasedTokenGeneratorTutorialStep.provider dataRate:vector:endtime 10
scalar TimeBasedTokenGeneratorTutorialStep.server incomingPacketLengths:vector:count 6
scalar TimeBasedTokenGeneratorTutorialStep.server incomingPacketLengths:vector:sum 48
scalar TimeBasedTokenGeneratorTutorialStep.server incomingPacketLengths:vector:sumweights 6
scalar TimeBasedTokenGeneratorTutorialStep.server incomingPacketLengths:vector:mean 8
scalar TimeBasedTokenGeneratorTutorialStep.server incomingPacketLengths:vector:stddev 0
scalar TimeBasedTokenGeneratorTutorialStep.server incomingPacketLengths:vector:min 8
scalar TimeBasedTokenGeneratorTutorialStep.server incomingPacketLengths:vector:max 8
scalar TimeBasedTokenGeneratorTutorialStep.server incomingPacketLengths:vector:starttime 2
scalar TimeBasedTokenGeneratorTutorialStep.server incomingPacketLengths:vector:endtime 7
scalar TimeBasedTokenGeneratorTutorialStep.server incomingDataRate:vector:count 100
scalar TimeBasedTokenGeneratorTutorialStep.server incomingDataRate:vector:sum 480
scalar TimeBasedTokenGeneratorTutorialStep.server incomingDataRate:vector:sumweights 100
scalar TimeBasedTokenGeneratorTutorialStep.server incomingDataRate:vector:mean 4.8
scalar TimeBasedTokenGeneratorTutorialStep.server incomingDataRate:vector:stddev 24.96381219269
scalar TimeBasedTokenGeneratorTutorialStep.server incomingDataRate:vector:min 0
scalar TimeBasedTokenGeneratorTutorialStep.server incomingDataRate:vector:max 160
scalar TimeBasedTokenGeneratorTutorialStep.server incomingDataRate:vector:starttime 0.1
scalar TimeBasedTokenGeneratorTutorialStep.server incomingDataRate:vector:endtime 10
scalar TimeBasedTokenGeneratorTutorialStep.server outgoingPacketLengths:vector:count 6
scalar TimeBasedTokenGeneratorTutorialStep.server outgoingPacketLengths:vector:sum 48
scalar TimeBasedTokenGeneratorTutorialStep.server outgoingPacketLengths:vector:sumweights 6
scalar TimeBasedTokenGeneratorTutorialStep.server outgoingPacketLengths:vector:mean 8
scalar TimeBasedTokenGeneratorTutorialStep.server outgoingPacketLengths:vector:stddev 0
scalar TimeBasedTokenGeneratorTutorialStep.server outgoingPacketLengths:vector:min 8
scalar TimeBasedTokenGeneratorTutorialStep.server outgoingPacketLengths:vector:max 8
scalar TimeBasedTokenGeneratorTutorialStep.server outgoingPacketLengths:vector:starttime 2
scalar TimeBasedTokenGeneratorTutorialStep.server outgoingPacketLengths:vector:endtime 7
scalar TimeBasedTokenGeneratorTutorialStep.server outgoingDataRate:vector:count 100
scalar TimeBasedTokenGeneratorTutorialStep.server outgoingDataRate:vector:sum 480
scalar TimeBasedTokenGeneratorTutorialStep.server outgoingDataRate:vector:sumweights 100
scalar TimeBasedTokenGeneratorTutorialStep.server outgoingDataRate:vector:mean 4.8
scalar TimeBasedTokenGeneratorTutorialStep.server outgoingDataRate:vector:stddev 24.96381219269
scalar TimeBasedTokenGeneratorTutorialStep.server outgoingDataRate:vector:min 0
scalar TimeBasedTokenGeneratorTutorialStep.server outgoingDataRate:vector:max 160
scalar TimeBasedTokenGeneratorTutorialStep.server outgoingDataRate:vector:starttime 0.1
scalar TimeBasedTokenGeneratorTutorialStep.server outgoingDataRate:vector:endtime 10
scalar TimeBasedTokenGeneratorTutorialStep.server numTokens:vector:count 13
scalar TimeBasedTokenGeneratorTutorialStep.server numTokens:vector:sum 41
scalar TimeBasedTokenGeneratorTutorialStep.server numTokens:vector:sumweights 13
scalar TimeBasedTokenGeneratorTutorialStep.server numTokens:vector:mean 3.1538461538462
scalar TimeBasedTokenGeneratorTutorialStep.server numTokens:vector:stddev 1.9081471748861
scalar TimeBasedTokenGeneratorTutorialStep.server numTokens:vector:min 0
scalar TimeBasedTokenGeneratorTutorialStep.server numTokens:vector:max 6
scalar TimeBasedTokenGeneratorTutorialStep.server numTokens:vector:starttime 0
scalar TimeBasedTokenGeneratorTutorialStep.server numTokens:vector:endtime 9
scalar TimeBasedTokenGeneratorTutorialStep.consumer droppedPacketLengths:vector:count 6
scalar TimeBasedTokenGeneratorTutorialStep.consumer droppedPacketLengths:vector:sum 48
scalar TimeBasedTokenGeneratorTutorialStep.consumer droppedPacketLengths:vector:sumweights 6
scalar TimeBasedTokenGeneratorTutorialStep.consumer droppedPacketLengths:vector:mean 8
scalar TimeBasedTokenGeneratorTutorialStep.consumer droppedPacketLengths:vector:stddev 0
scalar TimeBasedTokenGeneratorTutorialStep.consumer droppedPacketLengths:vector:min 8
scalar TimeBasedTokenGeneratorTutorialStep.consumer droppedPacketLengths:vector:max 8
scalar TimeBasedTokenGeneratorTutorialStep.consumer droppedPacketLengths:vector:starttime 2
scalar TimeBasedTokenGeneratorTutorialStep.consumer droppedPacketLengths:vector:endtime 7
scalar TimeBasedTokenGeneratorTutorialStep.consumer droppedDataRate:vector:count 100
scalar TimeBasedTokenGeneratorTutorialStep.consumer droppedDataRate:vector:sum 480
scalar TimeBasedTokenGeneratorTutorialStep.consumer droppedDataRate:vector:sumweights 100
scalar TimeBasedTokenGeneratorTutorialStep.consumer droppedDataRate:vector:mean 4.8
scalar TimeBasedTokenGeneratorTutorialStep.consumer droppedDataRate:vector:stddev 24.96381219269
scalar TimeBasedTokenGeneratorTutorialStep.consumer droppedDataRate:vector:min 0
scalar TimeBasedTokenGeneratorTutorialStep.consumer droppedDataRate:vector:max 160
scalar TimeBasedTokenGeneratorTutorialStep.consumer droppedDataRate:vector:starttime 0.1
scalar TimeBasedTokenGeneratorTutorialStep.consumer droppedDataRate:vector:endtime 10
scalar TimeBasedTokenGeneratorTutorialStep.consumer packetLengths:vector:count 6
scalar TimeBasedTokenGeneratorTutorialStep.consumer packetLengths:vector:sum 48
scalar TimeBasedTokenGeneratorTutorialStep.consumer packetLengths:vector:sumweights 6
scalar TimeBasedTokenGeneratorTutorialStep.consumer packetLengths:vector:mean 8
scalar TimeBasedTokenGeneratorTutorialStep.consumer packetLengths:vector:stddev 0
scalar TimeBasedTokenGeneratorTutorialStep.consumer packetLengths:vector:min 8
scalar TimeBasedTokenGeneratorTutorialStep.consumer packetLengths:vector:max 8
scalar TimeBasedTokenGeneratorTutorialStep.consumer packetLengths:vector:starttime 2
scalar TimeBasedTokenGeneratorTutorialStep.consumer packetLengths:vector:endtime 7
scalar TimeBasedTokenGeneratorTutorialStep.consumer dataRate:vector:count 100
scalar TimeBasedTokenGeneratorTutorialStep.consumer dataRate:vector:sum 480
scalar TimeBasedTokenGeneratorTutorialStep.consumer dataRate:vector:sumweights 100
scalar TimeBasedTokenGeneratorTutorialStep.consumer dataRate:vector:mean 4.8
scalar TimeBasedTokenGeneratorTutorialStep.consumer dataRate:vector:stddev 24.96381219269
scalar TimeBasedTokenGeneratorTutorialStep.consumer dataRate:vector:min 0
scalar TimeBasedTokenGeneratorTutorialStep.consumer dataRate:vector:max 160
scalar TimeBasedTokenGeneratorTutorialStep.consumer dataRate:vector:starttime 0.1
scalar TimeBasedTokenGeneratorTutorialStep.consumer dataRate:vector:endtime 10
scalar TimeBasedTokenGeneratorTutorialStep.consumer meanBitLifeTimePerPacket:vector:count 6
scalar TimeBasedTokenGeneratorTutorialStep.consumer meanBitLifeTimePerPacket:vector:sum 7
scalar TimeBasedTokenGeneratorTutorialStep.consumer meanBitLifeTimePerPacket:vector:sumweights 6
scalar TimeBasedTokenGeneratorTutorialStep.consumer meanBitLifeTimePerPacket:vector:mean 1.1666666666667
scalar TimeBasedTokenGeneratorTutorialStep.consumer meanBitLifeTimePerPacket:vector:stddev 0.98319208025018
scalar TimeBasedTokenGeneratorTutorialStep.consumer meanBitLifeTimePerPacket:vector:min 0
scalar TimeBasedTokenGeneratorTutorialStep.consumer meanBitLifeTimePerPacket:vector:max 2
scalar TimeBasedTokenGeneratorTutorialStep.consumer meanBitLifeTimePerPacket:vector:starttime 2
scalar TimeBasedTokenGeneratorTutorialStep.consumer meanBitLifeTimePerPacket:vector:endtime 7
scalar TimeBasedTokenGeneratorTutorialStep.consumer packetJitter:vector:count 6
scalar TimeBasedTokenGeneratorTutorialStep.consumer packetJitter:vector:sum 0
scalar TimeBasedTokenGeneratorTutorialStep.consumer packetJitter:vector:sumweights 6
scalar TimeBasedTokenGeneratorTutorialStep.consumer packetJitter:vector:mean 0
scalar TimeBasedTokenGeneratorTutorialStep.consumer packetJitter:vector:stddev 1.4142135623731
scalar TimeBasedTokenGeneratorTutorialStep.consumer packetJitter:vector:min -2
scalar TimeBasedTokenGeneratorTutorialStep.consumer packetJitter:vector:max 2
scalar TimeBasedTokenGeneratorTutorialStep.consumer packetJitter:vector:starttime 2
scalar TimeBasedTokenGeneratorTutorialStep.consumer packetJitter:vector:endtime 7
scalar TimeBasedTokenGeneratorTutorialStep.consumer packetDelayDifferenceToMean:vector:count 6
scalar TimeBasedTokenGeneratorTutorialStep.consumer packetDelayDifferenceToMean:vector:sum 3.0666666666667
scalar TimeBasedTokenGeneratorTutorialStep.consumer packetDelayDifferenceToMean:vector:sumweights 6
scalar TimeBasedTokenGeneratorTutorialStep.consumer packetDelayDifferenceToMean:vector:mean 0.51111111111112
scalar TimeBasedTokenGeneratorTutorialStep.consumer packetDelayDifferenceToMean:vector:stddev 0.66388307761287
scalar TimeBasedTokenGeneratorTutorialStep.consumer packetDelayDifferenceToMean:vector:min 0
scalar TimeBasedTokenGeneratorTutorialStep.consumer packetDelayDifferenceToMean:vector:max 1.5
scalar TimeBasedTokenGeneratorTutorialStep.consumer packetDelayDifferenceToMean:vector:starttime 2
scalar TimeBasedTokenGeneratorTutorialStep.consumer packetDelayDifferenceToMean:vector:endtime 7
scalar TimeBasedTokenGeneratorTutorialStep.consumer packetDelayVariation:vector:count 6
scalar TimeBasedTokenGeneratorTutorialStep.consumer packetDelayVariation:vector:sum 4.0096358303086
scalar TimeBasedTokenGeneratorTutorialStep.consumer packetDelayVariation:vector:sumweights 6
scalar TimeBasedTokenGeneratorTutorialStep.consumer packetDelayVariation:vector:mean 0.66827263838477
scalar TimeBasedTokenGeneratorTutorialStep.consumer packetDelayVariation:vector:stddev 0.76350153677229
scalar TimeBasedTokenGeneratorTutorialStep.consumer packetDelayVariation:vector:min -0
scalar TimeBasedTokenGeneratorTutorialStep.consumer packetDelayVariation:vector:max 1.7320508075689
scalar TimeBasedTokenGeneratorTutorialStep.consumer packetDelayVariation:vector:starttime 2
scalar TimeBasedTokenGeneratorTutorialStep.consumer packetDelayVariation:vector:endtime 7
scalar TimeBasedTokenGeneratorTutorialStep.tokenGenerator numTokensCreated:vector:count 5
scalar TimeBasedTokenGeneratorTutorialStep.tokenGenerator numTokensCreated:vector:sum 8
scalar TimeBasedTokenGeneratorTutorialStep.tokenGenerator numTokensCreated:vector:sumweights 5
scalar TimeBasedTokenGeneratorTutorialStep.tokenGenerator numTokensCreated:vector:mean 1.6
scalar TimeBasedTokenGeneratorTutorialStep.tokenGenerator numTokensCreated:vector:stddev 0.54772255750517
scalar TimeBasedTokenGeneratorTutorialStep.tokenGenerator numTokensCreated:vector:min 1
scalar TimeBasedTokenGeneratorTutorialStep.tokenGenerator numTokensCreated:vector:max 2
scalar TimeBasedTokenGeneratorTutorialStep.tokenGenerator numTokensCreated:vector:starttime 2
scalar TimeBasedTokenGeneratorTutorialStep.tokenGenerator numTokensCreated:vector:endtime 9

