version 3
run PacketBasedTokenGenerator-0-20251118-12:01:59-115350
attr configname PacketBasedTokenGenerator
attr datetime 20251118-12:01:59
attr datetimef 20251118-120159
attr experiment PacketBasedTokenGenerator
attr inifile omnetpp.ini
attr iterationvars ""
attr iterationvarsd ""
attr iterationvarsf ""
attr measurement ""
attr network PacketBasedTokenGeneratorTutorialStep
attr processid 115350
attr repetition 0
attr replication #0
attr resultdir results
attr runnumber 0
attr seedset 0
config **.param-recording false
config image-path /home/zoli/Projects/OMNET/inet/images
config output-scalar-file results/omnetpp.ini-PacketBasedTokenGenerator-#0.sca
config output-scalar-precision 17
config output-vector-file results/omnetpp.ini-PacketBasedTokenGenerator-#0.vec
config output-vector-precision 17
config record-eventlog false
config sim-time-limit 10s
config network PacketBasedTokenGeneratorTutorialStep
config sim-time-limit 10s
config *.provider.packetLength 1B
config *.producer.packetLength 1B
config *.producer.productionInterval 1s

scalar PacketBasedTokenGeneratorTutorialStep.producer packets:count 11
scalar PacketBasedTokenGeneratorTutorialStep.producer packetLengths:sum 88
scalar PacketBasedTokenGeneratorTutorialStep.provider packets:count 11
scalar PacketBasedTokenGeneratorTutorialStep.provider packetLengths:sum 88
scalar PacketBasedTokenGeneratorTutorialStep.server numTokensDepleted:count 11
scalar PacketBasedTokenGeneratorTutorialStep.server removedTokens:sum 0
scalar PacketBasedTokenGeneratorTutorialStep.server addedTokens:sum 11
scalar PacketBasedTokenGeneratorTutorialStep.server incomingPackets:count 11
scalar PacketBasedTokenGeneratorTutorialStep.server incomingPacketLengths:sum 88
scalar PacketBasedTokenGeneratorTutorialStep.server outgoingPackets:count 11
scalar PacketBasedTokenGeneratorTutorialStep.server outgoingPacketLengths:sum 88
scalar PacketBasedTokenGeneratorTutorialStep.consumer packets:count 11
scalar PacketBasedTokenGeneratorTutorialStep.consumer packetLengths:sum 88
scalar PacketBasedTokenGeneratorTutorialStep.consumer droppedPackets:count 11
scalar PacketBasedTokenGeneratorTutorialStep.consumer droppedPacketLengths:sum 88
scalar PacketBasedTokenGeneratorTutorialStep.tokenGenerator tokensCreated:count 12
scalar PacketBasedTokenGeneratorTutorialStep.tokenGenerator numTokensCreated:sum 11
scalar PacketBasedTokenGeneratorTutorialStep.producer packetLengths:histogram:count 11
scalar PacketBasedTokenGeneratorTutorialStep.producer packetLengths:histogram:sumweights 11
scalar PacketBasedTokenGeneratorTutorialStep.producer packetLengths:histogram:mean 8
scalar PacketBasedTokenGeneratorTutorialStep.producer packetLengths:histogram:stddev 0
scalar PacketBasedTokenGeneratorTutorialStep.producer packetLengths:histogram:min 8
scalar PacketBasedTokenGeneratorTutorialStep.producer packetLengths:histogram:max 8
scalar PacketBasedTokenGeneratorTutorialStep.producer packetLengths:histogram:numbins 2
scalar PacketBasedTokenGeneratorTutorialStep.producer packetLengths:histogram:rangemin 7
scalar PacketBasedTokenGeneratorTutorialStep.producer packetLengths:histogram:rangemax 9
scalar PacketBasedTokenGeneratorTutorialStep.producer packetLengths:histogram:underflows 0
scalar PacketBasedTokenGeneratorTutorialStep.producer packetLengths:histogram:overflows 0
scalar PacketBasedTokenGeneratorTutorialStep.provider packetLengths:histogram:count 11
scalar PacketBasedTokenGeneratorTutorialStep.provider packetLengths:histogram:sumweights 11
scalar PacketBasedTokenGeneratorTutorialStep.provider packetLengths:histogram:mean 8
scalar PacketBasedTokenGeneratorTutorialStep.provider packetLengths:histogram:stddev 0
scalar PacketBasedTokenGeneratorTutorialStep.provider packetLengths:histogram:min 8
scalar PacketBasedTokenGeneratorTutorialStep.provider packetLengths:histogram:max 8
scalar PacketBasedTokenGeneratorTutorialStep.provider packetLengths:histogram:numbins 2
scalar PacketBasedTokenGeneratorTutorialStep.provider packetLengths:histogram:rangemin 7
scalar PacketBasedTokenGeneratorTutorialStep.provider packetLengths:histogram:rangemax 9
scalar PacketBasedTokenGeneratorTutorialStep.provider packetLengths:histogram:underflows 0
scalar PacketBasedTokenGeneratorTutorialStep.provider packetLengths:histogram:overflows 0
scalar PacketBasedTokenGeneratorTutorialStep.server incomingPacketLengths:histogram:count 11
scalar PacketBasedTokenGeneratorTutorialStep.server incomingPacketLengths:histogram:sumweights 11
scalar PacketBasedTokenGeneratorTutorialStep.server incomingPacketLengths:histogram:mean 8
scalar PacketBasedTokenGeneratorTutorialStep.server incomingPacketLengths:histogram:stddev 0
scalar PacketBasedTokenGeneratorTutorialStep.server incomingPacketLengths:histogram:min 8
scalar PacketBasedTokenGeneratorTutorialStep.server incomingPacketLengths:histogram:max 8
scalar PacketBasedTokenGeneratorTutorialStep.server incomingPacketLengths:histogram:numbins 2
scalar PacketBasedTokenGeneratorTutorialStep.server incomingPacketLengths:histogram:rangemin 7
scalar PacketBasedTokenGeneratorTutorialStep.server incomingPacketLengths:histogram:rangemax 9
scalar PacketBasedTokenGeneratorTutorialStep.server incomingPacketLengths:histogram:underflows 0
scalar PacketBasedTokenGeneratorTutorialStep.server incomingPacketLengths:histogram:overflows 0
scalar PacketBasedTokenGeneratorTutorialStep.server outgoingPacketLengths:histogram:count 11
scalar PacketBasedTokenGeneratorTutorialStep.server outgoingPacketLengths:histogram:sumweights 11
scalar PacketBasedTokenGeneratorTutorialStep.server outgoingPacketLengths:histogram:mean 8
scalar PacketBasedTokenGeneratorTutorialStep.server outgoingPacketLengths:histogram:stddev 0
scalar PacketBasedTokenGeneratorTutorialStep.server outgoingPacketLengths:histogram:min 8
scalar PacketBasedTokenGeneratorTutorialStep.server outgoingPacketLengths:histogram:max 8
scalar PacketBasedTokenGeneratorTutorialStep.server outgoingPacketLengths:histogram:numbins 2
scalar PacketBasedTokenGeneratorTutorialStep.server outgoingPacketLengths:histogram:rangemin 7
scalar PacketBasedTokenGeneratorTutorialStep.server outgoingPacketLengths:histogram:rangemax 9
scalar PacketBasedTokenGeneratorTutorialStep.server outgoingPacketLengths:histogram:underflows 0
scalar PacketBasedTokenGeneratorTutorialStep.server outgoingPacketLengths:histogram:overflows 0
scalar PacketBasedTokenGeneratorTutorialStep.consumer packetLengths:histogram:count 11
scalar PacketBasedTokenGeneratorTutorialStep.consumer packetLengths:histogram:sumweights 11
scalar PacketBasedTokenGeneratorTutorialStep.consumer packetLengths:histogram:mean 8
scalar PacketBasedTokenGeneratorTutorialStep.consumer packetLengths:histogram:stddev 0
scalar PacketBasedTokenGeneratorTutorialStep.consumer packetLengths:histogram:min 8
scalar PacketBasedTokenGeneratorTutorialStep.consumer packetLengths:histogram:max 8
scalar PacketBasedTokenGeneratorTutorialStep.consumer packetLengths:histogram:numbins 2
scalar PacketBasedTokenGeneratorTutorialStep.consumer packetLengths:histogram:rangemin 7
scalar PacketBasedTokenGeneratorTutorialStep.consumer packetLengths:histogram:rangemax 9
scalar PacketBasedTokenGeneratorTutorialStep.consumer packetLengths:histogram:underflows 0
scalar PacketBasedTokenGeneratorTutorialStep.consumer packetLengths:histogram:overflows 0
scalar PacketBasedTokenGeneratorTutorialStep.consumer meanBitLifeTimePerPacket:histogram:count 11
scalar PacketBasedTokenGeneratorTutorialStep.consumer meanBitLifeTimePerPacket:histogram:sumweights 11
scalar PacketBasedTokenGeneratorTutorialStep.consumer meanBitLifeTimePerPacket:histogram:mean 0.90909090909090906
scalar PacketBasedTokenGeneratorTutorialStep.consumer meanBitLifeTimePerPacket:histogram:stddev 0.30151134457776346
scalar PacketBasedTokenGeneratorTutorialStep.consumer meanBitLifeTimePerPacket:histogram:min 0
scalar PacketBasedTokenGeneratorTutorialStep.consumer meanBitLifeTimePerPacket:histogram:max 1
scalar PacketBasedTokenGeneratorTutorialStep.consumer meanBitLifeTimePerPacket:histogram:numbins 2
scalar PacketBasedTokenGeneratorTutorialStep.consumer meanBitLifeTimePerPacket:histogram:rangemin 0
scalar PacketBasedTokenGeneratorTutorialStep.consumer meanBitLifeTimePerPacket:histogram:rangemax 2
scalar PacketBasedTokenGeneratorTutorialStep.consumer meanBitLifeTimePerPacket:histogram:underflows 0
scalar PacketBasedTokenGeneratorTutorialStep.consumer meanBitLifeTimePerPacket:histogram:overflows 0
scalar PacketBasedTokenGeneratorTutorialStep.consumer packetLifeTime:histogram:count 11
scalar PacketBasedTokenGeneratorTutorialStep.consumer packetLifeTime:histogram:sumweights 11
scalar PacketBasedTokenGeneratorTutorialStep.consumer packetLifeTime:histogram:mean 0.90909090909090906
scalar PacketBasedTokenGeneratorTutorialStep.consumer packetLifeTime:histogram:stddev 0.30151134457776346
scalar PacketBasedTokenGeneratorTutorialStep.consumer packetLifeTime:histogram:min 0
scalar PacketBasedTokenGeneratorTutorialStep.consumer packetLifeTime:histogram:max 1
scalar PacketBasedTokenGeneratorTutorialStep.consumer packetLifeTime:histogram:numbins 2
scalar PacketBasedTokenGeneratorTutorialStep.consumer packetLifeTime:histogram:rangemin 0
scalar PacketBasedTokenGeneratorTutorialStep.consumer packetLifeTime:histogram:rangemax 2
scalar PacketBasedTokenGeneratorTutorialStep.consumer packetLifeTime:histogram:underflows 0
scalar PacketBasedTokenGeneratorTutorialStep.consumer packetLifeTime:histogram:overflows 0
scalar PacketBasedTokenGeneratorTutorialStep.consumer packetJitter:histogram:count 11
scalar PacketBasedTokenGeneratorTutorialStep.consumer packetJitter:histogram:sumweights 11
scalar PacketBasedTokenGeneratorTutorialStep.consumer packetJitter:histogram:mean 0.090909090909090912
scalar PacketBasedTokenGeneratorTutorialStep.consumer packetJitter:histogram:stddev 0.30151134457776363
scalar PacketBasedTokenGeneratorTutorialStep.consumer packetJitter:histogram:min 0
scalar PacketBasedTokenGeneratorTutorialStep.consumer packetJitter:histogram:max 1
scalar PacketBasedTokenGeneratorTutorialStep.consumer packetJitter:histogram:numbins 2
scalar PacketBasedTokenGeneratorTutorialStep.consumer packetJitter:histogram:rangemin 0
scalar PacketBasedTokenGeneratorTutorialStep.consumer packetJitter:histogram:rangemax 2
scalar PacketBasedTokenGeneratorTutorialStep.consumer packetJitter:histogram:underflows 0
scalar PacketBasedTokenGeneratorTutorialStep.consumer packetJitter:histogram:overflows 0
scalar PacketBasedTokenGeneratorTutorialStep.consumer packetDelayDifferenceToMean:histogram:count 11
scalar PacketBasedTokenGeneratorTutorialStep.consumer packetDelayDifferenceToMean:histogram:sumweights 11
scalar PacketBasedTokenGeneratorTutorialStep.consumer packetDelayDifferenceToMean:histogram:mean -0.18362521317066774
scalar PacketBasedTokenGeneratorTutorialStep.consumer packetDelayDifferenceToMean:histogram:stddev 0.13679612053883444
scalar PacketBasedTokenGeneratorTutorialStep.consumer packetDelayDifferenceToMean:histogram:min -0.5
scalar PacketBasedTokenGeneratorTutorialStep.consumer packetDelayDifferenceToMean:histogram:max 0
scalar PacketBasedTokenGeneratorTutorialStep.consumer packetDelayDifferenceToMean:histogram:numbins 76
scalar PacketBasedTokenGeneratorTutorialStep.consumer packetDelayDifferenceToMean:histogram:rangemin -0.63
scalar PacketBasedTokenGeneratorTutorialStep.consumer packetDelayDifferenceToMean:histogram:rangemax 0.13
scalar PacketBasedTokenGeneratorTutorialStep.consumer packetDelayDifferenceToMean:histogram:underflows 0
scalar PacketBasedTokenGeneratorTutorialStep.consumer packetDelayDifferenceToMean:histogram:overflows 0
scalar PacketBasedTokenGeneratorTutorialStep.consumer packetDelayVariation:histogram:count 11
scalar PacketBasedTokenGeneratorTutorialStep.consumer packetDelayVariation:histogram:sumweights 11
scalar PacketBasedTokenGeneratorTutorialStep.consumer packetDelayVariation:histogram:mean 0.37272387129530637
scalar PacketBasedTokenGeneratorTutorialStep.consumer packetDelayVariation:histogram:stddev 0.15308545576200036
scalar PacketBasedTokenGeneratorTutorialStep.consumer packetDelayVariation:histogram:min 0
scalar PacketBasedTokenGeneratorTutorialStep.consumer packetDelayVariation:histogram:max 0.57735026918962573
scalar PacketBasedTokenGeneratorTutorialStep.consumer packetDelayVariation:histogram:numbins 73
scalar PacketBasedTokenGeneratorTutorialStep.consumer packetDelayVariation:histogram:rangemin 0
scalar PacketBasedTokenGeneratorTutorialStep.consumer packetDelayVariation:histogram:rangemax 0.72999999999999998
scalar PacketBasedTokenGeneratorTutorialStep.consumer packetDelayVariation:histogram:underflows 0
scalar PacketBasedTokenGeneratorTutorialStep.consumer packetDelayVariation:histogram:overflows 0
scalar PacketBasedTokenGeneratorTutorialStep.consumer droppedPacketLengths:histogram:count 11
scalar PacketBasedTokenGeneratorTutorialStep.consumer droppedPacketLengths:histogram:sumweights 11
scalar PacketBasedTokenGeneratorTutorialStep.consumer droppedPacketLengths:histogram:mean 8
scalar PacketBasedTokenGeneratorTutorialStep.consumer droppedPacketLengths:histogram:stddev 0
scalar PacketBasedTokenGeneratorTutorialStep.consumer droppedPacketLengths:histogram:min 8
scalar PacketBasedTokenGeneratorTutorialStep.consumer droppedPacketLengths:histogram:max 8
scalar PacketBasedTokenGeneratorTutorialStep.consumer droppedPacketLengths:histogram:numbins 2
scalar PacketBasedTokenGeneratorTutorialStep.consumer droppedPacketLengths:histogram:rangemin 7
scalar PacketBasedTokenGeneratorTutorialStep.consumer droppedPacketLengths:histogram:rangemax 9
scalar PacketBasedTokenGeneratorTutorialStep.consumer droppedPacketLengths:histogram:underflows 0
scalar PacketBasedTokenGeneratorTutorialStep.consumer droppedPacketLengths:histogram:overflows 0
statistic PacketBasedTokenGeneratorTutorialStep.producer packetLengths:histogram
field count 11
field mean 8
field stddev 0
field min 8
field max 8
field sum 88
field sqrsum 704
bin	-inf	0
bin	7	0
bin	8	11
bin	9	0
statistic PacketBasedTokenGeneratorTutorialStep.provider packetLengths:histogram
field count 11
field mean 8
field stddev 0
field min 8
field max 8
field sum 88
field sqrsum 704
bin	-inf	0
bin	7	0
bin	8	11
bin	9	0
statistic PacketBasedTokenGeneratorTutorialStep.server incomingPacketLengths:histogram
field count 11
field mean 8
field stddev 0
field min 8
field max 8
field sum 88
field sqrsum 704
bin	-inf	0
bin	7	0
bin	8	11
bin	9	0
statistic PacketBasedTokenGeneratorTutorialStep.server outgoingPacketLengths:histogram
field count 11
field mean 8
field stddev 0
field min 8
field max 8
field sum 88
field sqrsum 704
bin	-inf	0
bin	7	0
bin	8	11
bin	9	0
statistic PacketBasedTokenGeneratorTutorialStep.consumer packetLengths:histogram
field count 11
field mean 8
field stddev 0
field min 8
field max 8
field sum 88
field sqrsum 704
bin	-inf	0
bin	7	0
bin	8	11
bin	9	0
statistic PacketBasedTokenGeneratorTutorialStep.consumer meanBitLifeTimePerPacket:histogram
field count 11
field mean 0.90909090909090906
field stddev 0.30151134457776346
field min 0
field max 1
field sum 10
field sqrsum 10
bin	-inf	0
bin	0	1
bin	1	10
bin	2	0
statistic PacketBasedTokenGeneratorTutorialStep.consumer packetLifeTime:histogram
field count 11
field mean 0.90909090909090906
field stddev 0.30151134457776346
field min 0
field max 1
field sum 10
field sqrsum 10
bin	-inf	0
bin	0	1
bin	1	10
bin	2	0
statistic PacketBasedTokenGeneratorTutorialStep.consumer packetJitter:histogram
field count 11
field mean 0.090909090909090912
field stddev 0.30151134457776363
field min 0
field max 1
field sum 1
field sqrsum 1
bin	-inf	0
bin	0	10
bin	1	1
bin	2	0
statistic PacketBasedTokenGeneratorTutorialStep.consumer packetDelayDifferenceToMean:histogram
field count 11
field mean -0.18362521317066774
field stddev 0.13679612053883444
field min -0.5
field max 0
field sum -2.019877344877345
field sqrsum 0.55803219397645809
bin	-inf	0
bin	-0.63	0
bin	-0.62	0
bin	-0.60999999999999999	0
bin	-0.59999999999999998	0
bin	-0.58999999999999997	0
bin	-0.57999999999999996	0
bin	-0.57000000000000006	0
bin	-0.56000000000000005	0
bin	-0.55000000000000004	0
bin	-0.54000000000000004	0
bin	-0.53000000000000003	0
bin	-0.52000000000000002	0
bin	-0.51000000000000001	0
bin	-0.5	1
bin	-0.48999999999999999	0
bin	-0.47999999999999998	0
bin	-0.46999999999999997	0
bin	-0.45999999999999996	0
bin	-0.45000000000000001	0
bin	-0.44	0
bin	-0.42999999999999999	0
bin	-0.42000000000000004	0
bin	-0.41000000000000003	0
bin	-0.40000000000000002	0
bin	-0.39000000000000001	0
bin	-0.38	0
bin	-0.37	0
bin	-0.35999999999999999	0
bin	-0.34999999999999998	0
bin	-0.34000000000000002	1
bin	-0.33000000000000002	0
bin	-0.32000000000000001	0
bin	-0.31	0
bin	-0.29999999999999999	0
bin	-0.28999999999999998	0
bin	-0.27999999999999997	0
bin	-0.27000000000000002	0
bin	-0.26000000000000001	0
bin	-0.25	1
bin	-0.23999999999999999	0
bin	-0.22999999999999998	0
bin	-0.21999999999999997	0
bin	-0.21000000000000002	0
bin	-0.20000000000000001	1
bin	-0.19	0
bin	-0.17999999999999999	0
bin	-0.16999999999999998	1
bin	-0.15999999999999998	0
bin	-0.15000000000000002	1
bin	-0.14000000000000001	0
bin	-0.13	1
bin	-0.12	1
bin	-0.10999999999999999	0
bin	-0.099999999999999978	2
bin	-0.089999999999999969	0
bin	-0.07999999999999996	0
bin	-0.069999999999999951	0
bin	-0.059999999999999942	0
bin	-0.050000000000000044	0
bin	-0.040000000000000036	0
bin	-0.030000000000000027	0
bin	-0.020000000000000018	0
bin	-0.010000000000000009	0
bin	0	1
bin	0.010000000000000009	0
bin	0.020000000000000018	0
bin	0.030000000000000027	0
bin	0.040000000000000036	0
bin	0.050000000000000044	0
bin	0.060000000000000053	0
bin	0.070000000000000062	0
bin	0.07999999999999996	0
bin	0.089999999999999969	0
bin	0.099999999999999978	0
bin	0.10999999999999999	0
bin	0.12	0
bin	0.13	0
statistic PacketBasedTokenGeneratorTutorialStep.consumer packetDelayVariation:histogram
field count 11
field mean 0.37272387129530637
field stddev 0.15308545576200036
field min 0
field max 0.57735026918962573
field sum 4.0999625842483702
field sqrsum 1.7625054942255549
bin	-inf	0
bin	0	1
bin	0.01	0
bin	0.02	0
bin	0.029999999999999999	0
bin	0.040000000000000001	0
bin	0.050000000000000003	0
bin	0.059999999999999998	0
bin	0.070000000000000007	0
bin	0.080000000000000002	0
bin	0.089999999999999997	0
bin	0.10000000000000001	0
bin	0.11	0
bin	0.12	0
bin	0.13	0
bin	0.14000000000000001	0
bin	0.14999999999999999	0
bin	0.16	0
bin	0.17000000000000001	0
bin	0.17999999999999999	0
bin	0.19	0
bin	0.20000000000000001	0
bin	0.20999999999999999	0
bin	0.22	0
bin	0.23000000000000001	0
bin	0.23999999999999999	0
bin	0.25	0
bin	0.26000000000000001	0
bin	0.27000000000000002	0
bin	0.28000000000000003	0
bin	0.28999999999999998	0
bin	0.29999999999999999	1
bin	0.31	1
bin	0.32000000000000001	0
bin	0.33000000000000002	1
bin	0.34000000000000002	0
bin	0.35000000000000003	1
bin	0.35999999999999999	0
bin	0.37	1
bin	0.38	0
bin	0.39000000000000001	0
bin	0.40000000000000002	1
bin	0.41000000000000003	0
bin	0.41999999999999998	0
bin	0.42999999999999999	1
bin	0.44	0
bin	0.45000000000000001	0
bin	0.46000000000000002	0
bin	0.47000000000000003	0
bin	0.47999999999999998	1
bin	0.48999999999999999	0
bin	0.5	0
bin	0.51000000000000001	0
bin	0.52000000000000002	0
bin	0.53000000000000003	1
bin	0.54000000000000004	0
bin	0.55000000000000004	0
bin	0.56000000000000005	0
bin	0.57000000000000006	1
bin	0.57999999999999996	0
bin	0.58999999999999997	0
bin	0.59999999999999998	0
bin	0.60999999999999999	0
bin	0.62	0
bin	0.63	0
bin	0.64000000000000001	0
bin	0.65000000000000002	0
bin	0.66000000000000003	0
bin	0.67000000000000004	0
bin	0.68000000000000005	0
bin	0.69000000000000006	0
bin	0.70000000000000007	0
bin	0.70999999999999996	0
bin	0.71999999999999997	0
bin	0.72999999999999998	0
statistic PacketBasedTokenGeneratorTutorialStep.consumer droppedPacketLengths:histogram
field count 11
field mean 8
field stddev 0
field min 8
field max 8
field sum 88
field sqrsum 704
bin	-inf	0
bin	7	0
bin	8	11
bin	9	0
scalar PacketBasedTokenGeneratorTutorialStep.producer packetLengths:vector:count 11
scalar PacketBasedTokenGeneratorTutorialStep.producer packetLengths:vector:sum 88
scalar PacketBasedTokenGeneratorTutorialStep.producer packetLengths:vector:sumweights 11
scalar PacketBasedTokenGeneratorTutorialStep.producer packetLengths:vector:mean 8
scalar PacketBasedTokenGeneratorTutorialStep.producer packetLengths:vector:stddev 0
scalar PacketBasedTokenGeneratorTutorialStep.producer packetLengths:vector:min 8
scalar PacketBasedTokenGeneratorTutorialStep.producer packetLengths:vector:max 8
scalar PacketBasedTokenGeneratorTutorialStep.producer packetLengths:vector:starttime 0
scalar PacketBasedTokenGeneratorTutorialStep.producer packetLengths:vector:endtime 10
scalar PacketBasedTokenGeneratorTutorialStep.producer dataRate:vector:count 100
scalar PacketBasedTokenGeneratorTutorialStep.producer dataRate:vector:sum 800
scalar PacketBasedTokenGeneratorTutorialStep.producer dataRate:vector:sumweights 100
scalar PacketBasedTokenGeneratorTutorialStep.producer dataRate:vector:mean 8
scalar PacketBasedTokenGeneratorTutorialStep.producer dataRate:vector:stddev 24.120907566221092
scalar PacketBasedTokenGeneratorTutorialStep.producer dataRate:vector:min 0
scalar PacketBasedTokenGeneratorTutorialStep.producer dataRate:vector:max 80
scalar PacketBasedTokenGeneratorTutorialStep.producer dataRate:vector:starttime 0.10000000000000001
scalar PacketBasedTokenGeneratorTutorialStep.producer dataRate:vector:endtime 10
scalar PacketBasedTokenGeneratorTutorialStep.provider packetLengths:vector:count 11
scalar PacketBasedTokenGeneratorTutorialStep.provider packetLengths:vector:sum 88
scalar PacketBasedTokenGeneratorTutorialStep.provider packetLengths:vector:sumweights 11
scalar PacketBasedTokenGeneratorTutorialStep.provider packetLengths:vector:mean 8
scalar PacketBasedTokenGeneratorTutorialStep.provider packetLengths:vector:stddev 0
scalar PacketBasedTokenGeneratorTutorialStep.provider packetLengths:vector:min 8
scalar PacketBasedTokenGeneratorTutorialStep.provider packetLengths:vector:max 8
scalar PacketBasedTokenGeneratorTutorialStep.provider packetLengths:vector:starttime 0
scalar PacketBasedTokenGeneratorTutorialStep.provider packetLengths:vector:endtime 10
scalar PacketBasedTokenGeneratorTutorialStep.provider dataRate:vector:count 100
scalar PacketBasedTokenGeneratorTutorialStep.provider dataRate:vector:sum 800
scalar PacketBasedTokenGeneratorTutorialStep.provider dataRate:vector:sumweights 100
scalar PacketBasedTokenGeneratorTutorialStep.provider dataRate:vector:mean 8
scalar PacketBasedTokenGeneratorTutorialStep.provider dataRate:vector:stddev 24.120907566221092
scalar PacketBasedTokenGeneratorTutorialStep.provider dataRate:vector:min 0
scalar PacketBasedTokenGeneratorTutorialStep.provider dataRate:vector:max 80
scalar PacketBasedTokenGeneratorTutorialStep.provider dataRate:vector:starttime 0.10000000000000001
scalar PacketBasedTokenGeneratorTutorialStep.provider dataRate:vector:endtime 10
scalar PacketBasedTokenGeneratorTutorialStep.server incomingPacketLengths:vector:count 11
scalar PacketBasedTokenGeneratorTutorialStep.server incomingPacketLengths:vector:sum 88
scalar PacketBasedTokenGeneratorTutorialStep.server incomingPacketLengths:vector:sumweights 11
scalar PacketBasedTokenGeneratorTutorialStep.server incomingPacketLengths:vector:mean 8
scalar PacketBasedTokenGeneratorTutorialStep.server incomingPacketLengths:vector:stddev 0
scalar PacketBasedTokenGeneratorTutorialStep.server incomingPacketLengths:vector:min 8
scalar PacketBasedTokenGeneratorTutorialStep.server incomingPacketLengths:vector:max 8
scalar PacketBasedTokenGeneratorTutorialStep.server incomingPacketLengths:vector:starttime 0
scalar PacketBasedTokenGeneratorTutorialStep.server incomingPacketLengths:vector:endtime 10
scalar PacketBasedTokenGeneratorTutorialStep.server incomingDataRate:vector:count 100
scalar PacketBasedTokenGeneratorTutorialStep.server incomingDataRate:vector:sum 800
scalar PacketBasedTokenGeneratorTutorialStep.server incomingDataRate:vector:sumweights 100
scalar PacketBasedTokenGeneratorTutorialStep.server incomingDataRate:vector:mean 8
scalar PacketBasedTokenGeneratorTutorialStep.server incomingDataRate:vector:stddev 24.120907566221092
scalar PacketBasedTokenGeneratorTutorialStep.server incomingDataRate:vector:min 0
scalar PacketBasedTokenGeneratorTutorialStep.server incomingDataRate:vector:max 80
scalar PacketBasedTokenGeneratorTutorialStep.server incomingDataRate:vector:starttime 0.10000000000000001
scalar PacketBasedTokenGeneratorTutorialStep.server incomingDataRate:vector:endtime 10
scalar PacketBasedTokenGeneratorTutorialStep.server outgoingPacketLengths:vector:count 11
scalar PacketBasedTokenGeneratorTutorialStep.server outgoingPacketLengths:vector:sum 88
scalar PacketBasedTokenGeneratorTutorialStep.server outgoingPacketLengths:vector:sumweights 11
scalar PacketBasedTokenGeneratorTutorialStep.server outgoingPacketLengths:vector:mean 8
scalar PacketBasedTokenGeneratorTutorialStep.server outgoingPacketLengths:vector:stddev 0
scalar PacketBasedTokenGeneratorTutorialStep.server outgoingPacketLengths:vector:min 8
scalar PacketBasedTokenGeneratorTutorialStep.server outgoingPacketLengths:vector:max 8
scalar PacketBasedTokenGeneratorTutorialStep.server outgoingPacketLengths:vector:starttime 0
scalar PacketBasedTokenGeneratorTutorialStep.server outgoingPacketLengths:vector:endtime 10
scalar PacketBasedTokenGeneratorTutorialStep.server outgoingDataRate:vector:count 100
scalar PacketBasedTokenGeneratorTutorialStep.server outgoingDataRate:vector:sum 800
scalar PacketBasedTokenGeneratorTutorialStep.server outgoingDataRate:vector:sumweights 100
scalar PacketBasedTokenGeneratorTutorialStep.server outgoingDataRate:vector:mean 8
scalar PacketBasedTokenGeneratorTutorialStep.server outgoingDataRate:vector:stddev 24.120907566221092
scalar PacketBasedTokenGeneratorTutorialStep.server outgoingDataRate:vector:min 0
scalar PacketBasedTokenGeneratorTutorialStep.server outgoingDataRate:vector:max 80
scalar PacketBasedTokenGeneratorTutorialStep.server outgoingDataRate:vector:starttime 0.10000000000000001
scalar PacketBasedTokenGeneratorTutorialStep.server outgoingDataRate:vector:endtime 10
scalar PacketBasedTokenGeneratorTutorialStep.server numTokens:vector:count 24
scalar PacketBasedTokenGeneratorTutorialStep.server numTokens:vector:sum 132
scalar PacketBasedTokenGeneratorTutorialStep.server numTokens:vector:sumweights 24
scalar PacketBasedTokenGeneratorTutorialStep.server numTokens:vector:mean 5.5
scalar PacketBasedTokenGeneratorTutorialStep.server numTokens:vector:stddev 3.5262987123463678
scalar PacketBasedTokenGeneratorTutorialStep.server numTokens:vector:min 0
scalar PacketBasedTokenGeneratorTutorialStep.server numTokens:vector:max 11
scalar PacketBasedTokenGeneratorTutorialStep.server numTokens:vector:starttime 0
scalar PacketBasedTokenGeneratorTutorialStep.server numTokens:vector:endtime 10
scalar PacketBasedTokenGeneratorTutorialStep.consumer droppedPacketLengths:vector:count 11
scalar PacketBasedTokenGeneratorTutorialStep.consumer droppedPacketLengths:vector:sum 88
scalar PacketBasedTokenGeneratorTutorialStep.consumer droppedPacketLengths:vector:sumweights 11
scalar PacketBasedTokenGeneratorTutorialStep.consumer droppedPacketLengths:vector:mean 8
scalar PacketBasedTokenGeneratorTutorialStep.consumer droppedPacketLengths:vector:stddev 0
scalar PacketBasedTokenGeneratorTutorialStep.consumer droppedPacketLengths:vector:min 8
scalar PacketBasedTokenGeneratorTutorialStep.consumer droppedPacketLengths:vector:max 8
scalar PacketBasedTokenGeneratorTutorialStep.consumer droppedPacketLengths:vector:starttime 0
scalar PacketBasedTokenGeneratorTutorialStep.consumer droppedPacketLengths:vector:endtime 10
scalar PacketBasedTokenGeneratorTutorialStep.consumer droppedDataRate:vector:count 100
scalar PacketBasedTokenGeneratorTutorialStep.consumer droppedDataRate:vector:sum 800
scalar PacketBasedTokenGeneratorTutorialStep.consumer droppedDataRate:vector:sumweights 100
scalar PacketBasedTokenGeneratorTutorialStep.consumer droppedDataRate:vector:mean 8
scalar PacketBasedTokenGeneratorTutorialStep.consumer droppedDataRate:vector:stddev 24.120907566221092
scalar PacketBasedTokenGeneratorTutorialStep.consumer droppedDataRate:vector:min 0
scalar PacketBasedTokenGeneratorTutorialStep.consumer droppedDataRate:vector:max 80
scalar PacketBasedTokenGeneratorTutorialStep.consumer droppedDataRate:vector:starttime 0.10000000000000001
scalar PacketBasedTokenGeneratorTutorialStep.consumer droppedDataRate:vector:endtime 10
scalar PacketBasedTokenGeneratorTutorialStep.consumer packetLengths:vector:count 11
scalar PacketBasedTokenGeneratorTutorialStep.consumer packetLengths:vector:sum 88
scalar PacketBasedTokenGeneratorTutorialStep.consumer packetLengths:vector:sumweights 11
scalar PacketBasedTokenGeneratorTutorialStep.consumer packetLengths:vector:mean 8
scalar PacketBasedTokenGeneratorTutorialStep.consumer packetLengths:vector:stddev 0
scalar PacketBasedTokenGeneratorTutorialStep.consumer packetLengths:vector:min 8
scalar PacketBasedTokenGeneratorTutorialStep.consumer packetLengths:vector:max 8
scalar PacketBasedTokenGeneratorTutorialStep.consumer packetLengths:vector:starttime 0
scalar PacketBasedTokenGeneratorTutorialStep.consumer packetLengths:vector:endtime 10
scalar PacketBasedTokenGeneratorTutorialStep.consumer dataRate:vector:count 100
scalar PacketBasedTokenGeneratorTutorialStep.consumer dataRate:vector:sum 800
scalar PacketBasedTokenGeneratorTutorialStep.consumer dataRate:vector:sumweights 100
scalar PacketBasedTokenGeneratorTutorialStep.consumer dataRate:vector:mean 8
scalar PacketBasedTokenGeneratorTutorialStep.consumer dataRate:vector:stddev 24.120907566221092
scalar PacketBasedTokenGeneratorTutorialStep.consumer dataRate:vector:min 0
scalar PacketBasedTokenGeneratorTutorialStep.consumer dataRate:vector:max 80
scalar PacketBasedTokenGeneratorTutorialStep.consumer dataRate:vector:starttime 0.10000000000000001
scalar PacketBasedTokenGeneratorTutorialStep.consumer dataRate:vector:endtime 10
scalar PacketBasedTokenGeneratorTutorialStep.consumer meanBitLifeTimePerPacket:vector:count 11
scalar PacketBasedTokenGeneratorTutorialStep.consumer meanBitLifeTimePerPacket:vector:sum 10
scalar PacketBasedTokenGeneratorTutorialStep.consumer meanBitLifeTimePerPacket:vector:sumweights 11
scalar PacketBasedTokenGeneratorTutorialStep.consumer meanBitLifeTimePerPacket:vector:mean 0.90909090909090906
scalar PacketBasedTokenGeneratorTutorialStep.consumer meanBitLifeTimePerPacket:vector:stddev 0.30151134457776346
scalar PacketBasedTokenGeneratorTutorialStep.consumer meanBitLifeTimePerPacket:vector:min 0
scalar PacketBasedTokenGeneratorTutorialStep.consumer meanBitLifeTimePerPacket:vector:max 1
scalar PacketBasedTokenGeneratorTutorialStep.consumer meanBitLifeTimePerPacket:vector:starttime 0
scalar PacketBasedTokenGeneratorTutorialStep.consumer meanBitLifeTimePerPacket:vector:endtime 10
scalar PacketBasedTokenGeneratorTutorialStep.consumer packetLifeTime:vector:count 11
scalar PacketBasedTokenGeneratorTutorialStep.consumer packetLifeTime:vector:sum 10
scalar PacketBasedTokenGeneratorTutorialStep.consumer packetLifeTime:vector:sumweights 11
scalar PacketBasedTokenGeneratorTutorialStep.consumer packetLifeTime:vector:mean 0.90909090909090906
scalar PacketBasedTokenGeneratorTutorialStep.consumer packetLifeTime:vector:stddev 0.30151134457776346
scalar PacketBasedTokenGeneratorTutorialStep.consumer packetLifeTime:vector:min 0
scalar PacketBasedTokenGeneratorTutorialStep.consumer packetLifeTime:vector:max 1
scalar PacketBasedTokenGeneratorTutorialStep.consumer packetLifeTime:vector:starttime 0
scalar PacketBasedTokenGeneratorTutorialStep.consumer packetLifeTime:vector:endtime 10
scalar PacketBasedTokenGeneratorTutorialStep.consumer packetJitter:vector:count 11
scalar PacketBasedTokenGeneratorTutorialStep.consumer packetJitter:vector:sum 1
scalar PacketBasedTokenGeneratorTutorialStep.consumer packetJitter:vector:sumweights 11
scalar PacketBasedTokenGeneratorTutorialStep.consumer packetJitter:vector:mean 0.090909090909090912
scalar PacketBasedTokenGeneratorTutorialStep.consumer packetJitter:vector:stddev 0.30151134457776363
scalar PacketBasedTokenGeneratorTutorialStep.consumer packetJitter:vector:min 0
scalar PacketBasedTokenGeneratorTutorialStep.consumer packetJitter:vector:max 1
scalar PacketBasedTokenGeneratorTutorialStep.consumer packetJitter:vector:starttime 0
scalar PacketBasedTokenGeneratorTutorialStep.consumer packetJitter:vector:endtime 10
scalar PacketBasedTokenGeneratorTutorialStep.consumer packetDelayDifferenceToMean:vector:count 11
scalar PacketBasedTokenGeneratorTutorialStep.consumer packetDelayDifferenceToMean:vector:sum -2.019877344877345
scalar PacketBasedTokenGeneratorTutorialStep.consumer packetDelayDifferenceToMean:vector:sumweights 11
scalar PacketBasedTokenGeneratorTutorialStep.consumer packetDelayDifferenceToMean:vector:mean -0.18362521317066774
scalar PacketBasedTokenGeneratorTutorialStep.consumer packetDelayDifferenceToMean:vector:stddev 0.13679612053883444
scalar PacketBasedTokenGeneratorTutorialStep.consumer packetDelayDifferenceToMean:vector:min -0.5
scalar PacketBasedTokenGeneratorTutorialStep.consumer packetDelayDifferenceToMean:vector:max 0
scalar PacketBasedTokenGeneratorTutorialStep.consumer packetDelayDifferenceToMean:vector:starttime 0
scalar PacketBasedTokenGeneratorTutorialStep.consumer packetDelayDifferenceToMean:vector:endtime 10
scalar PacketBasedTokenGeneratorTutorialStep.consumer packetDelayVariation:vector:count 11
scalar PacketBasedTokenGeneratorTutorialStep.consumer packetDelayVariation:vector:sum 4.0999625842483702
scalar PacketBasedTokenGeneratorTutorialStep.consumer packetDelayVariation:vector:sumweights 11
scalar PacketBasedTokenGeneratorTutorialStep.consumer packetDelayVariation:vector:mean 0.37272387129530637
scalar PacketBasedTokenGeneratorTutorialStep.consumer packetDelayVariation:vector:stddev 0.15308545576200036
scalar PacketBasedTokenGeneratorTutorialStep.consumer packetDelayVariation:vector:min 0
scalar PacketBasedTokenGeneratorTutorialStep.consumer packetDelayVariation:vector:max 0.57735026918962573
scalar PacketBasedTokenGeneratorTutorialStep.consumer packetDelayVariation:vector:starttime 0
scalar PacketBasedTokenGeneratorTutorialStep.consumer packetDelayVariation:vector:endtime 10
scalar PacketBasedTokenGeneratorTutorialStep.tokenGenerator numTokensCreated:vector:count 11
scalar PacketBasedTokenGeneratorTutorialStep.tokenGenerator numTokensCreated:vector:sum 11
scalar PacketBasedTokenGeneratorTutorialStep.tokenGenerator numTokensCreated:vector:sumweights 11
scalar PacketBasedTokenGeneratorTutorialStep.tokenGenerator numTokensCreated:vector:mean 1
scalar PacketBasedTokenGeneratorTutorialStep.tokenGenerator numTokensCreated:vector:stddev 0
scalar PacketBasedTokenGeneratorTutorialStep.tokenGenerator numTokensCreated:vector:min 1
scalar PacketBasedTokenGeneratorTutorialStep.tokenGenerator numTokensCreated:vector:max 1
scalar PacketBasedTokenGeneratorTutorialStep.tokenGenerator numTokensCreated:vector:starttime 0
scalar PacketBasedTokenGeneratorTutorialStep.tokenGenerator numTokensCreated:vector:endtime 10

