version 3
run Gate1-0-20250108-11:39:30-15405
attr configname Gate1
attr datetime 20250108-11:39:30
attr datetimef 20250108-113930
attr experiment Gate1
attr inifile omnetpp.ini
attr iterationvars ""
attr iterationvarsd ""
attr iterationvarsf ""
attr measurement ""
attr network Gate1TutorialStep
attr processid 15405
attr repetition 0
attr replication #0
attr resultdir results
attr runnumber 0
attr seedset 0
config **.param-recording false
config image-path /home/levy/workspace/inet/images
config output-scalar-file results/omnetpp.ini-Gate1-#0.sca
config output-vector-file results/omnetpp.ini-Gate1-#0.vec
config sim-time-limit 10s
config network Gate1TutorialStep
config sim-time-limit 10s
config *.producer.packetLength 1B
config *.producer.productionInterval 1s
config *.gate.openTime 3s
config *.gate.closeTime 7s

scalar Gate1TutorialStep.producer packets:count 4
scalar Gate1TutorialStep.producer packetLengths:sum 32
scalar Gate1TutorialStep.gate outgoingPackets:count 4
scalar Gate1TutorialStep.gate outgoingPacketLengths:sum 32
scalar Gate1TutorialStep.gate flowOutgoingPacketLengths:sum 0
scalar Gate1TutorialStep.gate incomingPackets:count 4
scalar Gate1TutorialStep.gate incomingPacketLengths:sum 32
scalar Gate1TutorialStep.gate flowIncomingPacketLengths:sum 0
scalar Gate1TutorialStep.consumer packets:count 4
scalar Gate1TutorialStep.consumer packetLengths:sum 32
scalar Gate1TutorialStep.consumer droppedPackets:count 4
scalar Gate1TutorialStep.consumer droppedPacketLengths:sum 32
scalar Gate1TutorialStep.producer packetLengths:histogram:count 4
scalar Gate1TutorialStep.producer packetLengths:histogram:sumweights 4
scalar Gate1TutorialStep.producer packetLengths:histogram:mean 8
scalar Gate1TutorialStep.producer packetLengths:histogram:stddev 0
scalar Gate1TutorialStep.producer packetLengths:histogram:min 8
scalar Gate1TutorialStep.producer packetLengths:histogram:max 8
scalar Gate1TutorialStep.producer packetLengths:histogram:numbins 2
scalar Gate1TutorialStep.producer packetLengths:histogram:rangemin 7
scalar Gate1TutorialStep.producer packetLengths:histogram:rangemax 9
scalar Gate1TutorialStep.producer packetLengths:histogram:underflows 0
scalar Gate1TutorialStep.producer packetLengths:histogram:overflows 0
scalar Gate1TutorialStep.gate outgoingPacketLengths:histogram:count 4
scalar Gate1TutorialStep.gate outgoingPacketLengths:histogram:sumweights 4
scalar Gate1TutorialStep.gate outgoingPacketLengths:histogram:mean 8
scalar Gate1TutorialStep.gate outgoingPacketLengths:histogram:stddev 0
scalar Gate1TutorialStep.gate outgoingPacketLengths:histogram:min 8
scalar Gate1TutorialStep.gate outgoingPacketLengths:histogram:max 8
scalar Gate1TutorialStep.gate outgoingPacketLengths:histogram:numbins 2
scalar Gate1TutorialStep.gate outgoingPacketLengths:histogram:rangemin 7
scalar Gate1TutorialStep.gate outgoingPacketLengths:histogram:rangemax 9
scalar Gate1TutorialStep.gate outgoingPacketLengths:histogram:underflows 0
scalar Gate1TutorialStep.gate outgoingPacketLengths:histogram:overflows 0
scalar Gate1TutorialStep.gate flowOutgoingPacketLengths:histogram:count 0
scalar Gate1TutorialStep.gate flowOutgoingPacketLengths:histogram:sumweights 0
scalar Gate1TutorialStep.gate flowOutgoingPacketLengths:histogram:mean -nan
scalar Gate1TutorialStep.gate flowOutgoingPacketLengths:histogram:stddev nan
scalar Gate1TutorialStep.gate flowOutgoingPacketLengths:histogram:min nan
scalar Gate1TutorialStep.gate flowOutgoingPacketLengths:histogram:max nan
scalar Gate1TutorialStep.gate flowOutgoingPacketLengths:histogram:numbins 1
scalar Gate1TutorialStep.gate flowOutgoingPacketLengths:histogram:rangemin 0
scalar Gate1TutorialStep.gate flowOutgoingPacketLengths:histogram:rangemax 1
scalar Gate1TutorialStep.gate flowOutgoingPacketLengths:histogram:underflows 0
scalar Gate1TutorialStep.gate flowOutgoingPacketLengths:histogram:overflows 0
scalar Gate1TutorialStep.gate incomingPacketLengths:histogram:count 4
scalar Gate1TutorialStep.gate incomingPacketLengths:histogram:sumweights 4
scalar Gate1TutorialStep.gate incomingPacketLengths:histogram:mean 8
scalar Gate1TutorialStep.gate incomingPacketLengths:histogram:stddev 0
scalar Gate1TutorialStep.gate incomingPacketLengths:histogram:min 8
scalar Gate1TutorialStep.gate incomingPacketLengths:histogram:max 8
scalar Gate1TutorialStep.gate incomingPacketLengths:histogram:numbins 2
scalar Gate1TutorialStep.gate incomingPacketLengths:histogram:rangemin 7
scalar Gate1TutorialStep.gate incomingPacketLengths:histogram:rangemax 9
scalar Gate1TutorialStep.gate incomingPacketLengths:histogram:underflows 0
scalar Gate1TutorialStep.gate incomingPacketLengths:histogram:overflows 0
scalar Gate1TutorialStep.gate flowIncomingPacketLengths:histogram:count 0
scalar Gate1TutorialStep.gate flowIncomingPacketLengths:histogram:sumweights 0
scalar Gate1TutorialStep.gate flowIncomingPacketLengths:histogram:mean -nan
scalar Gate1TutorialStep.gate flowIncomingPacketLengths:histogram:stddev nan
scalar Gate1TutorialStep.gate flowIncomingPacketLengths:histogram:min nan
scalar Gate1TutorialStep.gate flowIncomingPacketLengths:histogram:max nan
scalar Gate1TutorialStep.gate flowIncomingPacketLengths:histogram:numbins 1
scalar Gate1TutorialStep.gate flowIncomingPacketLengths:histogram:rangemin 0
scalar Gate1TutorialStep.gate flowIncomingPacketLengths:histogram:rangemax 1
scalar Gate1TutorialStep.gate flowIncomingPacketLengths:histogram:underflows 0
scalar Gate1TutorialStep.gate flowIncomingPacketLengths:histogram:overflows 0
scalar Gate1TutorialStep.consumer packetLengths:histogram:count 4
scalar Gate1TutorialStep.consumer packetLengths:histogram:sumweights 4
scalar Gate1TutorialStep.consumer packetLengths:histogram:mean 8
scalar Gate1TutorialStep.consumer packetLengths:histogram:stddev 0
scalar Gate1TutorialStep.consumer packetLengths:histogram:min 8
scalar Gate1TutorialStep.consumer packetLengths:histogram:max 8
scalar Gate1TutorialStep.consumer packetLengths:histogram:numbins 2
scalar Gate1TutorialStep.consumer packetLengths:histogram:rangemin 7
scalar Gate1TutorialStep.consumer packetLengths:histogram:rangemax 9
scalar Gate1TutorialStep.consumer packetLengths:histogram:underflows 0
scalar Gate1TutorialStep.consumer packetLengths:histogram:overflows 0
scalar Gate1TutorialStep.consumer meanBitLifeTimePerPacket:histogram:count 4
scalar Gate1TutorialStep.consumer meanBitLifeTimePerPacket:histogram:sumweights 4
scalar Gate1TutorialStep.consumer meanBitLifeTimePerPacket:histogram:mean 0
scalar Gate1TutorialStep.consumer meanBitLifeTimePerPacket:histogram:stddev 0
scalar Gate1TutorialStep.consumer meanBitLifeTimePerPacket:histogram:min 0
scalar Gate1TutorialStep.consumer meanBitLifeTimePerPacket:histogram:max 0
scalar Gate1TutorialStep.consumer meanBitLifeTimePerPacket:histogram:numbins 50
scalar Gate1TutorialStep.consumer meanBitLifeTimePerPacket:histogram:rangemin -0.5
scalar Gate1TutorialStep.consumer meanBitLifeTimePerPacket:histogram:rangemax 0.5
scalar Gate1TutorialStep.consumer meanBitLifeTimePerPacket:histogram:underflows 0
scalar Gate1TutorialStep.consumer meanBitLifeTimePerPacket:histogram:overflows 0
scalar Gate1TutorialStep.consumer packetJitter:histogram:count 4
scalar Gate1TutorialStep.consumer packetJitter:histogram:sumweights 4
scalar Gate1TutorialStep.consumer packetJitter:histogram:mean 0
scalar Gate1TutorialStep.consumer packetJitter:histogram:stddev 0
scalar Gate1TutorialStep.consumer packetJitter:histogram:min 0
scalar Gate1TutorialStep.consumer packetJitter:histogram:max 0
scalar Gate1TutorialStep.consumer packetJitter:histogram:numbins 50
scalar Gate1TutorialStep.consumer packetJitter:histogram:rangemin -0.5
scalar Gate1TutorialStep.consumer packetJitter:histogram:rangemax 0.5
scalar Gate1TutorialStep.consumer packetJitter:histogram:underflows 0
scalar Gate1TutorialStep.consumer packetJitter:histogram:overflows 0
scalar Gate1TutorialStep.consumer packetDelayDifferenceToMean:histogram:count 4
scalar Gate1TutorialStep.consumer packetDelayDifferenceToMean:histogram:sumweights 4
scalar Gate1TutorialStep.consumer packetDelayDifferenceToMean:histogram:mean 0
scalar Gate1TutorialStep.consumer packetDelayDifferenceToMean:histogram:stddev 0
scalar Gate1TutorialStep.consumer packetDelayDifferenceToMean:histogram:min 0
scalar Gate1TutorialStep.consumer packetDelayDifferenceToMean:histogram:max 0
scalar Gate1TutorialStep.consumer packetDelayDifferenceToMean:histogram:numbins 50
scalar Gate1TutorialStep.consumer packetDelayDifferenceToMean:histogram:rangemin -0.5
scalar Gate1TutorialStep.consumer packetDelayDifferenceToMean:histogram:rangemax 0.5
scalar Gate1TutorialStep.consumer packetDelayDifferenceToMean:histogram:underflows 0
scalar Gate1TutorialStep.consumer packetDelayDifferenceToMean:histogram:overflows 0
scalar Gate1TutorialStep.consumer packetDelayVariation:histogram:count 4
scalar Gate1TutorialStep.consumer packetDelayVariation:histogram:sumweights 4
scalar Gate1TutorialStep.consumer packetDelayVariation:histogram:mean 0
scalar Gate1TutorialStep.consumer packetDelayVariation:histogram:stddev 0
scalar Gate1TutorialStep.consumer packetDelayVariation:histogram:min 0
scalar Gate1TutorialStep.consumer packetDelayVariation:histogram:max 0
scalar Gate1TutorialStep.consumer packetDelayVariation:histogram:numbins 50
scalar Gate1TutorialStep.consumer packetDelayVariation:histogram:rangemin -0.5
scalar Gate1TutorialStep.consumer packetDelayVariation:histogram:rangemax 0.5
scalar Gate1TutorialStep.consumer packetDelayVariation:histogram:underflows 0
scalar Gate1TutorialStep.consumer packetDelayVariation:histogram:overflows 0
scalar Gate1TutorialStep.consumer droppedPacketLengths:histogram:count 4
scalar Gate1TutorialStep.consumer droppedPacketLengths:histogram:sumweights 4
scalar Gate1TutorialStep.consumer droppedPacketLengths:histogram:mean 8
scalar Gate1TutorialStep.consumer droppedPacketLengths:histogram:stddev 0
scalar Gate1TutorialStep.consumer droppedPacketLengths:histogram:min 8
scalar Gate1TutorialStep.consumer droppedPacketLengths:histogram:max 8
scalar Gate1TutorialStep.consumer droppedPacketLengths:histogram:numbins 2
scalar Gate1TutorialStep.consumer droppedPacketLengths:histogram:rangemin 7
scalar Gate1TutorialStep.consumer droppedPacketLengths:histogram:rangemax 9
scalar Gate1TutorialStep.consumer droppedPacketLengths:histogram:underflows 0
scalar Gate1TutorialStep.consumer droppedPacketLengths:histogram:overflows 0
statistic Gate1TutorialStep.producer packetLengths:histogram
field count 4
field mean 8
field stddev 0
field min 8
field max 8
field sum 32
field sqrsum 256
bin	-inf	0
bin	7	0
bin	8	4
bin	9	0
statistic Gate1TutorialStep.gate outgoingPacketLengths:histogram
field count 4
field mean 8
field stddev 0
field min 8
field max 8
field sum 32
field sqrsum 256
bin	-inf	0
bin	7	0
bin	8	4
bin	9	0
statistic Gate1TutorialStep.gate flowOutgoingPacketLengths:histogram
field count 0
field mean -nan
field stddev nan
field min nan
field max nan
field sum 0
field sqrsum 0
bin	-inf	0
bin	0	0
bin	1	0
statistic Gate1TutorialStep.gate incomingPacketLengths:histogram
field count 4
field mean 8
field stddev 0
field min 8
field max 8
field sum 32
field sqrsum 256
bin	-inf	0
bin	7	0
bin	8	4
bin	9	0
statistic Gate1TutorialStep.gate flowIncomingPacketLengths:histogram
field count 0
field mean -nan
field stddev nan
field min nan
field max nan
field sum 0
field sqrsum 0
bin	-inf	0
bin	0	0
bin	1	0
statistic Gate1TutorialStep.consumer packetLengths:histogram
field count 4
field mean 8
field stddev 0
field min 8
field max 8
field sum 32
field sqrsum 256
bin	-inf	0
bin	7	0
bin	8	4
bin	9	0
statistic Gate1TutorialStep.consumer meanBitLifeTimePerPacket:histogram
field count 4
field mean 0
field stddev 0
field min 0
field max 0
field sum 0
field sqrsum 0
bin	-inf	0
bin	-0.5	0
bin	-0.48	0
bin	-0.46	0
bin	-0.44	0
bin	-0.42	0
bin	-0.4	0
bin	-0.38	0
bin	-0.36	0
bin	-0.34	0
bin	-0.32	0
bin	-0.3	0
bin	-0.28	0
bin	-0.26	0
bin	-0.24	0
bin	-0.22	0
bin	-0.2	0
bin	-0.18	0
bin	-0.16	0
bin	-0.14	0
bin	-0.12	0
bin	-0.1	0
bin	-0.08	0
bin	-0.06	0
bin	-0.04	0
bin	-0.02	0
bin	0	4
bin	0.02	0
bin	0.04	0
bin	0.06	0
bin	0.08	0
bin	0.1	0
bin	0.12	0
bin	0.14	0
bin	0.16	0
bin	0.18	0
bin	0.2	0
bin	0.22	0
bin	0.24	0
bin	0.26	0
bin	0.28	0
bin	0.3	0
bin	0.32	0
bin	0.34	0
bin	0.36	0
bin	0.38	0
bin	0.4	0
bin	0.42	0
bin	0.44	0
bin	0.46	0
bin	0.48	0
bin	0.5	0
statistic Gate1TutorialStep.consumer packetJitter:histogram
field count 4
field mean 0
field stddev 0
field min 0
field max 0
field sum 0
field sqrsum 0
bin	-inf	0
bin	-0.5	0
bin	-0.48	0
bin	-0.46	0
bin	-0.44	0
bin	-0.42	0
bin	-0.4	0
bin	-0.38	0
bin	-0.36	0
bin	-0.34	0
bin	-0.32	0
bin	-0.3	0
bin	-0.28	0
bin	-0.26	0
bin	-0.24	0
bin	-0.22	0
bin	-0.2	0
bin	-0.18	0
bin	-0.16	0
bin	-0.14	0
bin	-0.12	0
bin	-0.1	0
bin	-0.08	0
bin	-0.06	0
bin	-0.04	0
bin	-0.02	0
bin	0	4
bin	0.02	0
bin	0.04	0
bin	0.06	0
bin	0.08	0
bin	0.1	0
bin	0.12	0
bin	0.14	0
bin	0.16	0
bin	0.18	0
bin	0.2	0
bin	0.22	0
bin	0.24	0
bin	0.26	0
bin	0.28	0
bin	0.3	0
bin	0.32	0
bin	0.34	0
bin	0.36	0
bin	0.38	0
bin	0.4	0
bin	0.42	0
bin	0.44	0
bin	0.46	0
bin	0.48	0
bin	0.5	0
statistic Gate1TutorialStep.consumer packetDelayDifferenceToMean:histogram
field count 4
field mean 0
field stddev 0
field min 0
field max 0
field sum 0
field sqrsum 0
bin	-inf	0
bin	-0.5	0
bin	-0.48	0
bin	-0.46	0
bin	-0.44	0
bin	-0.42	0
bin	-0.4	0
bin	-0.38	0
bin	-0.36	0
bin	-0.34	0
bin	-0.32	0
bin	-0.3	0
bin	-0.28	0
bin	-0.26	0
bin	-0.24	0
bin	-0.22	0
bin	-0.2	0
bin	-0.18	0
bin	-0.16	0
bin	-0.14	0
bin	-0.12	0
bin	-0.1	0
bin	-0.08	0
bin	-0.06	0
bin	-0.04	0
bin	-0.02	0
bin	0	4
bin	0.02	0
bin	0.04	0
bin	0.06	0
bin	0.08	0
bin	0.1	0
bin	0.12	0
bin	0.14	0
bin	0.16	0
bin	0.18	0
bin	0.2	0
bin	0.22	0
bin	0.24	0
bin	0.26	0
bin	0.28	0
bin	0.3	0
bin	0.32	0
bin	0.34	0
bin	0.36	0
bin	0.38	0
bin	0.4	0
bin	0.42	0
bin	0.44	0
bin	0.46	0
bin	0.48	0
bin	0.5	0
statistic Gate1TutorialStep.consumer packetDelayVariation:histogram
field count 4
field mean 0
field stddev 0
field min 0
field max 0
field sum 0
field sqrsum 0
bin	-inf	0
bin	-0.5	0
bin	-0.48	0
bin	-0.46	0
bin	-0.44	0
bin	-0.42	0
bin	-0.4	0
bin	-0.38	0
bin	-0.36	0
bin	-0.34	0
bin	-0.32	0
bin	-0.3	0
bin	-0.28	0
bin	-0.26	0
bin	-0.24	0
bin	-0.22	0
bin	-0.2	0
bin	-0.18	0
bin	-0.16	0
bin	-0.14	0
bin	-0.12	0
bin	-0.1	0
bin	-0.08	0
bin	-0.06	0
bin	-0.04	0
bin	-0.02	0
bin	0	4
bin	0.02	0
bin	0.04	0
bin	0.06	0
bin	0.08	0
bin	0.1	0
bin	0.12	0
bin	0.14	0
bin	0.16	0
bin	0.18	0
bin	0.2	0
bin	0.22	0
bin	0.24	0
bin	0.26	0
bin	0.28	0
bin	0.3	0
bin	0.32	0
bin	0.34	0
bin	0.36	0
bin	0.38	0
bin	0.4	0
bin	0.42	0
bin	0.44	0
bin	0.46	0
bin	0.48	0
bin	0.5	0
statistic Gate1TutorialStep.consumer droppedPacketLengths:histogram
field count 4
field mean 8
field stddev 0
field min 8
field max 8
field sum 32
field sqrsum 256
bin	-inf	0
bin	7	0
bin	8	4
bin	9	0
scalar Gate1TutorialStep.producer packetLengths:vector:count 4
scalar Gate1TutorialStep.producer packetLengths:vector:sum 32
scalar Gate1TutorialStep.producer packetLengths:vector:sumweights 4
scalar Gate1TutorialStep.producer packetLengths:vector:mean 8
scalar Gate1TutorialStep.producer packetLengths:vector:stddev 0
scalar Gate1TutorialStep.producer packetLengths:vector:min 8
scalar Gate1TutorialStep.producer packetLengths:vector:max 8
scalar Gate1TutorialStep.producer packetLengths:vector:starttime 3
scalar Gate1TutorialStep.producer packetLengths:vector:endtime 6
scalar Gate1TutorialStep.producer dataRate:vector:count 100
scalar Gate1TutorialStep.producer dataRate:vector:sum 320
scalar Gate1TutorialStep.producer dataRate:vector:sumweights 100
scalar Gate1TutorialStep.producer dataRate:vector:mean 3.2
scalar Gate1TutorialStep.producer dataRate:vector:stddev 15.755710845355
scalar Gate1TutorialStep.producer dataRate:vector:min 0
scalar Gate1TutorialStep.producer dataRate:vector:max 80
scalar Gate1TutorialStep.producer dataRate:vector:starttime 0.1
scalar Gate1TutorialStep.producer dataRate:vector:endtime 10
scalar Gate1TutorialStep.gate incomingPacketLengths:vector:count 4
scalar Gate1TutorialStep.gate incomingPacketLengths:vector:sum 32
scalar Gate1TutorialStep.gate incomingPacketLengths:vector:sumweights 4
scalar Gate1TutorialStep.gate incomingPacketLengths:vector:mean 8
scalar Gate1TutorialStep.gate incomingPacketLengths:vector:stddev 0
scalar Gate1TutorialStep.gate incomingPacketLengths:vector:min 8
scalar Gate1TutorialStep.gate incomingPacketLengths:vector:max 8
scalar Gate1TutorialStep.gate incomingPacketLengths:vector:starttime 3
scalar Gate1TutorialStep.gate incomingPacketLengths:vector:endtime 6
scalar Gate1TutorialStep.gate incomingDataRate:vector:count 100
scalar Gate1TutorialStep.gate incomingDataRate:vector:sum 320
scalar Gate1TutorialStep.gate incomingDataRate:vector:sumweights 100
scalar Gate1TutorialStep.gate incomingDataRate:vector:mean 3.2
scalar Gate1TutorialStep.gate incomingDataRate:vector:stddev 15.755710845355
scalar Gate1TutorialStep.gate incomingDataRate:vector:min 0
scalar Gate1TutorialStep.gate incomingDataRate:vector:max 80
scalar Gate1TutorialStep.gate incomingDataRate:vector:starttime 0.1
scalar Gate1TutorialStep.gate incomingDataRate:vector:endtime 10
scalar Gate1TutorialStep.gate outgoingPacketLengths:vector:count 4
scalar Gate1TutorialStep.gate outgoingPacketLengths:vector:sum 32
scalar Gate1TutorialStep.gate outgoingPacketLengths:vector:sumweights 4
scalar Gate1TutorialStep.gate outgoingPacketLengths:vector:mean 8
scalar Gate1TutorialStep.gate outgoingPacketLengths:vector:stddev 0
scalar Gate1TutorialStep.gate outgoingPacketLengths:vector:min 8
scalar Gate1TutorialStep.gate outgoingPacketLengths:vector:max 8
scalar Gate1TutorialStep.gate outgoingPacketLengths:vector:starttime 3
scalar Gate1TutorialStep.gate outgoingPacketLengths:vector:endtime 6
scalar Gate1TutorialStep.gate outgoingDataRate:vector:count 100
scalar Gate1TutorialStep.gate outgoingDataRate:vector:sum 320
scalar Gate1TutorialStep.gate outgoingDataRate:vector:sumweights 100
scalar Gate1TutorialStep.gate outgoingDataRate:vector:mean 3.2
scalar Gate1TutorialStep.gate outgoingDataRate:vector:stddev 15.755710845355
scalar Gate1TutorialStep.gate outgoingDataRate:vector:min 0
scalar Gate1TutorialStep.gate outgoingDataRate:vector:max 80
scalar Gate1TutorialStep.gate outgoingDataRate:vector:starttime 0.1
scalar Gate1TutorialStep.gate outgoingDataRate:vector:endtime 10
scalar Gate1TutorialStep.gate flowIncomingPacketLengths:vector:count 0
scalar Gate1TutorialStep.gate flowIncomingPacketLengths:vector:sum 0
scalar Gate1TutorialStep.gate flowIncomingPacketLengths:vector:sumweights 0
scalar Gate1TutorialStep.gate flowIncomingPacketLengths:vector:mean -nan
scalar Gate1TutorialStep.gate flowIncomingPacketLengths:vector:stddev nan
scalar Gate1TutorialStep.gate flowIncomingPacketLengths:vector:min inf
scalar Gate1TutorialStep.gate flowIncomingPacketLengths:vector:max -inf
scalar Gate1TutorialStep.gate flowIncomingPacketLengths:vector:starttime nan
scalar Gate1TutorialStep.gate flowIncomingPacketLengths:vector:endtime nan
scalar Gate1TutorialStep.gate flowIncomingDataRate:vector:count 100
scalar Gate1TutorialStep.gate flowIncomingDataRate:vector:sum 0
scalar Gate1TutorialStep.gate flowIncomingDataRate:vector:sumweights 100
scalar Gate1TutorialStep.gate flowIncomingDataRate:vector:mean 0
scalar Gate1TutorialStep.gate flowIncomingDataRate:vector:stddev 0
scalar Gate1TutorialStep.gate flowIncomingDataRate:vector:min 0
scalar Gate1TutorialStep.gate flowIncomingDataRate:vector:max 0
scalar Gate1TutorialStep.gate flowIncomingDataRate:vector:starttime 0.1
scalar Gate1TutorialStep.gate flowIncomingDataRate:vector:endtime 10
scalar Gate1TutorialStep.gate flowOutgoingPacketLengths:vector:count 0
scalar Gate1TutorialStep.gate flowOutgoingPacketLengths:vector:sum 0
scalar Gate1TutorialStep.gate flowOutgoingPacketLengths:vector:sumweights 0
scalar Gate1TutorialStep.gate flowOutgoingPacketLengths:vector:mean -nan
scalar Gate1TutorialStep.gate flowOutgoingPacketLengths:vector:stddev nan
scalar Gate1TutorialStep.gate flowOutgoingPacketLengths:vector:min inf
scalar Gate1TutorialStep.gate flowOutgoingPacketLengths:vector:max -inf
scalar Gate1TutorialStep.gate flowOutgoingPacketLengths:vector:starttime nan
scalar Gate1TutorialStep.gate flowOutgoingPacketLengths:vector:endtime nan
scalar Gate1TutorialStep.gate flowOutgoingDataRate:vector:count 100
scalar Gate1TutorialStep.gate flowOutgoingDataRate:vector:sum 0
scalar Gate1TutorialStep.gate flowOutgoingDataRate:vector:sumweights 100
scalar Gate1TutorialStep.gate flowOutgoingDataRate:vector:mean 0
scalar Gate1TutorialStep.gate flowOutgoingDataRate:vector:stddev 0
scalar Gate1TutorialStep.gate flowOutgoingDataRate:vector:min 0
scalar Gate1TutorialStep.gate flowOutgoingDataRate:vector:max 0
scalar Gate1TutorialStep.gate flowOutgoingDataRate:vector:starttime 0.1
scalar Gate1TutorialStep.gate flowOutgoingDataRate:vector:endtime 10
scalar Gate1TutorialStep.gate gateState:vector:count 4
scalar Gate1TutorialStep.gate gateState:vector:sum 1
scalar Gate1TutorialStep.gate gateState:vector:sumweights 4
scalar Gate1TutorialStep.gate gateState:vector:mean 0.25
scalar Gate1TutorialStep.gate gateState:vector:stddev 0.5
scalar Gate1TutorialStep.gate gateState:vector:min 0
scalar Gate1TutorialStep.gate gateState:vector:max 1
scalar Gate1TutorialStep.gate gateState:vector:starttime 0
scalar Gate1TutorialStep.gate gateState:vector:endtime 10
scalar Gate1TutorialStep.consumer droppedPacketLengths:vector:count 4
scalar Gate1TutorialStep.consumer droppedPacketLengths:vector:sum 32
scalar Gate1TutorialStep.consumer droppedPacketLengths:vector:sumweights 4
scalar Gate1TutorialStep.consumer droppedPacketLengths:vector:mean 8
scalar Gate1TutorialStep.consumer droppedPacketLengths:vector:stddev 0
scalar Gate1TutorialStep.consumer droppedPacketLengths:vector:min 8
scalar Gate1TutorialStep.consumer droppedPacketLengths:vector:max 8
scalar Gate1TutorialStep.consumer droppedPacketLengths:vector:starttime 3
scalar Gate1TutorialStep.consumer droppedPacketLengths:vector:endtime 6
scalar Gate1TutorialStep.consumer droppedDataRate:vector:count 100
scalar Gate1TutorialStep.consumer droppedDataRate:vector:sum 320
scalar Gate1TutorialStep.consumer droppedDataRate:vector:sumweights 100
scalar Gate1TutorialStep.consumer droppedDataRate:vector:mean 3.2
scalar Gate1TutorialStep.consumer droppedDataRate:vector:stddev 15.755710845355
scalar Gate1TutorialStep.consumer droppedDataRate:vector:min 0
scalar Gate1TutorialStep.consumer droppedDataRate:vector:max 80
scalar Gate1TutorialStep.consumer droppedDataRate:vector:starttime 0.1
scalar Gate1TutorialStep.consumer droppedDataRate:vector:endtime 10
scalar Gate1TutorialStep.consumer packetLengths:vector:count 4
scalar Gate1TutorialStep.consumer packetLengths:vector:sum 32
scalar Gate1TutorialStep.consumer packetLengths:vector:sumweights 4
scalar Gate1TutorialStep.consumer packetLengths:vector:mean 8
scalar Gate1TutorialStep.consumer packetLengths:vector:stddev 0
scalar Gate1TutorialStep.consumer packetLengths:vector:min 8
scalar Gate1TutorialStep.consumer packetLengths:vector:max 8
scalar Gate1TutorialStep.consumer packetLengths:vector:starttime 3
scalar Gate1TutorialStep.consumer packetLengths:vector:endtime 6
scalar Gate1TutorialStep.consumer dataRate:vector:count 100
scalar Gate1TutorialStep.consumer dataRate:vector:sum 320
scalar Gate1TutorialStep.consumer dataRate:vector:sumweights 100
scalar Gate1TutorialStep.consumer dataRate:vector:mean 3.2
scalar Gate1TutorialStep.consumer dataRate:vector:stddev 15.755710845355
scalar Gate1TutorialStep.consumer dataRate:vector:min 0
scalar Gate1TutorialStep.consumer dataRate:vector:max 80
scalar Gate1TutorialStep.consumer dataRate:vector:starttime 0.1
scalar Gate1TutorialStep.consumer dataRate:vector:endtime 10
scalar Gate1TutorialStep.consumer meanBitLifeTimePerPacket:vector:count 4
scalar Gate1TutorialStep.consumer meanBitLifeTimePerPacket:vector:sum 0
scalar Gate1TutorialStep.consumer meanBitLifeTimePerPacket:vector:sumweights 4
scalar Gate1TutorialStep.consumer meanBitLifeTimePerPacket:vector:mean 0
scalar Gate1TutorialStep.consumer meanBitLifeTimePerPacket:vector:stddev 0
scalar Gate1TutorialStep.consumer meanBitLifeTimePerPacket:vector:min 0
scalar Gate1TutorialStep.consumer meanBitLifeTimePerPacket:vector:max 0
scalar Gate1TutorialStep.consumer meanBitLifeTimePerPacket:vector:starttime 3
scalar Gate1TutorialStep.consumer meanBitLifeTimePerPacket:vector:endtime 6
scalar Gate1TutorialStep.consumer packetJitter:vector:count 4
scalar Gate1TutorialStep.consumer packetJitter:vector:sum 0
scalar Gate1TutorialStep.consumer packetJitter:vector:sumweights 4
scalar Gate1TutorialStep.consumer packetJitter:vector:mean 0
scalar Gate1TutorialStep.consumer packetJitter:vector:stddev 0
scalar Gate1TutorialStep.consumer packetJitter:vector:min 0
scalar Gate1TutorialStep.consumer packetJitter:vector:max 0
scalar Gate1TutorialStep.consumer packetJitter:vector:starttime 3
scalar Gate1TutorialStep.consumer packetJitter:vector:endtime 6
scalar Gate1TutorialStep.consumer packetDelayDifferenceToMean:vector:count 4
scalar Gate1TutorialStep.consumer packetDelayDifferenceToMean:vector:sum 0
scalar Gate1TutorialStep.consumer packetDelayDifferenceToMean:vector:sumweights 4
scalar Gate1TutorialStep.consumer packetDelayDifferenceToMean:vector:mean 0
scalar Gate1TutorialStep.consumer packetDelayDifferenceToMean:vector:stddev 0
scalar Gate1TutorialStep.consumer packetDelayDifferenceToMean:vector:min 0
scalar Gate1TutorialStep.consumer packetDelayDifferenceToMean:vector:max 0
scalar Gate1TutorialStep.consumer packetDelayDifferenceToMean:vector:starttime 3
scalar Gate1TutorialStep.consumer packetDelayDifferenceToMean:vector:endtime 6
scalar Gate1TutorialStep.consumer packetDelayVariation:vector:count 4
scalar Gate1TutorialStep.consumer packetDelayVariation:vector:sum 0
scalar Gate1TutorialStep.consumer packetDelayVariation:vector:sumweights 4
scalar Gate1TutorialStep.consumer packetDelayVariation:vector:mean 0
scalar Gate1TutorialStep.consumer packetDelayVariation:vector:stddev 0
scalar Gate1TutorialStep.consumer packetDelayVariation:vector:min 0
scalar Gate1TutorialStep.consumer packetDelayVariation:vector:max 0
scalar Gate1TutorialStep.consumer packetDelayVariation:vector:starttime 3
scalar Gate1TutorialStep.consumer packetDelayVariation:vector:endtime 6

