version 3
run TokenBucket-0-20230426-15:01:33-204743
attr configname TokenBucket
attr datetime 20230426-15:01:33
attr datetimef 20230426-150133
attr experiment TokenBucket
attr inifile omnetpp.ini
attr iterationvars ""
attr iterationvarsd ""
attr iterationvarsf ""
attr measurement ""
attr network TokenBucketTutorialStep
attr processid 204743
attr repetition 0
attr replication #0
attr resultdir results.omnetpp.ini_TokenBucket_0
attr runnumber 0
attr seedset 0
config **.param-recording false
config **.vector-recording false
config image-path /home/levy/workspace/inet/images
config result-dir results.omnetpp.ini_TokenBucket_0
config sim-time-limit 10s
config network TokenBucketTutorialStep
config sim-time-limit 10s
config *.producer.packetLength 1B
config *.producer.productionInterval "uniform(0s, 2s)"
config *.bucket.server.maxNumTokens 10
config *.tokenGenerator.generationInterval "uniform(0s, 2s)"

scalar TokenBucketTutorialStep.producer packets:count 9
attr recordingmode count
attr source packetPushed
attr title "packets, count"
attr unit pk
scalar TokenBucketTutorialStep.producer packetLengths:sum 72
attr interpolationmode none
attr recordingmode sum
attr source packetLength(packetPushed)
attr title "packet lengths, sum"
attr unit b
statistic TokenBucketTutorialStep.producer packetLengths:histogram
field count 9
field mean 8
field stddev 0
field min 8
field max 8
field sum 72
field sqrsum 576
attr interpolationmode none
attr recordingmode histogram
attr source packetLength(packetPushed)
attr title "packet lengths"
attr unit b
bin	-inf	0
bin	7	0
bin	8	9
bin	9	0
scalar TokenBucketTutorialStep.bucket.queue queueLength:last 2
attr autoWarmupFilter false
attr interpolationmode sample-hold
attr recordingmode last
attr source "warmup(atomic(constant0(packetPushEnded) + count(packetPushStarted) - count(packetPulled) - count(packetRemoved) - count(packetDropped)))"
attr title "queue length, last"
attr unit pk
scalar TokenBucketTutorialStep.bucket.queue queueLength:max 4
attr autoWarmupFilter false
attr interpolationmode sample-hold
attr recordingmode max
attr source "warmup(atomic(constant0(packetPushEnded) + count(packetPushStarted) - count(packetPulled) - count(packetRemoved) - count(packetDropped)))"
attr title "queue length, max"
attr unit pk
scalar TokenBucketTutorialStep.bucket.queue queueLength:timeavg 1.8788747176055
attr autoWarmupFilter false
attr interpolationmode sample-hold
attr recordingmode timeavg
attr source "warmup(atomic(constant0(packetPushEnded) + count(packetPushStarted) - count(packetPulled) - count(packetRemoved) - count(packetDropped)))"
attr title "queue length, timeavg"
attr unit pk
scalar TokenBucketTutorialStep.bucket.queue queueBitLength:last 16
attr autoWarmupFilter false
attr interpolationmode sample-hold
attr recordingmode last
attr source "warmup(atomic(constant0(packetPushEnded) + sum(packetLength(packetPushStarted)) - sum(packetLength(packetPulled)) - sum(packetLength(packetRemoved)) - sum(packetLength(packetDropped))))"
attr title "queue bit length, last"
attr unit b
scalar TokenBucketTutorialStep.bucket.queue queueBitLength:max 32
attr autoWarmupFilter false
attr interpolationmode sample-hold
attr recordingmode max
attr source "warmup(atomic(constant0(packetPushEnded) + sum(packetLength(packetPushStarted)) - sum(packetLength(packetPulled)) - sum(packetLength(packetRemoved)) - sum(packetLength(packetDropped))))"
attr title "queue bit length, max"
attr unit b
scalar TokenBucketTutorialStep.bucket.queue queueBitLength:timeavg 15.030997740844
attr autoWarmupFilter false
attr interpolationmode sample-hold
attr recordingmode timeavg
attr source "warmup(atomic(constant0(packetPushEnded) + sum(packetLength(packetPushStarted)) - sum(packetLength(packetPulled)) - sum(packetLength(packetRemoved)) - sum(packetLength(packetDropped))))"
attr title "queue bit length, timeavg"
attr unit b
statistic TokenBucketTutorialStep.bucket.queue queueingTime:histogram
field count 7
field mean 2.1081164074789
field stddev 0.61104256752368
field min 1.185689232778
field max 2.780969661659
field sum 14.756814852352
field sqrsum 33.349321628327
attr interpolationmode none
attr recordingmode histogram
attr source queueingTime(packetPulled)
attr title "queueing times"
attr unit s
bin	-inf	0
bin	0.75	0
bin	0.8	0
bin	0.85	0
bin	0.9	0
bin	0.95	0
bin	1	0
bin	1.05	0
bin	1.1	0
bin	1.15	1
bin	1.2	0
bin	1.25	0
bin	1.3	0
bin	1.35	0
bin	1.4	0
bin	1.45	0
bin	1.5	0
bin	1.55	0
bin	1.6	1
bin	1.65	0
bin	1.7	0
bin	1.75	1
bin	1.8	0
bin	1.85	0
bin	1.9	0
bin	1.95	0
bin	2	0
bin	2.05	1
bin	2.1	0
bin	2.15	0
bin	2.2	0
bin	2.25	0
bin	2.3	0
bin	2.35	0
bin	2.4	0
bin	2.45	0
bin	2.5	0
bin	2.55	1
bin	2.6	0
bin	2.65	0
bin	2.7	0
bin	2.75	2
bin	2.8	0
bin	2.85	0
bin	2.9	0
bin	2.95	0
bin	3	0
bin	3.05	0
bin	3.1	0
bin	3.15	0
bin	3.2	0
scalar TokenBucketTutorialStep.bucket.queue outgoingPackets:count 7
attr recordingmode count
attr source packetPulled
attr title "outgoing packets, count"
attr unit pk
scalar TokenBucketTutorialStep.bucket.queue outgoingPacketLengths:sum 56
attr interpolationmode none
attr recordingmode sum
attr source packetLength(packetPulled)
attr title "outgoing packet lengths, sum"
attr unit b
statistic TokenBucketTutorialStep.bucket.queue outgoingPacketLengths:histogram
field count 7
field mean 8
field stddev 0
field min 8
field max 8
field sum 56
field sqrsum 448
attr interpolationmode none
attr recordingmode histogram
attr source packetLength(packetPulled)
attr title "outgoing packet lengths"
attr unit b
bin	-inf	0
bin	7	0
bin	8	7
bin	9	0
statistic TokenBucketTutorialStep.bucket.queue flowQueueingTime:histogram
field count 0
field mean -nan
field stddev nan
field min nan
field max nan
field sum 0
field sqrsum 0
attr interpolationmode none
attr recordingmode histogram
attr source queueingTime(demuxFlow(packetPulled))
attr title "flow queueing times"
attr unit s
bin	-inf	0
bin	0	0
bin	1	0
scalar TokenBucketTutorialStep.bucket.queue incomingPackets:count 9
attr recordingmode count
attr source packetPushStarted
attr title "incoming packets, count"
attr unit pk
scalar TokenBucketTutorialStep.bucket.queue incomingPacketLengths:sum 72
attr interpolationmode none
attr recordingmode sum
attr source packetLength(packetPushStarted)
attr title "incoming packet lengths, sum"
attr unit b
statistic TokenBucketTutorialStep.bucket.queue incomingPacketLengths:histogram
field count 9
field mean 8
field stddev 0
field min 8
field max 8
field sum 72
field sqrsum 576
attr interpolationmode none
attr recordingmode histogram
attr source packetLength(packetPushStarted)
attr title "incoming packet lengths"
attr unit b
bin	-inf	0
bin	7	0
bin	8	9
bin	9	0
scalar TokenBucketTutorialStep.bucket.queue droppedPacketsQueueOverflow:count 0
attr interpolationmode none
attr recordingmode count
attr source packetDropReasonIsQueueOverflow(packetDropped)
attr title "dropped packets: queue overflow, count"
attr unit pk
scalar TokenBucketTutorialStep.bucket.queue droppedPacketLengthsQueueOverflow:sum 0
attr interpolationmode none
attr recordingmode sum
attr source packetLength(packetDropReasonIsQueueOverflow(packetDropped))
attr title "dropped packet lengths: queue overflow, sum"
attr unit b
scalar TokenBucketTutorialStep.bucket.server numTokensDepleted:count 7
attr interpolationmode none
attr recordingmode count
attr source tokensDepleted
attr title "number of times tokens are depleted, count"
attr unit tk
scalar TokenBucketTutorialStep.bucket.server removedTokens:sum 0
attr interpolationmode none
attr recordingmode sum
attr source tokensRemoved
attr title "removed tokens, sum"
attr unit tk
scalar TokenBucketTutorialStep.bucket.server addedTokens:sum 7
attr interpolationmode none
attr recordingmode sum
attr source tokensAdded
attr title "added tokens, sum"
attr unit tk
scalar TokenBucketTutorialStep.bucket.server incomingPackets:count 7
attr recordingmode count
attr source packetPulled
attr title "incoming packets, count"
attr unit pk
scalar TokenBucketTutorialStep.bucket.server incomingPacketLengths:sum 56
attr interpolationmode none
attr recordingmode sum
attr source packetLength(packetPulled)
attr title "incoming packet lengths, sum"
attr unit b
statistic TokenBucketTutorialStep.bucket.server incomingPacketLengths:histogram
field count 7
field mean 8
field stddev 0
field min 8
field max 8
field sum 56
field sqrsum 448
attr interpolationmode none
attr recordingmode histogram
attr source packetLength(packetPulled)
attr title "incoming packet lengths"
attr unit b
bin	-inf	0
bin	7	0
bin	8	7
bin	9	0
scalar TokenBucketTutorialStep.bucket.server outgoingPackets:count 7
attr recordingmode count
attr source packetPushed
attr title "outgoing packets, count"
attr unit pk
scalar TokenBucketTutorialStep.bucket.server outgoingPacketLengths:sum 56
attr interpolationmode none
attr recordingmode sum
attr source packetLength(packetPushed)
attr title "outgoing packet lengths, sum"
attr unit b
statistic TokenBucketTutorialStep.bucket.server outgoingPacketLengths:histogram
field count 7
field mean 8
field stddev 0
field min 8
field max 8
field sum 56
field sqrsum 448
attr interpolationmode none
attr recordingmode histogram
attr source packetLength(packetPushed)
attr title "outgoing packet lengths"
attr unit b
bin	-inf	0
bin	7	0
bin	8	7
bin	9	0
scalar TokenBucketTutorialStep.consumer packets:count 7
attr recordingmode count
attr source packetPushed
attr title "packets, count"
attr unit pk
scalar TokenBucketTutorialStep.consumer packetLengths:sum 56
attr interpolationmode none
attr recordingmode sum
attr source packetLength(packetPushed)
attr title "packet lengths, sum"
attr unit b
statistic TokenBucketTutorialStep.consumer packetLengths:histogram
field count 7
field mean 8
field stddev 0
field min 8
field max 8
field sum 56
field sqrsum 448
attr interpolationmode none
attr recordingmode histogram
attr source packetLength(packetPushed)
attr title "packet lengths"
attr unit b
bin	-inf	0
bin	7	0
bin	8	7
bin	9	0
statistic TokenBucketTutorialStep.consumer meanBitLifeTimePerPacket:histogram
field count 7
field mean 2.1081164074789
field stddev 0.61104256752368
field min 1.185689232778
field max 2.780969661659
field sum 14.756814852352
field sqrsum 33.349321628327
attr interpolationmode none
attr recordingmode histogram
attr source weightedMeanPerGroup(groupRegionsPerPacket(lifeTimePerRegion(packetPushed)))
attr title "mean bit life time per packet"
attr unit s
bin	-inf	0
bin	0.75	0
bin	0.8	0
bin	0.85	0
bin	0.9	0
bin	0.95	0
bin	1	0
bin	1.05	0
bin	1.1	0
bin	1.15	1
bin	1.2	0
bin	1.25	0
bin	1.3	0
bin	1.35	0
bin	1.4	0
bin	1.45	0
bin	1.5	0
bin	1.55	0
bin	1.6	1
bin	1.65	0
bin	1.7	0
bin	1.75	1
bin	1.8	0
bin	1.85	0
bin	1.9	0
bin	1.95	0
bin	2	0
bin	2.05	1
bin	2.1	0
bin	2.15	0
bin	2.2	0
bin	2.25	0
bin	2.3	0
bin	2.35	0
bin	2.4	0
bin	2.45	0
bin	2.5	0
bin	2.55	1
bin	2.6	0
bin	2.65	0
bin	2.7	0
bin	2.75	2
bin	2.8	0
bin	2.85	0
bin	2.9	0
bin	2.95	0
bin	3	0
bin	3.05	0
bin	3.1	0
bin	3.15	0
bin	3.2	0
statistic TokenBucketTutorialStep.consumer packetJitter:histogram
field count 7
field mean 0.23532403147357
field stddev 0.70885696148728
field min -1.133701441344
field max 1.185689232778
field sum 1.647268220315
field sqrsum 3.4025109496167
attr interpolationmode none
attr recordingmode histogram
attr source jitter(weightedMeanPerGroup(groupRegionsPerPacket(lifeTimePerRegion(packetPushed))))
attr title "packet jitter"
attr unit s
bin	-inf	0
bin	-1.75	0
bin	-1.7	0
bin	-1.65	0
bin	-1.6	0
bin	-1.55	0
bin	-1.5	0
bin	-1.45	0
bin	-1.4	0
bin	-1.35	0
bin	-1.3	0
bin	-1.25	0
bin	-1.2	0
bin	-1.15	1
bin	-1.1	0
bin	-1.05	0
bin	-1	0
bin	-0.95	0
bin	-0.9	0
bin	-0.85	0
bin	-0.8	0
bin	-0.75	0
bin	-0.7	0
bin	-0.65	0
bin	-0.6	0
bin	-0.55	0
bin	-0.5	0
bin	-0.45	0
bin	-0.4	0
bin	-0.35	0
bin	-0.3	0
bin	-0.25	0
bin	-0.2	0
bin	-0.15	0
bin	-0.1	0
bin	-0.05	0
bin	0	1
bin	0.05	0
bin	0.1	0
bin	0.15	0
bin	0.2	1
bin	0.25	1
bin	0.3	0
bin	0.35	0
bin	0.4	0
bin	0.45	1
bin	0.5	0
bin	0.55	1
bin	0.6	0
bin	0.65	0
bin	0.7	0
bin	0.75	0
bin	0.8	0
bin	0.85	0
bin	0.9	0
bin	0.95	0
bin	1	0
bin	1.05	0
bin	1.1	0
bin	1.15	1
bin	1.2	0
bin	1.25	0
bin	1.3	0
bin	1.35	0
bin	1.4	0
bin	1.45	0
bin	1.5	0
bin	1.55	0
bin	1.6	0
bin	1.65	0
bin	1.7	0
bin	1.75	0
bin	1.8	0
statistic TokenBucketTutorialStep.consumer packetDelayDifferenceToMean:histogram
field count 7
field mean -0.30893763989503
field stddev 0.41659139452942
field min -0.6873894412064
field max 0.46084818716386
field sum -2.1625634792652
field sqrsum 1.7093875973832
attr interpolationmode none
attr recordingmode histogram
attr source differenceToMean(weightedMeanPerGroup(groupRegionsPerPacket(lifeTimePerRegion(packetPushed))))
attr title "packet delay difference to mean"
attr unit s
bin	-inf	0
bin	-0.98	0
bin	-0.96	0
bin	-0.94	0
bin	-0.92	0
bin	-0.9	0
bin	-0.88	0
bin	-0.86	0
bin	-0.84	0
bin	-0.82	0
bin	-0.8	0
bin	-0.78	0
bin	-0.76	0
bin	-0.74	0
bin	-0.72	0
bin	-0.7	1
bin	-0.68	0
bin	-0.66	1
bin	-0.64	0
bin	-0.62	0
bin	-0.6	1
bin	-0.58	0
bin	-0.56	0
bin	-0.54	0
bin	-0.52	0
bin	-0.5	0
bin	-0.48	0
bin	-0.46	0
bin	-0.44	0
bin	-0.42	0
bin	-0.4	1
bin	-0.38	0
bin	-0.36	0
bin	-0.34	0
bin	-0.32	0
bin	-0.3	1
bin	-0.28	0
bin	-0.26	0
bin	-0.24	0
bin	-0.22	0
bin	-0.2	0
bin	-0.18	0
bin	-0.16	0
bin	-0.14	0
bin	-0.12	0
bin	-0.1	0
bin	-0.08	0
bin	-0.06	0
bin	-0.04	0
bin	-0.02	0
bin	0	1
bin	0.02	0
bin	0.04	0
bin	0.06	0
bin	0.08	0
bin	0.1	0
bin	0.12	0
bin	0.14	0
bin	0.16	0
bin	0.18	0
bin	0.2	0
bin	0.22	0
bin	0.24	0
bin	0.26	0
bin	0.28	0
bin	0.3	0
bin	0.32	0
bin	0.34	0
bin	0.36	0
bin	0.38	0
bin	0.4	0
bin	0.42	0
bin	0.44	0
bin	0.46	1
bin	0.48	0
bin	0.5	0
bin	0.52	0
bin	0.54	0
bin	0.56	0
bin	0.58	0
bin	0.6	0
bin	0.62	0
bin	0.64	0
bin	0.66	0
bin	0.68	0
bin	0.7	0
bin	0.72	0
bin	0.74	0
bin	0.76	0
statistic TokenBucketTutorialStep.consumer packetDelayVariation:histogram
field count 7
field mean 1.3381795476441
field stddev 1.052537070972
field min -0
field max 2.5416381647033
field sum 9.3672568335087
field sqrsum 19.182077226753
attr recordingmode histogram
attr source stddev(weightedMeanPerGroup(groupRegionsPerPacket(lifeTimePerRegion(packetPushed))))
attr title "packet delay variation"
attr unit s
bin	-inf	0
bin	0	2
bin	0.05	0
bin	0.1	0
bin	0.15	0
bin	0.2	0
bin	0.25	0
bin	0.3	0
bin	0.35	0
bin	0.4	0
bin	0.45	0
bin	0.5	0
bin	0.55	0
bin	0.6	0
bin	0.65	0
bin	0.7	0
bin	0.75	0
bin	0.8	0
bin	0.85	0
bin	0.9	0
bin	0.95	0
bin	1	1
bin	1.05	0
bin	1.1	0
bin	1.15	0
bin	1.2	0
bin	1.25	0
bin	1.3	0
bin	1.35	0
bin	1.4	0
bin	1.45	1
bin	1.5	0
bin	1.55	0
bin	1.6	0
bin	1.65	0
bin	1.7	0
bin	1.75	0
bin	1.8	0
bin	1.85	0
bin	1.9	1
bin	1.95	0
bin	2	0
bin	2.05	0
bin	2.1	0
bin	2.15	0
bin	2.2	0
bin	2.25	0
bin	2.3	0
bin	2.35	1
bin	2.4	0
bin	2.45	0
bin	2.5	1
bin	2.55	0
bin	2.6	0
bin	2.65	0
bin	2.7	0
bin	2.75	0
bin	2.8	0
bin	2.85	0
bin	2.9	0
bin	2.95	0
bin	3	0
bin	3.05	0
bin	3.1	0
bin	3.15	0
bin	3.2	0
scalar TokenBucketTutorialStep.consumer droppedPackets:count 7
attr recordingmode count
attr source packetDropped
attr title "dropped packets, count"
attr unit pk
scalar TokenBucketTutorialStep.consumer droppedPacketLengths:sum 56
attr interpolationmode none
attr recordingmode sum
attr source packetLength(packetDropped)
attr title "dropped packet lengths, sum"
attr unit b
statistic TokenBucketTutorialStep.consumer droppedPacketLengths:histogram
field count 7
field mean 8
field stddev 0
field min 8
field max 8
field sum 56
field sqrsum 448
attr interpolationmode none
attr recordingmode histogram
attr source packetLength(packetDropped)
attr title "dropped packet lengths"
attr unit b
bin	-inf	0
bin	7	0
bin	8	7
bin	9	0
scalar TokenBucketTutorialStep.tokenGenerator tokensCreated:count 8
attr recordingmode count
attr source count(tokensCreated)
attr title "tokens created, count"
attr unit tk
scalar TokenBucketTutorialStep.tokenGenerator numTokensCreated:sum 7
attr interpolationmode none
attr recordingmode sum
attr source tokensCreated
attr title "number of created tokens, sum"
attr unit tk

