version 3
run MediumNetworkLCWithTraffic-0-20250108-11:28:02-11710
attr configname MediumNetworkLCWithTraffic
attr datetime 20250108-11:28:02
attr datetimef 20250108-112802
attr experiment MediumNetworkLCWithTraffic
attr inifile omnetpp.ini
attr iterationvars "$timingProfile=500, $ccmInterval=10"
attr iterationvarsd timingProfile=500/ccmInterval=10
attr iterationvarsf timingProfile=500,ccmInterval=10-
attr measurement "$timingProfile=500, $ccmInterval=10"
attr network Mrp8
attr processid 11710
attr repetition 0
attr replication #0
attr resultdir results
attr runnumber 0
attr seedset 0
itervar ccmInterval 10
itervar timingProfile 500
config **.param-recording false
config image-path /home/levy/workspace/inet/images
config output-scalar-file results/omnetpp.ini-MediumNetworkLCWithTraffic-#0.sca
config output-vector-file results/omnetpp.ini-MediumNetworkLCWithTraffic-#0.vec
config sim-time-limit 3s
config extends MediumNetworkBaseWithTraffic
config **.mrp.interconnectionCheckMode "\"LC\""
config extends MediumNetworkBase
config **.cli.startTime 500ms
config **.cli.sendInterval 1ms
config **.host*.encap.typename ""
config **.host*.llc.typename Ieee8022Llc
config **.host*.eth.typename LayeredEthernetInterface
config **.host*.ethernet.typename EthernetLayer
config **.cli.reqLength 938B
config **.cli.respLength 938B
config **.host1.cli.destAddress "\"host3\""
config **.host2.cli.destAddress "\"host4\""
config **.host3.cli.destAddress "\"host2\""
config **.host4.cli.destAddress "\"host1\""
config description "8 Nodes - 2 Rings"
config network Mrp8
config **.hasStatus true
config **.script "xmldoc(\"scripts.xml\", \"//script[@id='MediumNetwork-disconnect']\")"
config **.numEthInterfaces 3
config *.node{3,5}.mrp.mrpRole "\"MRM\""
config **.mrp.mrpRole "\"MRC\""
config *.node{0,2,4,6}.mrp.typename MrpInterconnection
config *.node0.mrp.interconnectionRole "\"MIM\""
config *.node*.mrp.interconnectionRole "\"MIC\""
config *.node{0..3}.mrp.uuid0 111
config *.node{0..3}.mrp.uuid1 111
config *.node{4..7}.mrp.uuid0 222
config *.node{4..7}.mrp.uuid1 222
config **.mrp.timingProfile "500 ms"
config **.mrp.ccmInterval "10 ms"
config sim-time-limit 3s
config simtime-resolution us
config **.numEthInterfaces 2
config **.mrp.uuid0 333
config **.mrp.uuid1 999
config **.channel.delay 500ns
config **.bitrate 100Mbps
config **.mtu 1500B
config *.visualizer.infoVisualizer.modules "\"*.*.mrp\""
config *.visualizer.infoVisualizer.format "\"%t\""
config *.visualizer.infoVisualizer.placementHint "\"topCenter\""
config *.visualizer.infoVisualizer.textColor "\"blue\""
config *.visualizer.infoVisualizer.textAlignment "\"center\""
config *.visualizer.infoVisualizer.backgroundColor "\"\""
config *.visualizer.infoVisualizer.lineColor "\"\""
config **.annotationSpacing 0

scalar Mrp8.node0.bridging "processed frames" 0
scalar Mrp8.node0.bridging "discarded frames" 2319
scalar Mrp8.node0.bridging "number of received BPDUs from STP module" 0
scalar Mrp8.node0.bridging "number of received frames from network (including BPDUs)" 0
scalar Mrp8.node0.bridging "number of dropped frames (including BPDUs)" 2319
scalar Mrp8.node0.bridging "number of delivered BPDUs to the STP module" 0
scalar Mrp8.node0.bridging "number of dispatched BPDU frames to the network" 0
scalar Mrp8.node0.bridging "number of dispatched non-BDPU frames to the network" 0
scalar Mrp8.node0.bridging "number of received PDUs from MRP module" 0
scalar Mrp8.node0.bridging "number of received frames from network (including PDUs)" 9099
scalar Mrp8.node0.bridging "number of dropped frames (including PDUs)" 2319
scalar Mrp8.node0.bridging "number of delivered PDUs to the MRP module" 106
scalar Mrp8.node0.bridging "number of dispatched MRP frames to the network" 180
scalar Mrp8.node0.bridging "number of dispatched non-MRP frames to the network" 7608
scalar Mrp8.node0.bridging packetDropped:count 2319
scalar Mrp8.node0.bridging packetDropped:sum(packetBytes) 2182179
scalar Mrp8.node0.ethernet pauseSent:count 0
scalar Mrp8.node0.ethernet pauseSent:sum 0
scalar Mrp8.node0.ethernet decapPk:count 9099
scalar Mrp8.node0.ethernet decapPk:sum(packetBytes) 8108651
scalar Mrp8.node0.ethernet encapPk:count 6794
scalar Mrp8.node0.ethernet encapPk:sum(packetBytes) 5928722
scalar Mrp8.node0.eth[0].queue queueLength:last 0
scalar Mrp8.node0.eth[0].queue queueLength:max 1
scalar Mrp8.node0.eth[0].queue queueLength:timeavg 2.3333333333333e-06
scalar Mrp8.node0.eth[0].queue queueBitLength:last 0
scalar Mrp8.node0.eth[0].queue queueBitLength:max 496
scalar Mrp8.node0.eth[0].queue queueBitLength:timeavg 0.0011573333333333
scalar Mrp8.node0.eth[0].queue outgoingPackets:count 1717
scalar Mrp8.node0.eth[0].queue outgoingPacketLengths:sum 12516664
scalar Mrp8.node0.eth[0].queue incomingPackets:count 1717
scalar Mrp8.node0.eth[0].queue incomingPacketLengths:sum 12516664
scalar Mrp8.node0.eth[0].queue droppedPacketsQueueOverflow:count 0
scalar Mrp8.node0.eth[0].queue droppedPacketLengthsQueueOverflow:sum 0
scalar Mrp8.node0.eth[0].mac "simulated time" 3
scalar Mrp8.node0.eth[0].mac full-duplex 1
scalar Mrp8.node0.eth[0].mac "frames/sec sent" 572.33333333333
scalar Mrp8.node0.eth[0].mac "frames/sec rcvd" 1122.3333333333
scalar Mrp8.node0.eth[0].mac "bits/sec sent" 4172376
scalar Mrp8.node0.eth[0].mac "bits/sec rcvd" 8358584
scalar Mrp8.node0.eth[0].mac "rx channel idle (%)" 91.6089
scalar Mrp8.node0.eth[0].mac "rx channel utilization (%)" 8.3911
scalar Mrp8.node0.eth[0].mac rxPausePkUnits:count 0
scalar Mrp8.node0.eth[0].mac rxPausePkUnits:sum 0
scalar Mrp8.node0.eth[0].mac txPausePkUnits:count 0
scalar Mrp8.node0.eth[0].mac txPausePkUnits:sum 0
scalar Mrp8.node0.eth[0].mac rxPkOk:count 3367
scalar Mrp8.node0.eth[0].mac rxPkOk:sum(packetBytes) 3134469
scalar Mrp8.node0.eth[0].mac txPk:count 1717
scalar Mrp8.node0.eth[0].mac txPk:sum(packetBytes) 1564641
scalar Mrp8.node0.eth[0].mac packetReceivedFromUpper:count 1717
scalar Mrp8.node0.eth[0].mac packetReceivedFromUpper:sum(packetBytes) 1564583
scalar Mrp8.node0.eth[0].mac passedUpPk:count 3367
scalar Mrp8.node0.eth[0].mac passedUpPk:sum(packetBytes) 3134469
scalar Mrp8.node0.eth[0].mac packetDropIncorrectlyReceived:count 0
scalar Mrp8.node0.eth[0].mac packetDropIncorrectlyReceived:sum(packetBytes) 0
scalar Mrp8.node0.eth[0].mac packetDropInterfaceDown:count 0
scalar Mrp8.node0.eth[0].mac packetDropInterfaceDown:sum(packetBytes) 0
scalar Mrp8.node0.eth[0].mac packetDropNotAddressedToUs:count 0
scalar Mrp8.node0.eth[0].mac packetDropNotAddressedToUs:sum(packetBytes) 0
scalar Mrp8.node0.eth[0] packetDropInterfaceDown:count 0
scalar Mrp8.node0.eth[0] packetDropInterfaceDown:sum(packetBytes) 0
scalar Mrp8.node0.eth[0] packetDropNoCarrier:count 0
scalar Mrp8.node0.eth[0] packetDropNoCarrier:sum(packetBytes) 0
scalar Mrp8.node0.eth[1].queue queueLength:last 0
scalar Mrp8.node0.eth[1].queue queueLength:max 1
scalar Mrp8.node0.eth[1].queue queueLength:timeavg 3e-06
scalar Mrp8.node0.eth[1].queue queueBitLength:last 0
scalar Mrp8.node0.eth[1].queue queueBitLength:max 7672
scalar Mrp8.node0.eth[1].queue queueBitLength:timeavg 0.0087173333333333
scalar Mrp8.node0.eth[1].queue outgoingPackets:count 2283
scalar Mrp8.node0.eth[1].queue outgoingPacketLengths:sum 16637072
scalar Mrp8.node0.eth[1].queue incomingPackets:count 2283
scalar Mrp8.node0.eth[1].queue incomingPacketLengths:sum 16637072
scalar Mrp8.node0.eth[1].queue droppedPacketsQueueOverflow:count 0
scalar Mrp8.node0.eth[1].queue droppedPacketLengthsQueueOverflow:sum 0
scalar Mrp8.node0.eth[1].mac "simulated time" 3
scalar Mrp8.node0.eth[1].mac full-duplex 1
scalar Mrp8.node0.eth[1].mac "frames/sec sent" 761
scalar Mrp8.node0.eth[1].mac "frames/sec rcvd" 854.66666666667
scalar Mrp8.node0.eth[1].mac "bits/sec sent" 5545861.3333333
scalar Mrp8.node0.eth[1].mac "bits/sec rcvd" 6381397.3333333
scalar Mrp8.node0.eth[1].mac "rx channel idle (%)" 93.5942
scalar Mrp8.node0.eth[1].mac "rx channel utilization (%)" 6.4058
scalar Mrp8.node0.eth[1].mac rxPausePkUnits:count 0
scalar Mrp8.node0.eth[1].mac rxPausePkUnits:sum 0
scalar Mrp8.node0.eth[1].mac txPausePkUnits:count 0
scalar Mrp8.node0.eth[1].mac txPausePkUnits:sum 0
scalar Mrp8.node0.eth[1].mac rxPkOk:count 2564
scalar Mrp8.node0.eth[1].mac rxPkOk:sum(packetBytes) 2393024
scalar Mrp8.node0.eth[1].mac txPk:count 2283
scalar Mrp8.node0.eth[1].mac txPk:sum(packetBytes) 2079698
scalar Mrp8.node0.eth[1].mac packetReceivedFromUpper:count 2283
scalar Mrp8.node0.eth[1].mac packetReceivedFromUpper:sum(packetBytes) 2079634
scalar Mrp8.node0.eth[1].mac passedUpPk:count 2564
scalar Mrp8.node0.eth[1].mac passedUpPk:sum(packetBytes) 2393024
scalar Mrp8.node0.eth[1].mac packetDropIncorrectlyReceived:count 0
scalar Mrp8.node0.eth[1].mac packetDropIncorrectlyReceived:sum(packetBytes) 0
scalar Mrp8.node0.eth[1].mac packetDropInterfaceDown:count 0
scalar Mrp8.node0.eth[1].mac packetDropInterfaceDown:sum(packetBytes) 0
scalar Mrp8.node0.eth[1].mac packetDropNotAddressedToUs:count 0
scalar Mrp8.node0.eth[1].mac packetDropNotAddressedToUs:sum(packetBytes) 0
scalar Mrp8.node0.eth[1] packetDropInterfaceDown:count 0
scalar Mrp8.node0.eth[1] packetDropInterfaceDown:sum(packetBytes) 0
scalar Mrp8.node0.eth[1] packetDropNoCarrier:count 0
scalar Mrp8.node0.eth[1] packetDropNoCarrier:sum(packetBytes) 0
scalar Mrp8.node0.eth[2].queue queueLength:last 0
scalar Mrp8.node0.eth[2].queue queueLength:max 1
scalar Mrp8.node0.eth[2].queue queueLength:timeavg 0.014570333333333
scalar Mrp8.node0.eth[2].queue queueBitLength:last 0
scalar Mrp8.node0.eth[2].queue queueBitLength:max 7672
scalar Mrp8.node0.eth[2].queue queueBitLength:timeavg 111.67502133333
scalar Mrp8.node0.eth[2].queue outgoingPackets:count 2794
scalar Mrp8.node0.eth[2].queue outgoingPacketLengths:sum 19254376
scalar Mrp8.node0.eth[2].queue incomingPackets:count 2794
scalar Mrp8.node0.eth[2].queue incomingPacketLengths:sum 19254376
scalar Mrp8.node0.eth[2].queue droppedPacketsQueueOverflow:count 0
scalar Mrp8.node0.eth[2].queue droppedPacketLengthsQueueOverflow:sum 0
scalar Mrp8.node0.eth[2].mac "simulated time" 3
scalar Mrp8.node0.eth[2].mac full-duplex 1
scalar Mrp8.node0.eth[2].mac "frames/sec sent" 931.33333333333
scalar Mrp8.node0.eth[2].mac "frames/sec rcvd" 1056
scalar Mrp8.node0.eth[2].mac "bits/sec sent" 6418216
scalar Mrp8.node0.eth[2].mac "bits/sec rcvd" 7319978.6666667
scalar Mrp8.node0.eth[2].mac "rx channel idle (%)" 92.643466666667
scalar Mrp8.node0.eth[2].mac "rx channel utilization (%)" 7.3565333333333
scalar Mrp8.node0.eth[2].mac rxPausePkUnits:count 0
scalar Mrp8.node0.eth[2].mac rxPausePkUnits:sum 0
scalar Mrp8.node0.eth[2].mac txPausePkUnits:count 0
scalar Mrp8.node0.eth[2].mac txPausePkUnits:sum 0
scalar Mrp8.node0.eth[2].mac rxPkOk:count 3168
scalar Mrp8.node0.eth[2].mac rxPkOk:sum(packetBytes) 2744992
scalar Mrp8.node0.eth[2].mac txPk:count 2794
scalar Mrp8.node0.eth[2].mac txPk:sum(packetBytes) 2406831
scalar Mrp8.node0.eth[2].mac packetReceivedFromUpper:count 2794
scalar Mrp8.node0.eth[2].mac packetReceivedFromUpper:sum(packetBytes) 2406797
scalar Mrp8.node0.eth[2].mac passedUpPk:count 3168
scalar Mrp8.node0.eth[2].mac passedUpPk:sum(packetBytes) 2744992
scalar Mrp8.node0.eth[2].mac packetDropIncorrectlyReceived:count 0
scalar Mrp8.node0.eth[2].mac packetDropIncorrectlyReceived:sum(packetBytes) 0
scalar Mrp8.node0.eth[2].mac packetDropInterfaceDown:count 0
scalar Mrp8.node0.eth[2].mac packetDropInterfaceDown:sum(packetBytes) 0
scalar Mrp8.node0.eth[2].mac packetDropNotAddressedToUs:count 0
scalar Mrp8.node0.eth[2].mac packetDropNotAddressedToUs:sum(packetBytes) 0
scalar Mrp8.node0.eth[2] packetDropInterfaceDown:count 0
scalar Mrp8.node0.eth[2] packetDropInterfaceDown:sum(packetBytes) 0
scalar Mrp8.node0.eth[2] packetDropNoCarrier:count 0
scalar Mrp8.node0.eth[2] packetDropNoCarrier:sum(packetBytes) 0
scalar Mrp8.node1.bridging "processed frames" 0
scalar Mrp8.node1.bridging "discarded frames" 0
scalar Mrp8.node1.bridging "number of received BPDUs from STP module" 0
scalar Mrp8.node1.bridging "number of received frames from network (including BPDUs)" 0
scalar Mrp8.node1.bridging "number of dropped frames (including BPDUs)" 0
scalar Mrp8.node1.bridging "number of delivered BPDUs to the STP module" 0
scalar Mrp8.node1.bridging "number of dispatched BPDU frames to the network" 0
scalar Mrp8.node1.bridging "number of dispatched non-BDPU frames to the network" 0
scalar Mrp8.node1.bridging "number of received PDUs from MRP module" 0
scalar Mrp8.node1.bridging "number of received frames from network (including PDUs)" 9917
scalar Mrp8.node1.bridging "number of dropped frames (including PDUs)" 0
scalar Mrp8.node1.bridging "number of delivered PDUs to the MRP module" 22
scalar Mrp8.node1.bridging "number of dispatched MRP frames to the network" 193
scalar Mrp8.node1.bridging "number of dispatched non-MRP frames to the network" 9724
scalar Mrp8.node1.bridging packetDropped:count 0
scalar Mrp8.node1.bridging packetDropped:sum(packetBytes) 0
scalar Mrp8.node1.ethernet pauseSent:count 0
scalar Mrp8.node1.ethernet pauseSent:sum 0
scalar Mrp8.node1.ethernet decapPk:count 9917
scalar Mrp8.node1.ethernet decapPk:sum(packetBytes) 9159848
scalar Mrp8.node1.ethernet encapPk:count 10833
scalar Mrp8.node1.ethernet encapPk:sum(packetBytes) 10016422
scalar Mrp8.node1.eth[0].queue queueLength:last 0
scalar Mrp8.node1.eth[0].queue queueLength:max 1
scalar Mrp8.node1.eth[0].queue queueLength:timeavg 7.8333333333333e-05
scalar Mrp8.node1.eth[0].queue queueBitLength:last 0
scalar Mrp8.node1.eth[0].queue queueBitLength:max 560
scalar Mrp8.node1.eth[0].queue queueBitLength:timeavg 0.043802666666667
scalar Mrp8.node1.eth[0].queue outgoingPackets:count 2644
scalar Mrp8.node1.eth[0].queue outgoingPacketLengths:sum 19621432
scalar Mrp8.node1.eth[0].queue incomingPackets:count 2644
scalar Mrp8.node1.eth[0].queue incomingPacketLengths:sum 19621432
scalar Mrp8.node1.eth[0].queue droppedPacketsQueueOverflow:count 0
scalar Mrp8.node1.eth[0].queue droppedPacketLengthsQueueOverflow:sum 0
scalar Mrp8.node1.eth[0].mac "simulated time" 3
scalar Mrp8.node1.eth[0].mac full-duplex 1
scalar Mrp8.node1.eth[0].mac "frames/sec sent" 837
scalar Mrp8.node1.eth[0].mac "frames/sec rcvd" 1183
scalar Mrp8.node1.eth[0].mac "bits/sec sent" 6231346.6666667
scalar Mrp8.node1.eth[0].mac "bits/sec rcvd" 8835952
scalar Mrp8.node1.eth[0].mac "rx channel idle (%)" 91.129933333333
scalar Mrp8.node1.eth[0].mac "rx channel utilization (%)" 8.8700666666667
scalar Mrp8.node1.eth[0].mac rxPausePkUnits:count 0
scalar Mrp8.node1.eth[0].mac rxPausePkUnits:sum 0
scalar Mrp8.node1.eth[0].mac txPausePkUnits:count 0
scalar Mrp8.node1.eth[0].mac txPausePkUnits:sum 0
scalar Mrp8.node1.eth[0].mac rxPkOk:count 3549
scalar Mrp8.node1.eth[0].mac rxPkOk:sum(packetBytes) 3313482
scalar Mrp8.node1.eth[0].mac txPk:count 2511
scalar Mrp8.node1.eth[0].mac txPk:sum(packetBytes) 2336755
scalar Mrp8.node1.eth[0].mac packetReceivedFromUpper:count 2644
scalar Mrp8.node1.eth[0].mac packetReceivedFromUpper:sum(packetBytes) 2452679
scalar Mrp8.node1.eth[0].mac passedUpPk:count 3549
scalar Mrp8.node1.eth[0].mac passedUpPk:sum(packetBytes) 3313482
scalar Mrp8.node1.eth[0].mac packetDropIncorrectlyReceived:count 0
scalar Mrp8.node1.eth[0].mac packetDropIncorrectlyReceived:sum(packetBytes) 0
scalar Mrp8.node1.eth[0].mac packetDropInterfaceDown:count 133
scalar Mrp8.node1.eth[0].mac packetDropInterfaceDown:sum(packetBytes) 115982
scalar Mrp8.node1.eth[0].mac packetDropNotAddressedToUs:count 0
scalar Mrp8.node1.eth[0].mac packetDropNotAddressedToUs:sum(packetBytes) 0
scalar Mrp8.node1.eth[0] packetDropInterfaceDown:count 133
scalar Mrp8.node1.eth[0] packetDropInterfaceDown:sum(packetBytes) 115982
scalar Mrp8.node1.eth[0] packetDropNoCarrier:count 0
scalar Mrp8.node1.eth[0] packetDropNoCarrier:sum(packetBytes) 0
scalar Mrp8.node1.eth[1].queue queueLength:last 0
scalar Mrp8.node1.eth[1].queue queueLength:max 2
scalar Mrp8.node1.eth[1].queue queueLength:timeavg 0.00010766666666667
scalar Mrp8.node1.eth[1].queue queueBitLength:last 0
scalar Mrp8.node1.eth[1].queue queueBitLength:max 1088
scalar Mrp8.node1.eth[1].queue queueBitLength:timeavg 0.059813333333333
scalar Mrp8.node1.eth[1].queue outgoingPackets:count 3367
scalar Mrp8.node1.eth[1].queue outgoingPacketLengths:sum 25075512
scalar Mrp8.node1.eth[1].queue incomingPackets:count 3367
scalar Mrp8.node1.eth[1].queue incomingPacketLengths:sum 25075512
scalar Mrp8.node1.eth[1].queue droppedPacketsQueueOverflow:count 0
scalar Mrp8.node1.eth[1].queue droppedPacketLengthsQueueOverflow:sum 0
scalar Mrp8.node1.eth[1].mac "simulated time" 3
scalar Mrp8.node1.eth[1].mac full-duplex 1
scalar Mrp8.node1.eth[1].mac "frames/sec sent" 1122.3333333333
scalar Mrp8.node1.eth[1].mac "frames/sec rcvd" 572.33333333333
scalar Mrp8.node1.eth[1].mac "bits/sec sent" 8358584
scalar Mrp8.node1.eth[1].mac "bits/sec rcvd" 4172376
scalar Mrp8.node1.eth[1].mac "rx channel idle (%)" 95.810766666667
scalar Mrp8.node1.eth[1].mac "rx channel utilization (%)" 4.1892333333333
scalar Mrp8.node1.eth[1].mac rxPausePkUnits:count 0
scalar Mrp8.node1.eth[1].mac rxPausePkUnits:sum 0
scalar Mrp8.node1.eth[1].mac txPausePkUnits:count 0
scalar Mrp8.node1.eth[1].mac txPausePkUnits:sum 0
scalar Mrp8.node1.eth[1].mac rxPkOk:count 1717
scalar Mrp8.node1.eth[1].mac rxPkOk:sum(packetBytes) 1564641
scalar Mrp8.node1.eth[1].mac txPk:count 3367
scalar Mrp8.node1.eth[1].mac txPk:sum(packetBytes) 3134469
scalar Mrp8.node1.eth[1].mac packetReceivedFromUpper:count 3367
scalar Mrp8.node1.eth[1].mac packetReceivedFromUpper:sum(packetBytes) 3134439
scalar Mrp8.node1.eth[1].mac passedUpPk:count 1717
scalar Mrp8.node1.eth[1].mac passedUpPk:sum(packetBytes) 1564641
scalar Mrp8.node1.eth[1].mac packetDropIncorrectlyReceived:count 0
scalar Mrp8.node1.eth[1].mac packetDropIncorrectlyReceived:sum(packetBytes) 0
scalar Mrp8.node1.eth[1].mac packetDropInterfaceDown:count 0
scalar Mrp8.node1.eth[1].mac packetDropInterfaceDown:sum(packetBytes) 0
scalar Mrp8.node1.eth[1].mac packetDropNotAddressedToUs:count 0
scalar Mrp8.node1.eth[1].mac packetDropNotAddressedToUs:sum(packetBytes) 0
scalar Mrp8.node1.eth[1] packetDropInterfaceDown:count 0
scalar Mrp8.node1.eth[1] packetDropInterfaceDown:sum(packetBytes) 0
scalar Mrp8.node1.eth[1] packetDropNoCarrier:count 0
scalar Mrp8.node1.eth[1] packetDropNoCarrier:sum(packetBytes) 0
scalar Mrp8.node1.eth[2].queue queueLength:last 0
scalar Mrp8.node1.eth[2].queue queueLength:max 1
scalar Mrp8.node1.eth[2].queue queueLength:timeavg 0.00058633333333333
scalar Mrp8.node1.eth[2].queue queueBitLength:last 0
scalar Mrp8.node1.eth[2].queue queueBitLength:max 7672
scalar Mrp8.node1.eth[2].queue queueBitLength:timeavg 4.4983493333333
scalar Mrp8.node1.eth[2].queue outgoingPackets:count 4822
scalar Mrp8.node1.eth[2].queue outgoingPacketLengths:sum 36994384
scalar Mrp8.node1.eth[2].queue incomingPackets:count 4822
scalar Mrp8.node1.eth[2].queue incomingPacketLengths:sum 36994384
scalar Mrp8.node1.eth[2].queue droppedPacketsQueueOverflow:count 0
scalar Mrp8.node1.eth[2].queue droppedPacketLengthsQueueOverflow:sum 0
scalar Mrp8.node1.eth[2].mac "simulated time" 3
scalar Mrp8.node1.eth[2].mac full-duplex 1
scalar Mrp8.node1.eth[2].mac "frames/sec sent" 1607.3333333333
scalar Mrp8.node1.eth[2].mac "frames/sec rcvd" 1550.3333333333
scalar Mrp8.node1.eth[2].mac "bits/sec sent" 12331461.333333
scalar Mrp8.node1.eth[2].mac "bits/sec rcvd" 11894157.333333
scalar Mrp8.node1.eth[2].mac "rx channel idle (%)" 88.062433333333
scalar Mrp8.node1.eth[2].mac "rx channel utilization (%)" 11.937566666667
scalar Mrp8.node1.eth[2].mac rxPausePkUnits:count 0
scalar Mrp8.node1.eth[2].mac rxPausePkUnits:sum 0
scalar Mrp8.node1.eth[2].mac txPausePkUnits:count 0
scalar Mrp8.node1.eth[2].mac txPausePkUnits:sum 0
scalar Mrp8.node1.eth[2].mac rxPkOk:count 4651
scalar Mrp8.node1.eth[2].mac rxPkOk:sum(packetBytes) 4460309
scalar Mrp8.node1.eth[2].mac txPk:count 4822
scalar Mrp8.node1.eth[2].mac txPk:sum(packetBytes) 4624298
scalar Mrp8.node1.eth[2].mac packetReceivedFromUpper:count 4822
scalar Mrp8.node1.eth[2].mac packetReceivedFromUpper:sum(packetBytes) 4624298
scalar Mrp8.node1.eth[2].mac passedUpPk:count 4651
scalar Mrp8.node1.eth[2].mac passedUpPk:sum(packetBytes) 4460309
scalar Mrp8.node1.eth[2].mac packetDropIncorrectlyReceived:count 0
scalar Mrp8.node1.eth[2].mac packetDropIncorrectlyReceived:sum(packetBytes) 0
scalar Mrp8.node1.eth[2].mac packetDropInterfaceDown:count 0
scalar Mrp8.node1.eth[2].mac packetDropInterfaceDown:sum(packetBytes) 0
scalar Mrp8.node1.eth[2].mac packetDropNotAddressedToUs:count 0
scalar Mrp8.node1.eth[2].mac packetDropNotAddressedToUs:sum(packetBytes) 0
scalar Mrp8.node1.eth[2] packetDropInterfaceDown:count 0
scalar Mrp8.node1.eth[2] packetDropInterfaceDown:sum(packetBytes) 0
scalar Mrp8.node1.eth[2] packetDropNoCarrier:count 0
scalar Mrp8.node1.eth[2] packetDropNoCarrier:sum(packetBytes) 0
scalar Mrp8.node2.bridging "processed frames" 0
scalar Mrp8.node2.bridging "discarded frames" 102
scalar Mrp8.node2.bridging "number of received BPDUs from STP module" 0
scalar Mrp8.node2.bridging "number of received frames from network (including BPDUs)" 0
scalar Mrp8.node2.bridging "number of dropped frames (including BPDUs)" 102
scalar Mrp8.node2.bridging "number of delivered BPDUs to the STP module" 0
scalar Mrp8.node2.bridging "number of dispatched BPDU frames to the network" 0
scalar Mrp8.node2.bridging "number of dispatched non-BDPU frames to the network" 0
scalar Mrp8.node2.bridging "number of received PDUs from MRP module" 0
scalar Mrp8.node2.bridging "number of received frames from network (including PDUs)" 8825
scalar Mrp8.node2.bridging "number of dropped frames (including PDUs)" 102
scalar Mrp8.node2.bridging "number of delivered PDUs to the MRP module" 72
scalar Mrp8.node2.bridging "number of dispatched MRP frames to the network" 154
scalar Mrp8.node2.bridging "number of dispatched non-MRP frames to the network" 8414
scalar Mrp8.node2.bridging packetDropped:count 102
scalar Mrp8.node2.bridging packetDropped:sum(packetBytes) 95982
scalar Mrp8.node2.ethernet pauseSent:count 0
scalar Mrp8.node2.ethernet pauseSent:sum 0
scalar Mrp8.node2.ethernet decapPk:count 8825
scalar Mrp8.node2.ethernet decapPk:sum(packetBytes) 7945445
scalar Mrp8.node2.ethernet encapPk:count 9783
scalar Mrp8.node2.ethernet encapPk:sum(packetBytes) 8711990
scalar Mrp8.node2.eth[0].queue queueLength:last 0
scalar Mrp8.node2.eth[0].queue queueLength:max 1
scalar Mrp8.node2.eth[0].queue queueLength:timeavg 0.00036733333333333
scalar Mrp8.node2.eth[0].queue queueBitLength:last 0
scalar Mrp8.node2.eth[0].queue queueBitLength:max 7672
scalar Mrp8.node2.eth[0].queue queueBitLength:timeavg 2.753768
scalar Mrp8.node2.eth[0].queue outgoingPackets:count 2181
scalar Mrp8.node2.eth[0].queue outgoingPacketLengths:sum 15854528
scalar Mrp8.node2.eth[0].queue incomingPackets:count 2181
scalar Mrp8.node2.eth[0].queue incomingPacketLengths:sum 15854528
scalar Mrp8.node2.eth[0].queue droppedPacketsQueueOverflow:count 0
scalar Mrp8.node2.eth[0].queue droppedPacketLengthsQueueOverflow:sum 0
scalar Mrp8.node2.eth[0].mac "simulated time" 3
scalar Mrp8.node2.eth[0].mac full-duplex 1
scalar Mrp8.node2.eth[0].mac "frames/sec sent" 727
scalar Mrp8.node2.eth[0].mac "frames/sec rcvd" 408.33333333333
scalar Mrp8.node2.eth[0].mac "bits/sec sent" 5285013.3333333
scalar Mrp8.node2.eth[0].mac "bits/sec rcvd" 2957128
scalar Mrp8.node2.eth[0].mac "rx channel idle (%)" 97.030966666667
scalar Mrp8.node2.eth[0].mac "rx channel utilization (%)" 2.9690333333333
scalar Mrp8.node2.eth[0].mac rxPausePkUnits:count 0
scalar Mrp8.node2.eth[0].mac rxPausePkUnits:sum 0
scalar Mrp8.node2.eth[0].mac txPausePkUnits:count 0
scalar Mrp8.node2.eth[0].mac txPausePkUnits:sum 0
scalar Mrp8.node2.eth[0].mac rxPkOk:count 1225
scalar Mrp8.node2.eth[0].mac rxPkOk:sum(packetBytes) 1108923
scalar Mrp8.node2.eth[0].mac txPk:count 2181
scalar Mrp8.node2.eth[0].mac txPk:sum(packetBytes) 1981880
scalar Mrp8.node2.eth[0].mac packetReceivedFromUpper:count 2181
scalar Mrp8.node2.eth[0].mac packetReceivedFromUpper:sum(packetBytes) 1981816
scalar Mrp8.node2.eth[0].mac passedUpPk:count 1225
scalar Mrp8.node2.eth[0].mac passedUpPk:sum(packetBytes) 1108923
scalar Mrp8.node2.eth[0].mac packetDropIncorrectlyReceived:count 0
scalar Mrp8.node2.eth[0].mac packetDropIncorrectlyReceived:sum(packetBytes) 0
scalar Mrp8.node2.eth[0].mac packetDropInterfaceDown:count 0
scalar Mrp8.node2.eth[0].mac packetDropInterfaceDown:sum(packetBytes) 0
scalar Mrp8.node2.eth[0].mac packetDropNotAddressedToUs:count 0
scalar Mrp8.node2.eth[0].mac packetDropNotAddressedToUs:sum(packetBytes) 0
scalar Mrp8.node2.eth[0] packetDropInterfaceDown:count 0
scalar Mrp8.node2.eth[0] packetDropInterfaceDown:sum(packetBytes) 0
scalar Mrp8.node2.eth[0] packetDropNoCarrier:count 0
scalar Mrp8.node2.eth[0] packetDropNoCarrier:sum(packetBytes) 0
scalar Mrp8.node2.eth[1].queue queueLength:last 0
scalar Mrp8.node2.eth[1].queue queueLength:max 1
scalar Mrp8.node2.eth[1].queue queueLength:timeavg 0.0011013333333333
scalar Mrp8.node2.eth[1].queue queueBitLength:last 0
scalar Mrp8.node2.eth[1].queue queueBitLength:max 7672
scalar Mrp8.node2.eth[1].queue queueBitLength:timeavg 8.444688
scalar Mrp8.node2.eth[1].queue outgoingPackets:count 3795
scalar Mrp8.node2.eth[1].queue outgoingPacketLengths:sum 28302488
scalar Mrp8.node2.eth[1].queue incomingPackets:count 3795
scalar Mrp8.node2.eth[1].queue incomingPacketLengths:sum 28302488
scalar Mrp8.node2.eth[1].queue droppedPacketsQueueOverflow:count 0
scalar Mrp8.node2.eth[1].queue droppedPacketLengthsQueueOverflow:sum 0
scalar Mrp8.node2.eth[1].mac "simulated time" 3
scalar Mrp8.node2.eth[1].mac full-duplex 1
scalar Mrp8.node2.eth[1].mac "frames/sec sent" 1183
scalar Mrp8.node2.eth[1].mac "frames/sec rcvd" 837
scalar Mrp8.node2.eth[1].mac "bits/sec sent" 8835952
scalar Mrp8.node2.eth[1].mac "bits/sec rcvd" 6231346.6666667
scalar Mrp8.node2.eth[1].mac "rx channel idle (%)" 93.744433333333
scalar Mrp8.node2.eth[1].mac "rx channel utilization (%)" 6.2555666666667
scalar Mrp8.node2.eth[1].mac rxPausePkUnits:count 0
scalar Mrp8.node2.eth[1].mac rxPausePkUnits:sum 0
scalar Mrp8.node2.eth[1].mac txPausePkUnits:count 0
scalar Mrp8.node2.eth[1].mac txPausePkUnits:sum 0
scalar Mrp8.node2.eth[1].mac rxPkOk:count 2511
scalar Mrp8.node2.eth[1].mac rxPkOk:sum(packetBytes) 2336755
scalar Mrp8.node2.eth[1].mac txPk:count 3549
scalar Mrp8.node2.eth[1].mac txPk:sum(packetBytes) 3313482
scalar Mrp8.node2.eth[1].mac packetReceivedFromUpper:count 3795
scalar Mrp8.node2.eth[1].mac packetReceivedFromUpper:sum(packetBytes) 3537811
scalar Mrp8.node2.eth[1].mac passedUpPk:count 2511
scalar Mrp8.node2.eth[1].mac passedUpPk:sum(packetBytes) 2336755
scalar Mrp8.node2.eth[1].mac packetDropIncorrectlyReceived:count 0
scalar Mrp8.node2.eth[1].mac packetDropIncorrectlyReceived:sum(packetBytes) 0
scalar Mrp8.node2.eth[1].mac packetDropInterfaceDown:count 246
scalar Mrp8.node2.eth[1].mac packetDropInterfaceDown:sum(packetBytes) 224349
scalar Mrp8.node2.eth[1].mac packetDropNotAddressedToUs:count 0
scalar Mrp8.node2.eth[1].mac packetDropNotAddressedToUs:sum(packetBytes) 0
scalar Mrp8.node2.eth[1] packetDropInterfaceDown:count 246
scalar Mrp8.node2.eth[1] packetDropInterfaceDown:sum(packetBytes) 224349
scalar Mrp8.node2.eth[1] packetDropNoCarrier:count 0
scalar Mrp8.node2.eth[1] packetDropNoCarrier:sum(packetBytes) 0
scalar Mrp8.node2.eth[2].queue queueLength:last 0
scalar Mrp8.node2.eth[2].queue queueLength:max 1
scalar Mrp8.node2.eth[2].queue queueLength:timeavg 0.00019833333333333
scalar Mrp8.node2.eth[2].queue queueBitLength:last 0
scalar Mrp8.node2.eth[2].queue queueBitLength:max 7672
scalar Mrp8.node2.eth[2].queue queueBitLength:timeavg 0.16216266666667
scalar Mrp8.node2.eth[2].queue outgoingPackets:count 3807
scalar Mrp8.node2.eth[2].queue outgoingPacketLengths:sum 26947656
scalar Mrp8.node2.eth[2].queue incomingPackets:count 3807
scalar Mrp8.node2.eth[2].queue incomingPacketLengths:sum 26947656
scalar Mrp8.node2.eth[2].queue droppedPacketsQueueOverflow:count 0
scalar Mrp8.node2.eth[2].queue droppedPacketLengthsQueueOverflow:sum 0
scalar Mrp8.node2.eth[2].mac "simulated time" 3
scalar Mrp8.node2.eth[2].mac full-duplex 1
scalar Mrp8.node2.eth[2].mac "frames/sec sent" 1233.6666666667
scalar Mrp8.node2.eth[2].mac "frames/sec rcvd" 1696.3333333333
scalar Mrp8.node2.eth[2].mac "bits/sec sent" 8885525.3333333
scalar Mrp8.node2.eth[2].mac "bits/sec rcvd" 12423229.333333
scalar Mrp8.node2.eth[2].mac "rx channel idle (%)" 87.523966666667
scalar Mrp8.node2.eth[2].mac "rx channel utilization (%)" 12.476033333333
scalar Mrp8.node2.eth[2].mac rxPausePkUnits:count 0
scalar Mrp8.node2.eth[2].mac rxPausePkUnits:sum 0
scalar Mrp8.node2.eth[2].mac txPausePkUnits:count 0
scalar Mrp8.node2.eth[2].mac txPausePkUnits:sum 0
scalar Mrp8.node2.eth[2].mac rxPkOk:count 5089
scalar Mrp8.node2.eth[2].mac rxPkOk:sum(packetBytes) 4658711
scalar Mrp8.node2.eth[2].mac txPk:count 3701
scalar Mrp8.node2.eth[2].mac txPk:sum(packetBytes) 3332072
scalar Mrp8.node2.eth[2].mac packetReceivedFromUpper:count 3807
scalar Mrp8.node2.eth[2].mac packetReceivedFromUpper:sum(packetBytes) 3368457
scalar Mrp8.node2.eth[2].mac passedUpPk:count 5089
scalar Mrp8.node2.eth[2].mac passedUpPk:sum(packetBytes) 4658711
scalar Mrp8.node2.eth[2].mac packetDropIncorrectlyReceived:count 0
scalar Mrp8.node2.eth[2].mac packetDropIncorrectlyReceived:sum(packetBytes) 0
scalar Mrp8.node2.eth[2].mac packetDropInterfaceDown:count 106
scalar Mrp8.node2.eth[2].mac packetDropInterfaceDown:sum(packetBytes) 36411
scalar Mrp8.node2.eth[2].mac packetDropNotAddressedToUs:count 0
scalar Mrp8.node2.eth[2].mac packetDropNotAddressedToUs:sum(packetBytes) 0
scalar Mrp8.node2.eth[2] packetDropInterfaceDown:count 106
scalar Mrp8.node2.eth[2] packetDropInterfaceDown:sum(packetBytes) 36411
scalar Mrp8.node2.eth[2] packetDropNoCarrier:count 0
scalar Mrp8.node2.eth[2] packetDropNoCarrier:sum(packetBytes) 0
scalar Mrp8.node3.bridging "processed frames" 0
scalar Mrp8.node3.bridging "discarded frames" 2689
scalar Mrp8.node3.bridging "number of received BPDUs from STP module" 0
scalar Mrp8.node3.bridging "number of received frames from network (including BPDUs)" 0
scalar Mrp8.node3.bridging "number of dropped frames (including BPDUs)" 2689
scalar Mrp8.node3.bridging "number of delivered BPDUs to the STP module" 0
scalar Mrp8.node3.bridging "number of dispatched BPDU frames to the network" 0
scalar Mrp8.node3.bridging "number of dispatched non-BDPU frames to the network" 0
scalar Mrp8.node3.bridging "number of received PDUs from MRP module" 0
scalar Mrp8.node3.bridging "number of received frames from network (including PDUs)" 9115
scalar Mrp8.node3.bridging "number of dropped frames (including PDUs)" 2689
scalar Mrp8.node3.bridging "number of delivered PDUs to the MRP module" 246
scalar Mrp8.node3.bridging "number of dispatched MRP frames to the network" 0
scalar Mrp8.node3.bridging "number of dispatched non-MRP frames to the network" 7961
scalar Mrp8.node3.bridging packetDropped:count 2689
scalar Mrp8.node3.bridging packetDropped:sum(packetBytes) 2530349
scalar Mrp8.node3.ethernet pauseSent:count 0
scalar Mrp8.node3.ethernet pauseSent:sum 0
scalar Mrp8.node3.ethernet decapPk:count 9115
scalar Mrp8.node3.ethernet decapPk:sum(packetBytes) 8357689
scalar Mrp8.node3.ethernet encapPk:count 6330
scalar Mrp8.node3.ethernet encapPk:sum(packetBytes) 5824782
scalar Mrp8.node3.eth[0].queue queueLength:last 0
scalar Mrp8.node3.eth[0].queue queueLength:max 1
scalar Mrp8.node3.eth[0].queue queueLength:timeavg 0.000376
scalar Mrp8.node3.eth[0].queue queueBitLength:last 0
scalar Mrp8.node3.eth[0].queue queueBitLength:max 560
scalar Mrp8.node3.eth[0].queue queueBitLength:timeavg 0.21047466666667
scalar Mrp8.node3.eth[0].queue outgoingPackets:count 2564
scalar Mrp8.node3.eth[0].queue outgoingPacketLengths:sum 19144016
scalar Mrp8.node3.eth[0].queue incomingPackets:count 2564
scalar Mrp8.node3.eth[0].queue incomingPacketLengths:sum 19144016
scalar Mrp8.node3.eth[0].queue droppedPacketsQueueOverflow:count 0
scalar Mrp8.node3.eth[0].queue droppedPacketLengthsQueueOverflow:sum 0
scalar Mrp8.node3.eth[0].mac "simulated time" 3
scalar Mrp8.node3.eth[0].mac full-duplex 1
scalar Mrp8.node3.eth[0].mac "frames/sec sent" 854.66666666667
scalar Mrp8.node3.eth[0].mac "frames/sec rcvd" 761
scalar Mrp8.node3.eth[0].mac "bits/sec sent" 6381397.3333333
scalar Mrp8.node3.eth[0].mac "bits/sec rcvd" 5545861.3333333
scalar Mrp8.node3.eth[0].mac "rx channel idle (%)" 94.4314
scalar Mrp8.node3.eth[0].mac "rx channel utilization (%)" 5.5686
scalar Mrp8.node3.eth[0].mac rxPausePkUnits:count 0
scalar Mrp8.node3.eth[0].mac rxPausePkUnits:sum 0
scalar Mrp8.node3.eth[0].mac txPausePkUnits:count 0
scalar Mrp8.node3.eth[0].mac txPausePkUnits:sum 0
scalar Mrp8.node3.eth[0].mac rxPkOk:count 2283
scalar Mrp8.node3.eth[0].mac rxPkOk:sum(packetBytes) 2079698
scalar Mrp8.node3.eth[0].mac txPk:count 2564
scalar Mrp8.node3.eth[0].mac txPk:sum(packetBytes) 2393024
scalar Mrp8.node3.eth[0].mac packetReceivedFromUpper:count 2564
scalar Mrp8.node3.eth[0].mac packetReceivedFromUpper:sum(packetBytes) 2393002
scalar Mrp8.node3.eth[0].mac passedUpPk:count 2283
scalar Mrp8.node3.eth[0].mac passedUpPk:sum(packetBytes) 2079698
scalar Mrp8.node3.eth[0].mac packetDropIncorrectlyReceived:count 0
scalar Mrp8.node3.eth[0].mac packetDropIncorrectlyReceived:sum(packetBytes) 0
scalar Mrp8.node3.eth[0].mac packetDropInterfaceDown:count 0
scalar Mrp8.node3.eth[0].mac packetDropInterfaceDown:sum(packetBytes) 0
scalar Mrp8.node3.eth[0].mac packetDropNotAddressedToUs:count 0
scalar Mrp8.node3.eth[0].mac packetDropNotAddressedToUs:sum(packetBytes) 0
scalar Mrp8.node3.eth[0] packetDropInterfaceDown:count 0
scalar Mrp8.node3.eth[0] packetDropInterfaceDown:sum(packetBytes) 0
scalar Mrp8.node3.eth[0] packetDropNoCarrier:count 0
scalar Mrp8.node3.eth[0] packetDropNoCarrier:sum(packetBytes) 0
scalar Mrp8.node3.eth[1].queue queueLength:last 0
scalar Mrp8.node3.eth[1].queue queueLength:max 2
scalar Mrp8.node3.eth[1].queue queueLength:timeavg 3.4e-05
scalar Mrp8.node3.eth[1].queue queueBitLength:last 0
scalar Mrp8.node3.eth[1].queue queueBitLength:max 1056
scalar Mrp8.node3.eth[1].queue queueBitLength:timeavg 0.01808
scalar Mrp8.node3.eth[1].queue outgoingPackets:count 1225
scalar Mrp8.node3.eth[1].queue outgoingPacketLengths:sum 8871208
scalar Mrp8.node3.eth[1].queue incomingPackets:count 1225
scalar Mrp8.node3.eth[1].queue incomingPacketLengths:sum 8871208
scalar Mrp8.node3.eth[1].queue droppedPacketsQueueOverflow:count 0
scalar Mrp8.node3.eth[1].queue droppedPacketLengthsQueueOverflow:sum 0
scalar Mrp8.node3.eth[1].mac "simulated time" 3
scalar Mrp8.node3.eth[1].mac full-duplex 1
scalar Mrp8.node3.eth[1].mac "frames/sec sent" 408.33333333333
scalar Mrp8.node3.eth[1].mac "frames/sec rcvd" 727
scalar Mrp8.node3.eth[1].mac "bits/sec sent" 2957128
scalar Mrp8.node3.eth[1].mac "bits/sec rcvd" 5285013.3333333
scalar Mrp8.node3.eth[1].mac "rx channel idle (%)" 94.6932
scalar Mrp8.node3.eth[1].mac "rx channel utilization (%)" 5.3068
scalar Mrp8.node3.eth[1].mac rxPausePkUnits:count 0
scalar Mrp8.node3.eth[1].mac rxPausePkUnits:sum 0
scalar Mrp8.node3.eth[1].mac txPausePkUnits:count 0
scalar Mrp8.node3.eth[1].mac txPausePkUnits:sum 0
scalar Mrp8.node3.eth[1].mac rxPkOk:count 2181
scalar Mrp8.node3.eth[1].mac rxPkOk:sum(packetBytes) 1981880
scalar Mrp8.node3.eth[1].mac txPk:count 1225
scalar Mrp8.node3.eth[1].mac txPk:sum(packetBytes) 1108923
scalar Mrp8.node3.eth[1].mac packetReceivedFromUpper:count 1225
scalar Mrp8.node3.eth[1].mac packetReceivedFromUpper:sum(packetBytes) 1108901
scalar Mrp8.node3.eth[1].mac passedUpPk:count 2181
scalar Mrp8.node3.eth[1].mac passedUpPk:sum(packetBytes) 1981880
scalar Mrp8.node3.eth[1].mac packetDropIncorrectlyReceived:count 0
scalar Mrp8.node3.eth[1].mac packetDropIncorrectlyReceived:sum(packetBytes) 0
scalar Mrp8.node3.eth[1].mac packetDropInterfaceDown:count 0
scalar Mrp8.node3.eth[1].mac packetDropInterfaceDown:sum(packetBytes) 0
scalar Mrp8.node3.eth[1].mac packetDropNotAddressedToUs:count 0
scalar Mrp8.node3.eth[1].mac packetDropNotAddressedToUs:sum(packetBytes) 0
scalar Mrp8.node3.eth[1] packetDropInterfaceDown:count 0
scalar Mrp8.node3.eth[1] packetDropInterfaceDown:sum(packetBytes) 0
scalar Mrp8.node3.eth[1] packetDropNoCarrier:count 0
scalar Mrp8.node3.eth[1] packetDropNoCarrier:sum(packetBytes) 0
scalar Mrp8.node3.eth[2].queue queueLength:last 0
scalar Mrp8.node3.eth[2].queue queueLength:max 1
scalar Mrp8.node3.eth[2].queue queueLength:timeavg 5.3333333333333e-06
scalar Mrp8.node3.eth[2].queue queueBitLength:last 0
scalar Mrp8.node3.eth[2].queue queueBitLength:max 7672
scalar Mrp8.node3.eth[2].queue queueBitLength:timeavg 0.040917333333333
scalar Mrp8.node3.eth[2].queue outgoingPackets:count 2541
scalar Mrp8.node3.eth[2].queue outgoingPacketLengths:sum 19494552
scalar Mrp8.node3.eth[2].queue incomingPackets:count 2541
scalar Mrp8.node3.eth[2].queue incomingPacketLengths:sum 19494552
scalar Mrp8.node3.eth[2].queue droppedPacketsQueueOverflow:count 0
scalar Mrp8.node3.eth[2].queue droppedPacketLengthsQueueOverflow:sum 0
scalar Mrp8.node3.eth[2].mac "simulated time" 3
scalar Mrp8.node3.eth[2].mac full-duplex 1
scalar Mrp8.node3.eth[2].mac "frames/sec sent" 847
scalar Mrp8.node3.eth[2].mac "frames/sec rcvd" 1550.3333333333
scalar Mrp8.node3.eth[2].mac "bits/sec sent" 6498184
scalar Mrp8.node3.eth[2].mac "bits/sec rcvd" 11894157.333333
scalar Mrp8.node3.eth[2].mac "rx channel idle (%)" 88.062433333333
scalar Mrp8.node3.eth[2].mac "rx channel utilization (%)" 11.937566666667
scalar Mrp8.node3.eth[2].mac rxPausePkUnits:count 0
scalar Mrp8.node3.eth[2].mac rxPausePkUnits:sum 0
scalar Mrp8.node3.eth[2].mac txPausePkUnits:count 0
scalar Mrp8.node3.eth[2].mac txPausePkUnits:sum 0
scalar Mrp8.node3.eth[2].mac rxPkOk:count 4651
scalar Mrp8.node3.eth[2].mac rxPkOk:sum(packetBytes) 4460309
scalar Mrp8.node3.eth[2].mac txPk:count 2541
scalar Mrp8.node3.eth[2].mac txPk:sum(packetBytes) 2436819
scalar Mrp8.node3.eth[2].mac packetReceivedFromUpper:count 2541
scalar Mrp8.node3.eth[2].mac packetReceivedFromUpper:sum(packetBytes) 2436819
scalar Mrp8.node3.eth[2].mac passedUpPk:count 4651
scalar Mrp8.node3.eth[2].mac passedUpPk:sum(packetBytes) 4460309
scalar Mrp8.node3.eth[2].mac packetDropIncorrectlyReceived:count 0
scalar Mrp8.node3.eth[2].mac packetDropIncorrectlyReceived:sum(packetBytes) 0
scalar Mrp8.node3.eth[2].mac packetDropInterfaceDown:count 0
scalar Mrp8.node3.eth[2].mac packetDropInterfaceDown:sum(packetBytes) 0
scalar Mrp8.node3.eth[2].mac packetDropNotAddressedToUs:count 0
scalar Mrp8.node3.eth[2].mac packetDropNotAddressedToUs:sum(packetBytes) 0
scalar Mrp8.node3.eth[2] packetDropInterfaceDown:count 0
scalar Mrp8.node3.eth[2] packetDropInterfaceDown:sum(packetBytes) 0
scalar Mrp8.node3.eth[2] packetDropNoCarrier:count 0
scalar Mrp8.node3.eth[2] packetDropNoCarrier:sum(packetBytes) 0
scalar Mrp8.node4.bridging "processed frames" 0
scalar Mrp8.node4.bridging "discarded frames" 0
scalar Mrp8.node4.bridging "number of received BPDUs from STP module" 0
scalar Mrp8.node4.bridging "number of received frames from network (including BPDUs)" 0
scalar Mrp8.node4.bridging "number of dropped frames (including BPDUs)" 0
scalar Mrp8.node4.bridging "number of delivered BPDUs to the STP module" 0
scalar Mrp8.node4.bridging "number of dispatched BPDU frames to the network" 0
scalar Mrp8.node4.bridging "number of dispatched non-BDPU frames to the network" 0
scalar Mrp8.node4.bridging "number of received PDUs from MRP module" 0
scalar Mrp8.node4.bridging "number of received frames from network (including PDUs)" 5795
scalar Mrp8.node4.bridging "number of dropped frames (including PDUs)" 0
scalar Mrp8.node4.bridging "number of delivered PDUs to the MRP module" 70
scalar Mrp8.node4.bridging "number of dispatched MRP frames to the network" 173
scalar Mrp8.node4.bridging "number of dispatched non-MRP frames to the network" 5305
scalar Mrp8.node4.bridging packetDropped:count 0
scalar Mrp8.node4.bridging packetDropped:sum(packetBytes) 0
scalar Mrp8.node4.ethernet pauseSent:count 0
scalar Mrp8.node4.ethernet pauseSent:sum 0
scalar Mrp8.node4.ethernet decapPk:count 5795
scalar Mrp8.node4.ethernet decapPk:sum(packetBytes) 5026337
scalar Mrp8.node4.ethernet encapPk:count 6646
scalar Mrp8.node4.ethernet encapPk:sum(packetBytes) 5755624
scalar Mrp8.node4.eth[0].queue queueLength:last 0
scalar Mrp8.node4.eth[0].queue queueLength:max 1
scalar Mrp8.node4.eth[0].queue queueLength:timeavg 1.5333333333333e-05
scalar Mrp8.node4.eth[0].queue queueBitLength:last 0
scalar Mrp8.node4.eth[0].queue queueBitLength:max 7672
scalar Mrp8.node4.eth[0].queue queueBitLength:timeavg 0.017418666666667
scalar Mrp8.node4.eth[0].queue outgoingPackets:count 904
scalar Mrp8.node4.eth[0].queue outgoingPacketLengths:sum 5986200
scalar Mrp8.node4.eth[0].queue incomingPackets:count 904
scalar Mrp8.node4.eth[0].queue incomingPacketLengths:sum 5986200
scalar Mrp8.node4.eth[0].queue droppedPacketsQueueOverflow:count 0
scalar Mrp8.node4.eth[0].queue droppedPacketLengthsQueueOverflow:sum 0
scalar Mrp8.node4.eth[0].mac "simulated time" 3
scalar Mrp8.node4.eth[0].mac full-duplex 1
scalar Mrp8.node4.eth[0].mac "frames/sec sent" 301.33333333333
scalar Mrp8.node4.eth[0].mac "frames/sec rcvd" 23
scalar Mrp8.node4.eth[0].mac "bits/sec sent" 1995576
scalar Mrp8.node4.eth[0].mac "bits/sec rcvd" 12736
scalar Mrp8.node4.eth[0].mac "rx channel idle (%)" 99.9862
scalar Mrp8.node4.eth[0].mac "rx channel utilization (%)" 0.0138
scalar Mrp8.node4.eth[0].mac rxPausePkUnits:count 0
scalar Mrp8.node4.eth[0].mac rxPausePkUnits:sum 0
scalar Mrp8.node4.eth[0].mac txPausePkUnits:count 0
scalar Mrp8.node4.eth[0].mac txPausePkUnits:sum 0
scalar Mrp8.node4.eth[0].mac rxPkOk:count 69
scalar Mrp8.node4.eth[0].mac rxPkOk:sum(packetBytes) 4776
scalar Mrp8.node4.eth[0].mac txPk:count 904
scalar Mrp8.node4.eth[0].mac txPk:sum(packetBytes) 748341
scalar Mrp8.node4.eth[0].mac packetReceivedFromUpper:count 904
scalar Mrp8.node4.eth[0].mac packetReceivedFromUpper:sum(packetBytes) 748275
scalar Mrp8.node4.eth[0].mac passedUpPk:count 69
scalar Mrp8.node4.eth[0].mac passedUpPk:sum(packetBytes) 4776
scalar Mrp8.node4.eth[0].mac packetDropIncorrectlyReceived:count 0
scalar Mrp8.node4.eth[0].mac packetDropIncorrectlyReceived:sum(packetBytes) 0
scalar Mrp8.node4.eth[0].mac packetDropInterfaceDown:count 0
scalar Mrp8.node4.eth[0].mac packetDropInterfaceDown:sum(packetBytes) 0
scalar Mrp8.node4.eth[0].mac packetDropNotAddressedToUs:count 0
scalar Mrp8.node4.eth[0].mac packetDropNotAddressedToUs:sum(packetBytes) 0
scalar Mrp8.node4.eth[0] packetDropInterfaceDown:count 0
scalar Mrp8.node4.eth[0] packetDropInterfaceDown:sum(packetBytes) 0
scalar Mrp8.node4.eth[0] packetDropNoCarrier:count 0
scalar Mrp8.node4.eth[0] packetDropNoCarrier:sum(packetBytes) 0
scalar Mrp8.node4.eth[1].queue queueLength:last 0
scalar Mrp8.node4.eth[1].queue queueLength:max 1
scalar Mrp8.node4.eth[1].queue queueLength:timeavg 0.00061433333333333
scalar Mrp8.node4.eth[1].queue queueBitLength:last 0
scalar Mrp8.node4.eth[1].queue queueBitLength:max 7672
scalar Mrp8.node4.eth[1].queue queueBitLength:timeavg 4.4978853333333
scalar Mrp8.node4.eth[1].queue outgoingPackets:count 2574
scalar Mrp8.node4.eth[1].queue outgoingPacketLengths:sum 19055880
scalar Mrp8.node4.eth[1].queue incomingPackets:count 2574
scalar Mrp8.node4.eth[1].queue incomingPacketLengths:sum 19055880
scalar Mrp8.node4.eth[1].queue droppedPacketsQueueOverflow:count 0
scalar Mrp8.node4.eth[1].queue droppedPacketLengthsQueueOverflow:sum 0
scalar Mrp8.node4.eth[1].mac "simulated time" 3
scalar Mrp8.node4.eth[1].mac full-duplex 1
scalar Mrp8.node4.eth[1].mac "frames/sec sent" 858
scalar Mrp8.node4.eth[1].mac "frames/sec rcvd" 977.33333333333
scalar Mrp8.node4.eth[1].mac "bits/sec sent" 6352093.3333333
scalar Mrp8.node4.eth[1].mac "bits/sec rcvd" 7250997.3333333
scalar Mrp8.node4.eth[1].mac "rx channel idle (%)" 92.720666666667
scalar Mrp8.node4.eth[1].mac "rx channel utilization (%)" 7.2793333333333
scalar Mrp8.node4.eth[1].mac rxPausePkUnits:count 0
scalar Mrp8.node4.eth[1].mac rxPausePkUnits:sum 0
scalar Mrp8.node4.eth[1].mac txPausePkUnits:count 0
scalar Mrp8.node4.eth[1].mac txPausePkUnits:sum 0
scalar Mrp8.node4.eth[1].mac rxPkOk:count 2932
scalar Mrp8.node4.eth[1].mac rxPkOk:sum(packetBytes) 2719124
scalar Mrp8.node4.eth[1].mac txPk:count 2574
scalar Mrp8.node4.eth[1].mac txPk:sum(packetBytes) 2382035
scalar Mrp8.node4.eth[1].mac packetReceivedFromUpper:count 2574
scalar Mrp8.node4.eth[1].mac packetReceivedFromUpper:sum(packetBytes) 2381985
scalar Mrp8.node4.eth[1].mac passedUpPk:count 2932
scalar Mrp8.node4.eth[1].mac passedUpPk:sum(packetBytes) 2719124
scalar Mrp8.node4.eth[1].mac packetDropIncorrectlyReceived:count 0
scalar Mrp8.node4.eth[1].mac packetDropIncorrectlyReceived:sum(packetBytes) 0
scalar Mrp8.node4.eth[1].mac packetDropInterfaceDown:count 0
scalar Mrp8.node4.eth[1].mac packetDropInterfaceDown:sum(packetBytes) 0
scalar Mrp8.node4.eth[1].mac packetDropNotAddressedToUs:count 0
scalar Mrp8.node4.eth[1].mac packetDropNotAddressedToUs:sum(packetBytes) 0
scalar Mrp8.node4.eth[1] packetDropInterfaceDown:count 0
scalar Mrp8.node4.eth[1] packetDropInterfaceDown:sum(packetBytes) 0
scalar Mrp8.node4.eth[1] packetDropNoCarrier:count 0
scalar Mrp8.node4.eth[1] packetDropNoCarrier:sum(packetBytes) 0
scalar Mrp8.node4.eth[2].queue queueLength:last 0
scalar Mrp8.node4.eth[2].queue queueLength:max 1
scalar Mrp8.node4.eth[2].queue queueLength:timeavg 6.6666666666667e-06
scalar Mrp8.node4.eth[2].queue queueBitLength:last 0
scalar Mrp8.node4.eth[2].queue queueBitLength:max 808
scalar Mrp8.node4.eth[2].queue queueBitLength:timeavg 0.00436
scalar Mrp8.node4.eth[2].queue outgoingPackets:count 3168
scalar Mrp8.node4.eth[2].queue outgoingPacketLengths:sum 21959936
scalar Mrp8.node4.eth[2].queue incomingPackets:count 3168
scalar Mrp8.node4.eth[2].queue incomingPacketLengths:sum 21959936
scalar Mrp8.node4.eth[2].queue droppedPacketsQueueOverflow:count 0
scalar Mrp8.node4.eth[2].queue droppedPacketLengthsQueueOverflow:sum 0
scalar Mrp8.node4.eth[2].mac "simulated time" 3
scalar Mrp8.node4.eth[2].mac full-duplex 1
scalar Mrp8.node4.eth[2].mac "frames/sec sent" 1056
scalar Mrp8.node4.eth[2].mac "frames/sec rcvd" 931.33333333333
scalar Mrp8.node4.eth[2].mac "bits/sec sent" 7319978.6666667
scalar Mrp8.node4.eth[2].mac "bits/sec rcvd" 6418216
scalar Mrp8.node4.eth[2].mac "rx channel idle (%)" 93.548966666667
scalar Mrp8.node4.eth[2].mac "rx channel utilization (%)" 6.4510333333333
scalar Mrp8.node4.eth[2].mac rxPausePkUnits:count 0
scalar Mrp8.node4.eth[2].mac rxPausePkUnits:sum 0
scalar Mrp8.node4.eth[2].mac txPausePkUnits:count 0
scalar Mrp8.node4.eth[2].mac txPausePkUnits:sum 0
scalar Mrp8.node4.eth[2].mac rxPkOk:count 2794
scalar Mrp8.node4.eth[2].mac rxPkOk:sum(packetBytes) 2406831
scalar Mrp8.node4.eth[2].mac txPk:count 3168
scalar Mrp8.node4.eth[2].mac txPk:sum(packetBytes) 2744992
scalar Mrp8.node4.eth[2].mac packetReceivedFromUpper:count 3168
scalar Mrp8.node4.eth[2].mac packetReceivedFromUpper:sum(packetBytes) 2744992
scalar Mrp8.node4.eth[2].mac passedUpPk:count 2794
scalar Mrp8.node4.eth[2].mac passedUpPk:sum(packetBytes) 2406831
scalar Mrp8.node4.eth[2].mac packetDropIncorrectlyReceived:count 0
scalar Mrp8.node4.eth[2].mac packetDropIncorrectlyReceived:sum(packetBytes) 0
scalar Mrp8.node4.eth[2].mac packetDropInterfaceDown:count 0
scalar Mrp8.node4.eth[2].mac packetDropInterfaceDown:sum(packetBytes) 0
scalar Mrp8.node4.eth[2].mac packetDropNotAddressedToUs:count 0
scalar Mrp8.node4.eth[2].mac packetDropNotAddressedToUs:sum(packetBytes) 0
scalar Mrp8.node4.eth[2] packetDropInterfaceDown:count 0
scalar Mrp8.node4.eth[2] packetDropInterfaceDown:sum(packetBytes) 0
scalar Mrp8.node4.eth[2] packetDropNoCarrier:count 0
scalar Mrp8.node4.eth[2] packetDropNoCarrier:sum(packetBytes) 0
scalar Mrp8.node5.bridging "processed frames" 0
scalar Mrp8.node5.bridging "discarded frames" 1391
scalar Mrp8.node5.bridging "number of received BPDUs from STP module" 0
scalar Mrp8.node5.bridging "number of received frames from network (including BPDUs)" 0
scalar Mrp8.node5.bridging "number of dropped frames (including BPDUs)" 1391
scalar Mrp8.node5.bridging "number of delivered BPDUs to the STP module" 0
scalar Mrp8.node5.bridging "number of dispatched BPDU frames to the network" 0
scalar Mrp8.node5.bridging "number of dispatched non-BDPU frames to the network" 0
scalar Mrp8.node5.bridging "number of received PDUs from MRP module" 0
scalar Mrp8.node5.bridging "number of received frames from network (including PDUs)" 8096
scalar Mrp8.node5.bridging "number of dropped frames (including PDUs)" 1391
scalar Mrp8.node5.bridging "number of delivered PDUs to the MRP module" 263
scalar Mrp8.node5.bridging "number of dispatched MRP frames to the network" 0
scalar Mrp8.node5.bridging "number of dispatched non-MRP frames to the network" 7062
scalar Mrp8.node5.bridging packetDropped:count 1391
scalar Mrp8.node5.bridging packetDropped:sum(packetBytes) 1308931
scalar Mrp8.node5.ethernet pauseSent:count 0
scalar Mrp8.node5.ethernet pauseSent:sum 0
scalar Mrp8.node5.ethernet decapPk:count 8096
scalar Mrp8.node5.ethernet decapPk:sum(packetBytes) 7383705
scalar Mrp8.node5.ethernet encapPk:count 6580
scalar Mrp8.node5.ethernet encapPk:sum(packetBytes) 6068954
scalar Mrp8.node5.eth[0].queue queueLength:last 0
scalar Mrp8.node5.eth[0].queue queueLength:max 1
scalar Mrp8.node5.eth[0].queue queueLength:timeavg 1.6666666666667e-06
scalar Mrp8.node5.eth[0].queue queueBitLength:last 0
scalar Mrp8.node5.eth[0].queue queueBitLength:max 496
scalar Mrp8.node5.eth[0].queue queueBitLength:timeavg 0.00082666666666667
scalar Mrp8.node5.eth[0].queue outgoingPackets:count 2954
scalar Mrp8.node5.eth[0].queue outgoingPacketLengths:sum 22171784
scalar Mrp8.node5.eth[0].queue incomingPackets:count 2954
scalar Mrp8.node5.eth[0].queue incomingPacketLengths:sum 22171784
scalar Mrp8.node5.eth[0].queue droppedPacketsQueueOverflow:count 0
scalar Mrp8.node5.eth[0].queue droppedPacketLengthsQueueOverflow:sum 0
scalar Mrp8.node5.eth[0].mac "simulated time" 3
scalar Mrp8.node5.eth[0].mac full-duplex 1
scalar Mrp8.node5.eth[0].mac "frames/sec sent" 984.66666666667
scalar Mrp8.node5.eth[0].mac "frames/sec rcvd" 1229
scalar Mrp8.node5.eth[0].mac "bits/sec sent" 7390642.6666667
scalar Mrp8.node5.eth[0].mac "bits/sec rcvd" 9119794.6666667
scalar Mrp8.node5.eth[0].mac "rx channel idle (%)" 90.844366666667
scalar Mrp8.node5.eth[0].mac "rx channel utilization (%)" 9.1556333333333
scalar Mrp8.node5.eth[0].mac rxPausePkUnits:count 0
scalar Mrp8.node5.eth[0].mac rxPausePkUnits:sum 0
scalar Mrp8.node5.eth[0].mac txPausePkUnits:count 0
scalar Mrp8.node5.eth[0].mac txPausePkUnits:sum 0
scalar Mrp8.node5.eth[0].mac rxPkOk:count 3687
scalar Mrp8.node5.eth[0].mac rxPkOk:sum(packetBytes) 3419923
scalar Mrp8.node5.eth[0].mac txPk:count 2954
scalar Mrp8.node5.eth[0].mac txPk:sum(packetBytes) 2771491
scalar Mrp8.node5.eth[0].mac packetReceivedFromUpper:count 2954
scalar Mrp8.node5.eth[0].mac packetReceivedFromUpper:sum(packetBytes) 2771473
scalar Mrp8.node5.eth[0].mac passedUpPk:count 3687
scalar Mrp8.node5.eth[0].mac passedUpPk:sum(packetBytes) 3419923
scalar Mrp8.node5.eth[0].mac packetDropIncorrectlyReceived:count 0
scalar Mrp8.node5.eth[0].mac packetDropIncorrectlyReceived:sum(packetBytes) 0
scalar Mrp8.node5.eth[0].mac packetDropInterfaceDown:count 0
scalar Mrp8.node5.eth[0].mac packetDropInterfaceDown:sum(packetBytes) 0
scalar Mrp8.node5.eth[0].mac packetDropNotAddressedToUs:count 0
scalar Mrp8.node5.eth[0].mac packetDropNotAddressedToUs:sum(packetBytes) 0
scalar Mrp8.node5.eth[0] packetDropInterfaceDown:count 0
scalar Mrp8.node5.eth[0] packetDropInterfaceDown:sum(packetBytes) 0
scalar Mrp8.node5.eth[0] packetDropNoCarrier:count 0
scalar Mrp8.node5.eth[0] packetDropNoCarrier:sum(packetBytes) 0
scalar Mrp8.node5.eth[1].queue queueLength:last 0
scalar Mrp8.node5.eth[1].queue queueLength:max 0
scalar Mrp8.node5.eth[1].queue queueLength:timeavg 0
scalar Mrp8.node5.eth[1].queue queueBitLength:last 0
scalar Mrp8.node5.eth[1].queue queueBitLength:max 0
scalar Mrp8.node5.eth[1].queue queueBitLength:timeavg 0
scalar Mrp8.node5.eth[1].queue outgoingPackets:count 69
scalar Mrp8.node5.eth[1].queue outgoingPacketLengths:sum 38064
scalar Mrp8.node5.eth[1].queue incomingPackets:count 69
scalar Mrp8.node5.eth[1].queue incomingPacketLengths:sum 38064
scalar Mrp8.node5.eth[1].queue droppedPacketsQueueOverflow:count 0
scalar Mrp8.node5.eth[1].queue droppedPacketLengthsQueueOverflow:sum 0
scalar Mrp8.node5.eth[1].mac "simulated time" 3
scalar Mrp8.node5.eth[1].mac full-duplex 1
scalar Mrp8.node5.eth[1].mac "frames/sec sent" 23
scalar Mrp8.node5.eth[1].mac "frames/sec rcvd" 301.33333333333
scalar Mrp8.node5.eth[1].mac "bits/sec sent" 12736
scalar Mrp8.node5.eth[1].mac "bits/sec rcvd" 1995576
scalar Mrp8.node5.eth[1].mac "rx channel idle (%)" 97.9945
scalar Mrp8.node5.eth[1].mac "rx channel utilization (%)" 2.0055
scalar Mrp8.node5.eth[1].mac rxPausePkUnits:count 0
scalar Mrp8.node5.eth[1].mac rxPausePkUnits:sum 0
scalar Mrp8.node5.eth[1].mac txPausePkUnits:count 0
scalar Mrp8.node5.eth[1].mac txPausePkUnits:sum 0
scalar Mrp8.node5.eth[1].mac rxPkOk:count 904
scalar Mrp8.node5.eth[1].mac rxPkOk:sum(packetBytes) 748341
scalar Mrp8.node5.eth[1].mac txPk:count 69
scalar Mrp8.node5.eth[1].mac txPk:sum(packetBytes) 4776
scalar Mrp8.node5.eth[1].mac packetReceivedFromUpper:count 69
scalar Mrp8.node5.eth[1].mac packetReceivedFromUpper:sum(packetBytes) 4758
scalar Mrp8.node5.eth[1].mac passedUpPk:count 904
scalar Mrp8.node5.eth[1].mac passedUpPk:sum(packetBytes) 748341
scalar Mrp8.node5.eth[1].mac packetDropIncorrectlyReceived:count 0
scalar Mrp8.node5.eth[1].mac packetDropIncorrectlyReceived:sum(packetBytes) 0
scalar Mrp8.node5.eth[1].mac packetDropInterfaceDown:count 0
scalar Mrp8.node5.eth[1].mac packetDropInterfaceDown:sum(packetBytes) 0
scalar Mrp8.node5.eth[1].mac packetDropNotAddressedToUs:count 0
scalar Mrp8.node5.eth[1].mac packetDropNotAddressedToUs:sum(packetBytes) 0
scalar Mrp8.node5.eth[1] packetDropInterfaceDown:count 0
scalar Mrp8.node5.eth[1] packetDropInterfaceDown:sum(packetBytes) 0
scalar Mrp8.node5.eth[1] packetDropNoCarrier:count 0
scalar Mrp8.node5.eth[1] packetDropNoCarrier:sum(packetBytes) 0
scalar Mrp8.node5.eth[2].queue queueLength:last 0
scalar Mrp8.node5.eth[2].queue queueLength:max 0
scalar Mrp8.node5.eth[2].queue queueLength:timeavg 0
scalar Mrp8.node5.eth[2].queue queueBitLength:last 0
scalar Mrp8.node5.eth[2].queue queueBitLength:max 0
scalar Mrp8.node5.eth[2].queue queueBitLength:timeavg 0
scalar Mrp8.node5.eth[2].queue outgoingPackets:count 3557
scalar Mrp8.node5.eth[2].queue outgoingPacketLengths:sum 27289304
scalar Mrp8.node5.eth[2].queue incomingPackets:count 3557
scalar Mrp8.node5.eth[2].queue incomingPacketLengths:sum 27289304
scalar Mrp8.node5.eth[2].queue droppedPacketsQueueOverflow:count 0
scalar Mrp8.node5.eth[2].queue droppedPacketLengthsQueueOverflow:sum 0
scalar Mrp8.node5.eth[2].mac "simulated time" 3
scalar Mrp8.node5.eth[2].mac full-duplex 1
scalar Mrp8.node5.eth[2].mac "frames/sec sent" 1185.6666666667
scalar Mrp8.node5.eth[2].mac "frames/sec rcvd" 1168.3333333333
scalar Mrp8.node5.eth[2].mac "bits/sec sent" 9096434.6666667
scalar Mrp8.node5.eth[2].mac "bits/sec rcvd" 8963453.3333333
scalar Mrp8.node5.eth[2].mac "rx channel idle (%)" 91.003833333333
scalar Mrp8.node5.eth[2].mac "rx channel utilization (%)" 8.9961666666667
scalar Mrp8.node5.eth[2].mac rxPausePkUnits:count 0
scalar Mrp8.node5.eth[2].mac rxPausePkUnits:sum 0
scalar Mrp8.node5.eth[2].mac txPausePkUnits:count 0
scalar Mrp8.node5.eth[2].mac txPausePkUnits:sum 0
scalar Mrp8.node5.eth[2].mac rxPkOk:count 3505
scalar Mrp8.node5.eth[2].mac rxPkOk:sum(packetBytes) 3361295
scalar Mrp8.node5.eth[2].mac txPk:count 3557
scalar Mrp8.node5.eth[2].mac txPk:sum(packetBytes) 3411163
scalar Mrp8.node5.eth[2].mac packetReceivedFromUpper:count 3557
scalar Mrp8.node5.eth[2].mac packetReceivedFromUpper:sum(packetBytes) 3411163
scalar Mrp8.node5.eth[2].mac passedUpPk:count 3505
scalar Mrp8.node5.eth[2].mac passedUpPk:sum(packetBytes) 3361295
scalar Mrp8.node5.eth[2].mac packetDropIncorrectlyReceived:count 0
scalar Mrp8.node5.eth[2].mac packetDropIncorrectlyReceived:sum(packetBytes) 0
scalar Mrp8.node5.eth[2].mac packetDropInterfaceDown:count 0
scalar Mrp8.node5.eth[2].mac packetDropInterfaceDown:sum(packetBytes) 0
scalar Mrp8.node5.eth[2].mac packetDropNotAddressedToUs:count 0
scalar Mrp8.node5.eth[2].mac packetDropNotAddressedToUs:sum(packetBytes) 0
scalar Mrp8.node5.eth[2] packetDropInterfaceDown:count 0
scalar Mrp8.node5.eth[2] packetDropInterfaceDown:sum(packetBytes) 0
scalar Mrp8.node5.eth[2] packetDropNoCarrier:count 0
scalar Mrp8.node5.eth[2] packetDropNoCarrier:sum(packetBytes) 0
scalar Mrp8.node6.bridging "processed frames" 0
scalar Mrp8.node6.bridging "discarded frames" 202
scalar Mrp8.node6.bridging "number of received BPDUs from STP module" 0
scalar Mrp8.node6.bridging "number of received frames from network (including BPDUs)" 0
scalar Mrp8.node6.bridging "number of dropped frames (including BPDUs)" 202
scalar Mrp8.node6.bridging "number of delivered BPDUs to the STP module" 0
scalar Mrp8.node6.bridging "number of dispatched BPDU frames to the network" 0
scalar Mrp8.node6.bridging "number of dispatched non-BDPU frames to the network" 0
scalar Mrp8.node6.bridging "number of received PDUs from MRP module" 0
scalar Mrp8.node6.bridging "number of received frames from network (including PDUs)" 10921
scalar Mrp8.node6.bridging "number of dropped frames (including PDUs)" 202
scalar Mrp8.node6.bridging "number of delivered PDUs to the MRP module" 73
scalar Mrp8.node6.bridging "number of dispatched MRP frames to the network" 166
scalar Mrp8.node6.bridging "number of dispatched non-MRP frames to the network" 10503
scalar Mrp8.node6.bridging packetDropped:count 202
scalar Mrp8.node6.bridging packetDropped:sum(packetBytes) 190082
scalar Mrp8.node6.ethernet pauseSent:count 0
scalar Mrp8.node6.ethernet pauseSent:sum 0
scalar Mrp8.node6.ethernet decapPk:count 10921
scalar Mrp8.node6.ethernet decapPk:sum(packetBytes) 9911554
scalar Mrp8.node6.ethernet encapPk:count 11269
scalar Mrp8.node6.ethernet encapPk:sum(packetBytes) 10109463
scalar Mrp8.node6.eth[0].queue queueLength:last 0
scalar Mrp8.node6.eth[0].queue queueLength:max 1
scalar Mrp8.node6.eth[0].queue queueLength:timeavg 2.3333333333333e-06
scalar Mrp8.node6.eth[0].queue queueBitLength:last 0
scalar Mrp8.node6.eth[0].queue queueBitLength:max 496
scalar Mrp8.node6.eth[0].queue queueBitLength:timeavg 0.0011573333333333
scalar Mrp8.node6.eth[0].queue outgoingPackets:count 2357
scalar Mrp8.node6.eth[0].queue outgoingPacketLengths:sum 17348512
scalar Mrp8.node6.eth[0].queue incomingPackets:count 2357
scalar Mrp8.node6.eth[0].queue incomingPacketLengths:sum 17348512
scalar Mrp8.node6.eth[0].queue droppedPacketsQueueOverflow:count 0
scalar Mrp8.node6.eth[0].queue droppedPacketLengthsQueueOverflow:sum 0
scalar Mrp8.node6.eth[0].mac "simulated time" 3
scalar Mrp8.node6.eth[0].mac full-duplex 1
scalar Mrp8.node6.eth[0].mac "frames/sec sent" 785.66666666667
scalar Mrp8.node6.eth[0].mac "frames/sec rcvd" 1422
scalar Mrp8.node6.eth[0].mac "bits/sec sent" 5782917.3333333
scalar Mrp8.node6.eth[0].mac "bits/sec rcvd" 10679101.333333
scalar Mrp8.node6.eth[0].mac "rx channel idle (%)" 89.280166666667
scalar Mrp8.node6.eth[0].mac "rx channel utilization (%)" 10.719833333333
scalar Mrp8.node6.eth[0].mac rxPausePkUnits:count 0
scalar Mrp8.node6.eth[0].mac rxPausePkUnits:sum 0
scalar Mrp8.node6.eth[0].mac txPausePkUnits:count 0
scalar Mrp8.node6.eth[0].mac txPausePkUnits:sum 0
scalar Mrp8.node6.eth[0].mac rxPkOk:count 4266
scalar Mrp8.node6.eth[0].mac rxPkOk:sum(packetBytes) 4004663
scalar Mrp8.node6.eth[0].mac txPk:count 2357
scalar Mrp8.node6.eth[0].mac txPk:sum(packetBytes) 2168594
scalar Mrp8.node6.eth[0].mac packetReceivedFromUpper:count 2357
scalar Mrp8.node6.eth[0].mac packetReceivedFromUpper:sum(packetBytes) 2168564
scalar Mrp8.node6.eth[0].mac passedUpPk:count 4266
scalar Mrp8.node6.eth[0].mac passedUpPk:sum(packetBytes) 4004663
scalar Mrp8.node6.eth[0].mac packetDropIncorrectlyReceived:count 0
scalar Mrp8.node6.eth[0].mac packetDropIncorrectlyReceived:sum(packetBytes) 0
scalar Mrp8.node6.eth[0].mac packetDropInterfaceDown:count 0
scalar Mrp8.node6.eth[0].mac packetDropInterfaceDown:sum(packetBytes) 0
scalar Mrp8.node6.eth[0].mac packetDropNotAddressedToUs:count 0
scalar Mrp8.node6.eth[0].mac packetDropNotAddressedToUs:sum(packetBytes) 0
scalar Mrp8.node6.eth[0] packetDropInterfaceDown:count 0
scalar Mrp8.node6.eth[0] packetDropInterfaceDown:sum(packetBytes) 0
scalar Mrp8.node6.eth[0] packetDropNoCarrier:count 0
scalar Mrp8.node6.eth[0] packetDropNoCarrier:sum(packetBytes) 0
scalar Mrp8.node6.eth[1].queue queueLength:last 0
scalar Mrp8.node6.eth[1].queue queueLength:max 2
scalar Mrp8.node6.eth[1].queue queueLength:timeavg 0.000327
scalar Mrp8.node6.eth[1].queue queueBitLength:last 0
scalar Mrp8.node6.eth[1].queue queueBitLength:max 1088
scalar Mrp8.node6.eth[1].queue queueBitLength:timeavg 0.17977066666667
scalar Mrp8.node6.eth[1].queue outgoingPackets:count 3687
scalar Mrp8.node6.eth[1].queue outgoingPacketLengths:sum 27358904
scalar Mrp8.node6.eth[1].queue incomingPackets:count 3687
scalar Mrp8.node6.eth[1].queue incomingPacketLengths:sum 27358904
scalar Mrp8.node6.eth[1].queue droppedPacketsQueueOverflow:count 0
scalar Mrp8.node6.eth[1].queue droppedPacketLengthsQueueOverflow:sum 0
scalar Mrp8.node6.eth[1].mac "simulated time" 3
scalar Mrp8.node6.eth[1].mac full-duplex 1
scalar Mrp8.node6.eth[1].mac "frames/sec sent" 1229
scalar Mrp8.node6.eth[1].mac "frames/sec rcvd" 984.66666666667
scalar Mrp8.node6.eth[1].mac "bits/sec sent" 9119794.6666667
scalar Mrp8.node6.eth[1].mac "bits/sec rcvd" 7390642.6666667
scalar Mrp8.node6.eth[1].mac "rx channel idle (%)" 92.581366666667
scalar Mrp8.node6.eth[1].mac "rx channel utilization (%)" 7.4186333333333
scalar Mrp8.node6.eth[1].mac rxPausePkUnits:count 0
scalar Mrp8.node6.eth[1].mac rxPausePkUnits:sum 0
scalar Mrp8.node6.eth[1].mac txPausePkUnits:count 0
scalar Mrp8.node6.eth[1].mac txPausePkUnits:sum 0
scalar Mrp8.node6.eth[1].mac rxPkOk:count 2954
scalar Mrp8.node6.eth[1].mac rxPkOk:sum(packetBytes) 2771491
scalar Mrp8.node6.eth[1].mac txPk:count 3687
scalar Mrp8.node6.eth[1].mac txPk:sum(packetBytes) 3419923
scalar Mrp8.node6.eth[1].mac packetReceivedFromUpper:count 3687
scalar Mrp8.node6.eth[1].mac packetReceivedFromUpper:sum(packetBytes) 3419863
scalar Mrp8.node6.eth[1].mac passedUpPk:count 2954
scalar Mrp8.node6.eth[1].mac passedUpPk:sum(packetBytes) 2771491
scalar Mrp8.node6.eth[1].mac packetDropIncorrectlyReceived:count 0
scalar Mrp8.node6.eth[1].mac packetDropIncorrectlyReceived:sum(packetBytes) 0
scalar Mrp8.node6.eth[1].mac packetDropInterfaceDown:count 0
scalar Mrp8.node6.eth[1].mac packetDropInterfaceDown:sum(packetBytes) 0
scalar Mrp8.node6.eth[1].mac packetDropNotAddressedToUs:count 0
scalar Mrp8.node6.eth[1].mac packetDropNotAddressedToUs:sum(packetBytes) 0
scalar Mrp8.node6.eth[1] packetDropInterfaceDown:count 0
scalar Mrp8.node6.eth[1] packetDropInterfaceDown:sum(packetBytes) 0
scalar Mrp8.node6.eth[1] packetDropNoCarrier:count 0
scalar Mrp8.node6.eth[1] packetDropNoCarrier:sum(packetBytes) 0
scalar Mrp8.node6.eth[2].queue queueLength:last 0
scalar Mrp8.node6.eth[2].queue queueLength:max 1
scalar Mrp8.node6.eth[2].queue queueLength:timeavg 0.038488666666667
scalar Mrp8.node6.eth[2].queue queueBitLength:last 0
scalar Mrp8.node6.eth[2].queue queueBitLength:max 7672
scalar Mrp8.node6.eth[2].queue queueBitLength:timeavg 295.19678133333
scalar Mrp8.node6.eth[2].queue outgoingPackets:count 5225
scalar Mrp8.node6.eth[2].queue outgoingPacketLengths:sum 37791024
scalar Mrp8.node6.eth[2].queue incomingPackets:count 5225
scalar Mrp8.node6.eth[2].queue incomingPacketLengths:sum 37791024
scalar Mrp8.node6.eth[2].queue droppedPacketsQueueOverflow:count 0
scalar Mrp8.node6.eth[2].queue droppedPacketLengthsQueueOverflow:sum 0
scalar Mrp8.node6.eth[2].mac "simulated time" 3
scalar Mrp8.node6.eth[2].mac full-duplex 1
scalar Mrp8.node6.eth[2].mac "frames/sec sent" 1696.3333333333
scalar Mrp8.node6.eth[2].mac "frames/sec rcvd" 1233.6666666667
scalar Mrp8.node6.eth[2].mac "bits/sec sent" 12423229.333333
scalar Mrp8.node6.eth[2].mac "bits/sec rcvd" 8885525.3333333
scalar Mrp8.node6.eth[2].mac "rx channel idle (%)" 91.074666666667
scalar Mrp8.node6.eth[2].mac "rx channel utilization (%)" 8.9253333333333
scalar Mrp8.node6.eth[2].mac rxPausePkUnits:count 0
scalar Mrp8.node6.eth[2].mac rxPausePkUnits:sum 0
scalar Mrp8.node6.eth[2].mac txPausePkUnits:count 0
scalar Mrp8.node6.eth[2].mac txPausePkUnits:sum 0
scalar Mrp8.node6.eth[2].mac rxPkOk:count 3701
scalar Mrp8.node6.eth[2].mac rxPkOk:sum(packetBytes) 3332072
scalar Mrp8.node6.eth[2].mac txPk:count 5089
scalar Mrp8.node6.eth[2].mac txPk:sum(packetBytes) 4658711
scalar Mrp8.node6.eth[2].mac packetReceivedFromUpper:count 5225
scalar Mrp8.node6.eth[2].mac packetReceivedFromUpper:sum(packetBytes) 4723878
scalar Mrp8.node6.eth[2].mac passedUpPk:count 3701
scalar Mrp8.node6.eth[2].mac passedUpPk:sum(packetBytes) 3332072
scalar Mrp8.node6.eth[2].mac packetDropIncorrectlyReceived:count 0
scalar Mrp8.node6.eth[2].mac packetDropIncorrectlyReceived:sum(packetBytes) 0
scalar Mrp8.node6.eth[2].mac packetDropInterfaceDown:count 136
scalar Mrp8.node6.eth[2].mac packetDropInterfaceDown:sum(packetBytes) 65181
scalar Mrp8.node6.eth[2].mac packetDropNotAddressedToUs:count 0
scalar Mrp8.node6.eth[2].mac packetDropNotAddressedToUs:sum(packetBytes) 0
scalar Mrp8.node6.eth[2] packetDropInterfaceDown:count 136
scalar Mrp8.node6.eth[2] packetDropInterfaceDown:sum(packetBytes) 65181
scalar Mrp8.node6.eth[2] packetDropNoCarrier:count 0
scalar Mrp8.node6.eth[2] packetDropNoCarrier:sum(packetBytes) 0
scalar Mrp8.node7.bridging "processed frames" 0
scalar Mrp8.node7.bridging "discarded frames" 0
scalar Mrp8.node7.bridging "number of received BPDUs from STP module" 0
scalar Mrp8.node7.bridging "number of received frames from network (including BPDUs)" 0
scalar Mrp8.node7.bridging "number of dropped frames (including BPDUs)" 0
scalar Mrp8.node7.bridging "number of delivered BPDUs to the STP module" 0
scalar Mrp8.node7.bridging "number of dispatched BPDU frames to the network" 0
scalar Mrp8.node7.bridging "number of dispatched non-BDPU frames to the network" 0
scalar Mrp8.node7.bridging "number of received PDUs from MRP module" 0
scalar Mrp8.node7.bridging "number of received frames from network (including PDUs)" 9199
scalar Mrp8.node7.bridging "number of dropped frames (including PDUs)" 0
scalar Mrp8.node7.bridging "number of delivered PDUs to the MRP module" 19
scalar Mrp8.node7.bridging "number of dispatched MRP frames to the network" 200
scalar Mrp8.node7.bridging "number of dispatched non-MRP frames to the network" 8999
scalar Mrp8.node7.bridging packetDropped:count 0
scalar Mrp8.node7.bridging packetDropped:sum(packetBytes) 0
scalar Mrp8.node7.ethernet pauseSent:count 0
scalar Mrp8.node7.ethernet pauseSent:sum 0
scalar Mrp8.node7.ethernet decapPk:count 9199
scalar Mrp8.node7.ethernet decapPk:sum(packetBytes) 8477979
scalar Mrp8.node7.ethernet encapPk:count 9971
scalar Mrp8.node7.ethernet encapPk:sum(packetBytes) 9203534
scalar Mrp8.node7.eth[0].queue queueLength:last 0
scalar Mrp8.node7.eth[0].queue queueLength:max 1
scalar Mrp8.node7.eth[0].queue queueLength:timeavg 2.9e-05
scalar Mrp8.node7.eth[0].queue queueBitLength:last 0
scalar Mrp8.node7.eth[0].queue queueBitLength:max 528
scalar Mrp8.node7.eth[0].queue queueBitLength:timeavg 0.01512
scalar Mrp8.node7.eth[0].queue outgoingPackets:count 2932
scalar Mrp8.node7.eth[0].queue outgoingPacketLengths:sum 21752736
scalar Mrp8.node7.eth[0].queue incomingPackets:count 2932
scalar Mrp8.node7.eth[0].queue incomingPacketLengths:sum 21752736
scalar Mrp8.node7.eth[0].queue droppedPacketsQueueOverflow:count 0
scalar Mrp8.node7.eth[0].queue droppedPacketLengthsQueueOverflow:sum 0
scalar Mrp8.node7.eth[0].mac "simulated time" 3
scalar Mrp8.node7.eth[0].mac full-duplex 1
scalar Mrp8.node7.eth[0].mac "frames/sec sent" 977.33333333333
scalar Mrp8.node7.eth[0].mac "frames/sec rcvd" 858
scalar Mrp8.node7.eth[0].mac "bits/sec sent" 7250997.3333333
scalar Mrp8.node7.eth[0].mac "bits/sec rcvd" 6352093.3333333
scalar Mrp8.node7.eth[0].mac "rx channel idle (%)" 93.622966666667
scalar Mrp8.node7.eth[0].mac "rx channel utilization (%)" 6.3770333333333
scalar Mrp8.node7.eth[0].mac rxPausePkUnits:count 0
scalar Mrp8.node7.eth[0].mac rxPausePkUnits:sum 0
scalar Mrp8.node7.eth[0].mac txPausePkUnits:count 0
scalar Mrp8.node7.eth[0].mac txPausePkUnits:sum 0
scalar Mrp8.node7.eth[0].mac rxPkOk:count 2574
scalar Mrp8.node7.eth[0].mac rxPkOk:sum(packetBytes) 2382035
scalar Mrp8.node7.eth[0].mac txPk:count 2932
scalar Mrp8.node7.eth[0].mac txPk:sum(packetBytes) 2719124
scalar Mrp8.node7.eth[0].mac packetReceivedFromUpper:count 2932
scalar Mrp8.node7.eth[0].mac packetReceivedFromUpper:sum(packetBytes) 2719092
scalar Mrp8.node7.eth[0].mac passedUpPk:count 2574
scalar Mrp8.node7.eth[0].mac passedUpPk:sum(packetBytes) 2382035
scalar Mrp8.node7.eth[0].mac packetDropIncorrectlyReceived:count 0
scalar Mrp8.node7.eth[0].mac packetDropIncorrectlyReceived:sum(packetBytes) 0
scalar Mrp8.node7.eth[0].mac packetDropInterfaceDown:count 0
scalar Mrp8.node7.eth[0].mac packetDropInterfaceDown:sum(packetBytes) 0
scalar Mrp8.node7.eth[0].mac packetDropNotAddressedToUs:count 0
scalar Mrp8.node7.eth[0].mac packetDropNotAddressedToUs:sum(packetBytes) 0
scalar Mrp8.node7.eth[0] packetDropInterfaceDown:count 0
scalar Mrp8.node7.eth[0] packetDropInterfaceDown:sum(packetBytes) 0
scalar Mrp8.node7.eth[0] packetDropNoCarrier:count 0
scalar Mrp8.node7.eth[0] packetDropNoCarrier:sum(packetBytes) 0
scalar Mrp8.node7.eth[1].queue queueLength:last 0
scalar Mrp8.node7.eth[1].queue queueLength:max 1
scalar Mrp8.node7.eth[1].queue queueLength:timeavg 3.0666666666667e-05
scalar Mrp8.node7.eth[1].queue queueBitLength:last 0
scalar Mrp8.node7.eth[1].queue queueBitLength:max 560
scalar Mrp8.node7.eth[1].queue queueBitLength:timeavg 0.015552
scalar Mrp8.node7.eth[1].queue outgoingPackets:count 4266
scalar Mrp8.node7.eth[1].queue outgoingPacketLengths:sum 32036904
scalar Mrp8.node7.eth[1].queue incomingPackets:count 4266
scalar Mrp8.node7.eth[1].queue incomingPacketLengths:sum 32036904
scalar Mrp8.node7.eth[1].queue droppedPacketsQueueOverflow:count 0
scalar Mrp8.node7.eth[1].queue droppedPacketLengthsQueueOverflow:sum 0
scalar Mrp8.node7.eth[1].mac "simulated time" 3
scalar Mrp8.node7.eth[1].mac full-duplex 1
scalar Mrp8.node7.eth[1].mac "frames/sec sent" 1422
scalar Mrp8.node7.eth[1].mac "frames/sec rcvd" 785.66666666667
scalar Mrp8.node7.eth[1].mac "bits/sec sent" 10679101.333333
scalar Mrp8.node7.eth[1].mac "bits/sec rcvd" 5782917.3333333
scalar Mrp8.node7.eth[1].mac "rx channel idle (%)" 94.194133333333
scalar Mrp8.node7.eth[1].mac "rx channel utilization (%)" 5.8058666666667
scalar Mrp8.node7.eth[1].mac rxPausePkUnits:count 0
scalar Mrp8.node7.eth[1].mac rxPausePkUnits:sum 0
scalar Mrp8.node7.eth[1].mac txPausePkUnits:count 0
scalar Mrp8.node7.eth[1].mac txPausePkUnits:sum 0
scalar Mrp8.node7.eth[1].mac rxPkOk:count 2357
scalar Mrp8.node7.eth[1].mac rxPkOk:sum(packetBytes) 2168594
scalar Mrp8.node7.eth[1].mac txPk:count 4266
scalar Mrp8.node7.eth[1].mac txPk:sum(packetBytes) 4004663
scalar Mrp8.node7.eth[1].mac packetReceivedFromUpper:count 4266
scalar Mrp8.node7.eth[1].mac packetReceivedFromUpper:sum(packetBytes) 4004613
scalar Mrp8.node7.eth[1].mac passedUpPk:count 2357
scalar Mrp8.node7.eth[1].mac passedUpPk:sum(packetBytes) 2168594
scalar Mrp8.node7.eth[1].mac packetDropIncorrectlyReceived:count 0
scalar Mrp8.node7.eth[1].mac packetDropIncorrectlyReceived:sum(packetBytes) 0
scalar Mrp8.node7.eth[1].mac packetDropInterfaceDown:count 0
scalar Mrp8.node7.eth[1].mac packetDropInterfaceDown:sum(packetBytes) 0
scalar Mrp8.node7.eth[1].mac packetDropNotAddressedToUs:count 0
scalar Mrp8.node7.eth[1].mac packetDropNotAddressedToUs:sum(packetBytes) 0
scalar Mrp8.node7.eth[1] packetDropInterfaceDown:count 0
scalar Mrp8.node7.eth[1] packetDropInterfaceDown:sum(packetBytes) 0
scalar Mrp8.node7.eth[1] packetDropNoCarrier:count 0
scalar Mrp8.node7.eth[1] packetDropNoCarrier:sum(packetBytes) 0
scalar Mrp8.node7.eth[2].queue queueLength:last 0
scalar Mrp8.node7.eth[2].queue queueLength:max 0
scalar Mrp8.node7.eth[2].queue queueLength:timeavg 0
scalar Mrp8.node7.eth[2].queue queueBitLength:last 0
scalar Mrp8.node7.eth[2].queue queueBitLength:max 0
scalar Mrp8.node7.eth[2].queue queueBitLength:timeavg 0
scalar Mrp8.node7.eth[2].queue outgoingPackets:count 2773
scalar Mrp8.node7.eth[2].queue outgoingPacketLengths:sum 21274456
scalar Mrp8.node7.eth[2].queue incomingPackets:count 2773
scalar Mrp8.node7.eth[2].queue incomingPacketLengths:sum 21274456
scalar Mrp8.node7.eth[2].queue droppedPacketsQueueOverflow:count 0
scalar Mrp8.node7.eth[2].queue droppedPacketLengthsQueueOverflow:sum 0
scalar Mrp8.node7.eth[2].mac "simulated time" 3
scalar Mrp8.node7.eth[2].mac full-duplex 1
scalar Mrp8.node7.eth[2].mac "frames/sec sent" 924.33333333333
scalar Mrp8.node7.eth[2].mac "frames/sec rcvd" 1422.6666666667
scalar Mrp8.node7.eth[2].mac "bits/sec sent" 7091485.3333333
scalar Mrp8.node7.eth[2].mac "bits/sec rcvd" 10914698.666667
scalar Mrp8.node7.eth[2].mac "rx channel idle (%)" 89.045466666667
scalar Mrp8.node7.eth[2].mac "rx channel utilization (%)" 10.954533333333
scalar Mrp8.node7.eth[2].mac rxPausePkUnits:count 0
scalar Mrp8.node7.eth[2].mac rxPausePkUnits:sum 0
scalar Mrp8.node7.eth[2].mac txPausePkUnits:count 0
scalar Mrp8.node7.eth[2].mac txPausePkUnits:sum 0
scalar Mrp8.node7.eth[2].mac rxPkOk:count 4268
scalar Mrp8.node7.eth[2].mac rxPkOk:sum(packetBytes) 4093012
scalar Mrp8.node7.eth[2].mac txPk:count 2773
scalar Mrp8.node7.eth[2].mac txPk:sum(packetBytes) 2659307
scalar Mrp8.node7.eth[2].mac packetReceivedFromUpper:count 2773
scalar Mrp8.node7.eth[2].mac packetReceivedFromUpper:sum(packetBytes) 2659307
scalar Mrp8.node7.eth[2].mac passedUpPk:count 4268
scalar Mrp8.node7.eth[2].mac passedUpPk:sum(packetBytes) 4093012
scalar Mrp8.node7.eth[2].mac packetDropIncorrectlyReceived:count 0
scalar Mrp8.node7.eth[2].mac packetDropIncorrectlyReceived:sum(packetBytes) 0
scalar Mrp8.node7.eth[2].mac packetDropInterfaceDown:count 0
scalar Mrp8.node7.eth[2].mac packetDropInterfaceDown:sum(packetBytes) 0
scalar Mrp8.node7.eth[2].mac packetDropNotAddressedToUs:count 0
scalar Mrp8.node7.eth[2].mac packetDropNotAddressedToUs:sum(packetBytes) 0
scalar Mrp8.node7.eth[2] packetDropInterfaceDown:count 0
scalar Mrp8.node7.eth[2] packetDropInterfaceDown:sum(packetBytes) 0
scalar Mrp8.node7.eth[2] packetDropNoCarrier:count 0
scalar Mrp8.node7.eth[2] packetDropNoCarrier:sum(packetBytes) 0
scalar Mrp8.host1.cli packetReceived:count 385
scalar Mrp8.host1.cli packetReceived:sum(packetBytes) 361130
scalar Mrp8.host1.cli packetSent:count 2501
scalar Mrp8.host1.cli packetSent:sum(packetBytes) 2345938
scalar Mrp8.host1.srv packetReceived:count 2151
scalar Mrp8.host1.srv packetReceived:sum(packetBytes) 2017638
scalar Mrp8.host1.srv packetSent:count 2151
scalar Mrp8.host1.srv packetSent:sum(packetBytes) 2017638
scalar Mrp8.host1.ethernet.macHeaderInserter outgoingPackets:count 4652
scalar Mrp8.host1.ethernet.macHeaderInserter outgoingPacketLengths:sum 35541280
scalar Mrp8.host1.ethernet.macHeaderInserter flowOutgoingPacketLengths:sum 0
scalar Mrp8.host1.ethernet.macHeaderInserter incomingPackets:count 4652
scalar Mrp8.host1.ethernet.macHeaderInserter incomingPacketLengths:sum 35020256
scalar Mrp8.host1.ethernet.macHeaderInserter flowIncomingPacketLengths:sum 0
scalar Mrp8.host1.ethernet.paddingInserter outgoingPackets:count 4652
scalar Mrp8.host1.ethernet.paddingInserter outgoingPacketLengths:sum 35541280
scalar Mrp8.host1.ethernet.paddingInserter flowOutgoingPacketLengths:sum 0
scalar Mrp8.host1.ethernet.paddingInserter incomingPackets:count 4652
scalar Mrp8.host1.ethernet.paddingInserter incomingPacketLengths:sum 35541280
scalar Mrp8.host1.ethernet.paddingInserter flowIncomingPacketLengths:sum 0
scalar Mrp8.host1.ethernet.fcsInserter outgoingPackets:count 4652
scalar Mrp8.host1.ethernet.fcsInserter outgoingPacketLengths:sum 35690144
scalar Mrp8.host1.ethernet.fcsInserter flowOutgoingPacketLengths:sum 0
scalar Mrp8.host1.ethernet.fcsInserter incomingPackets:count 4652
scalar Mrp8.host1.ethernet.fcsInserter incomingPacketLengths:sum 35541280
scalar Mrp8.host1.ethernet.fcsInserter flowIncomingPacketLengths:sum 0
scalar Mrp8.host1.ethernet.macHeaderChecker outgoingPackets:count 2536
scalar Mrp8.host1.ethernet.macHeaderChecker outgoingPacketLengths:sum 19091008
scalar Mrp8.host1.ethernet.macHeaderChecker flowOutgoingPacketLengths:sum 0
scalar Mrp8.host1.ethernet.macHeaderChecker incomingPackets:count 2541
scalar Mrp8.host1.ethernet.macHeaderChecker incomingPacketLengths:sum 19413240
scalar Mrp8.host1.ethernet.macHeaderChecker flowIncomingPacketLengths:sum 0
scalar Mrp8.host1.ethernet.macHeaderChecker droppedPackets:count 5
scalar Mrp8.host1.ethernet.macHeaderChecker droppedPacketLengths:sum 38200
scalar Mrp8.host1.ethernet.macHeaderChecker flowDroppedPacketLengths:sum 0
scalar Mrp8.host1.ethernet.fcsChecker outgoingPackets:count 2541
scalar Mrp8.host1.ethernet.fcsChecker outgoingPacketLengths:sum 19413240
scalar Mrp8.host1.ethernet.fcsChecker flowOutgoingPacketLengths:sum 0
scalar Mrp8.host1.ethernet.fcsChecker incomingPackets:count 2541
scalar Mrp8.host1.ethernet.fcsChecker incomingPacketLengths:sum 19494552
scalar Mrp8.host1.ethernet.fcsChecker flowIncomingPacketLengths:sum 0
scalar Mrp8.host1.ethernet.fcsChecker droppedPackets:count 0
scalar Mrp8.host1.ethernet.fcsChecker droppedPacketLengths:sum 0
scalar Mrp8.host1.ethernet.fcsChecker flowDroppedPacketLengths:sum 0
scalar Mrp8.host1.eth.macLayer.queue queueLength:last 0
scalar Mrp8.host1.eth.macLayer.queue queueLength:max 1
scalar Mrp8.host1.eth.macLayer.queue queueLength:timeavg 0
scalar Mrp8.host1.eth.macLayer.queue queueBitLength:last 0
scalar Mrp8.host1.eth.macLayer.queue queueBitLength:max 7672
scalar Mrp8.host1.eth.macLayer.queue queueBitLength:timeavg 0
scalar Mrp8.host1.eth.macLayer.queue outgoingPackets:count 4652
scalar Mrp8.host1.eth.macLayer.queue outgoingPacketLengths:sum 35690144
scalar Mrp8.host1.eth.macLayer.queue incomingPackets:count 4652
scalar Mrp8.host1.eth.macLayer.queue incomingPacketLengths:sum 35690144
scalar Mrp8.host1.eth.macLayer.queue droppedPacketsQueueOverflow:count 0
scalar Mrp8.host1.eth.macLayer.queue droppedPacketLengthsQueueOverflow:sum 0
scalar Mrp8.host1.eth.macLayer.server incomingPackets:count 4652
scalar Mrp8.host1.eth.macLayer.server incomingPacketLengths:sum 35690144
scalar Mrp8.host1.eth.macLayer.server outgoingPackets:count 4652
scalar Mrp8.host1.eth.macLayer.server outgoingPacketLengths:sum 35690144
scalar Mrp8.host1.eth.macLayer.outboundEmitter outgoingPackets:count 4652
scalar Mrp8.host1.eth.macLayer.outboundEmitter outgoingPacketLengths:sum 35690144
scalar Mrp8.host1.eth.macLayer.outboundEmitter flowOutgoingPacketLengths:sum 0
scalar Mrp8.host1.eth.macLayer.outboundEmitter incomingPackets:count 4652
scalar Mrp8.host1.eth.macLayer.outboundEmitter incomingPacketLengths:sum 35690144
scalar Mrp8.host1.eth.macLayer.outboundEmitter flowIncomingPacketLengths:sum 0
scalar Mrp8.host1.eth.macLayer.fcsChecker outgoingPackets:count 2541
scalar Mrp8.host1.eth.macLayer.fcsChecker outgoingPacketLengths:sum 19494552
scalar Mrp8.host1.eth.macLayer.fcsChecker flowOutgoingPacketLengths:sum 0
scalar Mrp8.host1.eth.macLayer.fcsChecker incomingPackets:count 2541
scalar Mrp8.host1.eth.macLayer.fcsChecker incomingPacketLengths:sum 19494552
scalar Mrp8.host1.eth.macLayer.fcsChecker flowIncomingPacketLengths:sum 0
[...]
scalar Mrp8.host4.eth.phyLayer.transmitter transmissionTime:vector:max 7.7e-05
scalar Mrp8.host4.eth.phyLayer.transmitter transmissionTime:vector:starttime 0.500077
scalar Mrp8.host4.eth.phyLayer.transmitter transmissionTime:vector:endtime 2.999506
scalar Mrp8.host4.eth.phyLayer.transmitter flowTransmissionTime:vector:count 0
scalar Mrp8.host4.eth.phyLayer.transmitter flowTransmissionTime:vector:sum 0
scalar Mrp8.host4.eth.phyLayer.transmitter flowTransmissionTime:vector:sumweights 0
scalar Mrp8.host4.eth.phyLayer.transmitter flowTransmissionTime:vector:mean -nan
scalar Mrp8.host4.eth.phyLayer.transmitter flowTransmissionTime:vector:stddev nan
scalar Mrp8.host4.eth.phyLayer.transmitter flowTransmissionTime:vector:min inf
scalar Mrp8.host4.eth.phyLayer.transmitter flowTransmissionTime:vector:max -inf
scalar Mrp8.host4.eth.phyLayer.transmitter flowTransmissionTime:vector:starttime nan
scalar Mrp8.host4.eth.phyLayer.transmitter flowTransmissionTime:vector:endtime nan
scalar Mrp8.host4.eth.phyLayer.phyHeaderChecker incomingPacketLengths:vector:count 2773
scalar Mrp8.host4.eth.phyLayer.phyHeaderChecker incomingPacketLengths:vector:sum 21451928
scalar Mrp8.host4.eth.phyLayer.phyHeaderChecker incomingPacketLengths:vector:sumweights 2773
scalar Mrp8.host4.eth.phyLayer.phyHeaderChecker incomingPacketLengths:vector:mean 7736
scalar Mrp8.host4.eth.phyLayer.phyHeaderChecker incomingPacketLengths:vector:stddev 0
scalar Mrp8.host4.eth.phyLayer.phyHeaderChecker incomingPacketLengths:vector:min 7736
scalar Mrp8.host4.eth.phyLayer.phyHeaderChecker incomingPacketLengths:vector:max 7736
scalar Mrp8.host4.eth.phyLayer.phyHeaderChecker incomingPacketLengths:vector:starttime 0.50033
scalar Mrp8.host4.eth.phyLayer.phyHeaderChecker incomingPacketLengths:vector:endtime 2.999429
scalar Mrp8.host4.eth.phyLayer.phyHeaderChecker incomingDataRate:vector:count 36
scalar Mrp8.host4.eth.phyLayer.phyHeaderChecker incomingDataRate:vector:sum 303419376.17879
scalar Mrp8.host4.eth.phyLayer.phyHeaderChecker incomingDataRate:vector:sumweights 36
scalar Mrp8.host4.eth.phyLayer.phyHeaderChecker incomingDataRate:vector:mean 8428316.0049665
scalar Mrp8.host4.eth.phyLayer.phyHeaderChecker incomingDataRate:vector:stddev 5435513.2010226
scalar Mrp8.host4.eth.phyLayer.phyHeaderChecker incomingDataRate:vector:min 0
scalar Mrp8.host4.eth.phyLayer.phyHeaderChecker incomingDataRate:vector:max 15498085.887137
scalar Mrp8.host4.eth.phyLayer.phyHeaderChecker incomingDataRate:vector:starttime 0.1
scalar Mrp8.host4.eth.phyLayer.phyHeaderChecker incomingDataRate:vector:endtime 3
scalar Mrp8.host4.eth.phyLayer.phyHeaderChecker outgoingPacketLengths:vector:count 2773
scalar Mrp8.host4.eth.phyLayer.phyHeaderChecker outgoingPacketLengths:vector:sum 21274456
scalar Mrp8.host4.eth.phyLayer.phyHeaderChecker outgoingPacketLengths:vector:sumweights 2773
scalar Mrp8.host4.eth.phyLayer.phyHeaderChecker outgoingPacketLengths:vector:mean 7672
scalar Mrp8.host4.eth.phyLayer.phyHeaderChecker outgoingPacketLengths:vector:stddev 0
scalar Mrp8.host4.eth.phyLayer.phyHeaderChecker outgoingPacketLengths:vector:min 7672
scalar Mrp8.host4.eth.phyLayer.phyHeaderChecker outgoingPacketLengths:vector:max 7672
scalar Mrp8.host4.eth.phyLayer.phyHeaderChecker outgoingPacketLengths:vector:starttime 0.50033
scalar Mrp8.host4.eth.phyLayer.phyHeaderChecker outgoingPacketLengths:vector:endtime 2.999429
scalar Mrp8.host4.eth.phyLayer.phyHeaderChecker outgoingDataRate:vector:count 36
scalar Mrp8.host4.eth.phyLayer.phyHeaderChecker outgoingDataRate:vector:sum 300909184.8557
scalar Mrp8.host4.eth.phyLayer.phyHeaderChecker outgoingDataRate:vector:sumweights 36
scalar Mrp8.host4.eth.phyLayer.phyHeaderChecker outgoingDataRate:vector:mean 8358588.4682138
scalar Mrp8.host4.eth.phyLayer.phyHeaderChecker outgoingDataRate:vector:stddev 5390545.1497218
scalar Mrp8.host4.eth.phyLayer.phyHeaderChecker outgoingDataRate:vector:min 0
scalar Mrp8.host4.eth.phyLayer.phyHeaderChecker outgoingDataRate:vector:max 15369870.07835
scalar Mrp8.host4.eth.phyLayer.phyHeaderChecker outgoingDataRate:vector:starttime 0.1
scalar Mrp8.host4.eth.phyLayer.phyHeaderChecker outgoingDataRate:vector:endtime 3
scalar Mrp8.host4.eth.phyLayer.phyHeaderChecker droppedPacketLengths:vector:count 0
scalar Mrp8.host4.eth.phyLayer.phyHeaderChecker droppedPacketLengths:vector:sum 0
scalar Mrp8.host4.eth.phyLayer.phyHeaderChecker droppedPacketLengths:vector:sumweights 0
scalar Mrp8.host4.eth.phyLayer.phyHeaderChecker droppedPacketLengths:vector:mean -nan
scalar Mrp8.host4.eth.phyLayer.phyHeaderChecker droppedPacketLengths:vector:stddev nan
scalar Mrp8.host4.eth.phyLayer.phyHeaderChecker droppedPacketLengths:vector:min inf
scalar Mrp8.host4.eth.phyLayer.phyHeaderChecker droppedPacketLengths:vector:max -inf
scalar Mrp8.host4.eth.phyLayer.phyHeaderChecker droppedPacketLengths:vector:starttime nan
scalar Mrp8.host4.eth.phyLayer.phyHeaderChecker droppedPacketLengths:vector:endtime nan
scalar Mrp8.host4.eth.phyLayer.phyHeaderChecker droppedDataRate:vector:count 30
scalar Mrp8.host4.eth.phyLayer.phyHeaderChecker droppedDataRate:vector:sum 0
scalar Mrp8.host4.eth.phyLayer.phyHeaderChecker droppedDataRate:vector:sumweights 30
scalar Mrp8.host4.eth.phyLayer.phyHeaderChecker droppedDataRate:vector:mean 0
scalar Mrp8.host4.eth.phyLayer.phyHeaderChecker droppedDataRate:vector:stddev 0
scalar Mrp8.host4.eth.phyLayer.phyHeaderChecker droppedDataRate:vector:min 0
scalar Mrp8.host4.eth.phyLayer.phyHeaderChecker droppedDataRate:vector:max 0
scalar Mrp8.host4.eth.phyLayer.phyHeaderChecker droppedDataRate:vector:starttime 0.1
scalar Mrp8.host4.eth.phyLayer.phyHeaderChecker droppedDataRate:vector:endtime 3
scalar Mrp8.host4.eth.phyLayer.phyHeaderChecker flowIncomingPacketLengths:vector:count 0
scalar Mrp8.host4.eth.phyLayer.phyHeaderChecker flowIncomingPacketLengths:vector:sum 0
scalar Mrp8.host4.eth.phyLayer.phyHeaderChecker flowIncomingPacketLengths:vector:sumweights 0
scalar Mrp8.host4.eth.phyLayer.phyHeaderChecker flowIncomingPacketLengths:vector:mean -nan
scalar Mrp8.host4.eth.phyLayer.phyHeaderChecker flowIncomingPacketLengths:vector:stddev nan
scalar Mrp8.host4.eth.phyLayer.phyHeaderChecker flowIncomingPacketLengths:vector:min inf
scalar Mrp8.host4.eth.phyLayer.phyHeaderChecker flowIncomingPacketLengths:vector:max -inf
scalar Mrp8.host4.eth.phyLayer.phyHeaderChecker flowIncomingPacketLengths:vector:starttime nan
scalar Mrp8.host4.eth.phyLayer.phyHeaderChecker flowIncomingPacketLengths:vector:endtime nan
scalar Mrp8.host4.eth.phyLayer.phyHeaderChecker flowIncomingDataRate:vector:count 30
scalar Mrp8.host4.eth.phyLayer.phyHeaderChecker flowIncomingDataRate:vector:sum 0
scalar Mrp8.host4.eth.phyLayer.phyHeaderChecker flowIncomingDataRate:vector:sumweights 30
scalar Mrp8.host4.eth.phyLayer.phyHeaderChecker flowIncomingDataRate:vector:mean 0
scalar Mrp8.host4.eth.phyLayer.phyHeaderChecker flowIncomingDataRate:vector:stddev 0
scalar Mrp8.host4.eth.phyLayer.phyHeaderChecker flowIncomingDataRate:vector:min 0
scalar Mrp8.host4.eth.phyLayer.phyHeaderChecker flowIncomingDataRate:vector:max 0
scalar Mrp8.host4.eth.phyLayer.phyHeaderChecker flowIncomingDataRate:vector:starttime 0.1
scalar Mrp8.host4.eth.phyLayer.phyHeaderChecker flowIncomingDataRate:vector:endtime 3
scalar Mrp8.host4.eth.phyLayer.phyHeaderChecker flowOutgoingPacketLengths:vector:count 0
scalar Mrp8.host4.eth.phyLayer.phyHeaderChecker flowOutgoingPacketLengths:vector:sum 0
scalar Mrp8.host4.eth.phyLayer.phyHeaderChecker flowOutgoingPacketLengths:vector:sumweights 0
scalar Mrp8.host4.eth.phyLayer.phyHeaderChecker flowOutgoingPacketLengths:vector:mean -nan
scalar Mrp8.host4.eth.phyLayer.phyHeaderChecker flowOutgoingPacketLengths:vector:stddev nan
scalar Mrp8.host4.eth.phyLayer.phyHeaderChecker flowOutgoingPacketLengths:vector:min inf
scalar Mrp8.host4.eth.phyLayer.phyHeaderChecker flowOutgoingPacketLengths:vector:max -inf
scalar Mrp8.host4.eth.phyLayer.phyHeaderChecker flowOutgoingPacketLengths:vector:starttime nan
scalar Mrp8.host4.eth.phyLayer.phyHeaderChecker flowOutgoingPacketLengths:vector:endtime nan
scalar Mrp8.host4.eth.phyLayer.phyHeaderChecker flowOutgoingDataRate:vector:count 30
scalar Mrp8.host4.eth.phyLayer.phyHeaderChecker flowOutgoingDataRate:vector:sum 0
scalar Mrp8.host4.eth.phyLayer.phyHeaderChecker flowOutgoingDataRate:vector:sumweights 30
scalar Mrp8.host4.eth.phyLayer.phyHeaderChecker flowOutgoingDataRate:vector:mean 0
scalar Mrp8.host4.eth.phyLayer.phyHeaderChecker flowOutgoingDataRate:vector:stddev 0
scalar Mrp8.host4.eth.phyLayer.phyHeaderChecker flowOutgoingDataRate:vector:min 0
scalar Mrp8.host4.eth.phyLayer.phyHeaderChecker flowOutgoingDataRate:vector:max 0
scalar Mrp8.host4.eth.phyLayer.phyHeaderChecker flowOutgoingDataRate:vector:starttime 0.1
scalar Mrp8.host4.eth.phyLayer.phyHeaderChecker flowOutgoingDataRate:vector:endtime 3
scalar Mrp8.host4.eth.phyLayer.phyHeaderChecker flowDroppedPacketLengths:vector:count 0
scalar Mrp8.host4.eth.phyLayer.phyHeaderChecker flowDroppedPacketLengths:vector:sum 0
scalar Mrp8.host4.eth.phyLayer.phyHeaderChecker flowDroppedPacketLengths:vector:sumweights 0
scalar Mrp8.host4.eth.phyLayer.phyHeaderChecker flowDroppedPacketLengths:vector:mean -nan
scalar Mrp8.host4.eth.phyLayer.phyHeaderChecker flowDroppedPacketLengths:vector:stddev nan
scalar Mrp8.host4.eth.phyLayer.phyHeaderChecker flowDroppedPacketLengths:vector:min inf
scalar Mrp8.host4.eth.phyLayer.phyHeaderChecker flowDroppedPacketLengths:vector:max -inf
scalar Mrp8.host4.eth.phyLayer.phyHeaderChecker flowDroppedPacketLengths:vector:starttime nan
scalar Mrp8.host4.eth.phyLayer.phyHeaderChecker flowDroppedPacketLengths:vector:endtime nan
scalar Mrp8.host4.eth.phyLayer.phyHeaderChecker flowDroppedDataRate:vector:count 30
scalar Mrp8.host4.eth.phyLayer.phyHeaderChecker flowDroppedDataRate:vector:sum 0
scalar Mrp8.host4.eth.phyLayer.phyHeaderChecker flowDroppedDataRate:vector:sumweights 30
scalar Mrp8.host4.eth.phyLayer.phyHeaderChecker flowDroppedDataRate:vector:mean 0
scalar Mrp8.host4.eth.phyLayer.phyHeaderChecker flowDroppedDataRate:vector:stddev 0
scalar Mrp8.host4.eth.phyLayer.phyHeaderChecker flowDroppedDataRate:vector:min 0
scalar Mrp8.host4.eth.phyLayer.phyHeaderChecker flowDroppedDataRate:vector:max 0
scalar Mrp8.host4.eth.phyLayer.phyHeaderChecker flowDroppedDataRate:vector:starttime 0.1
scalar Mrp8.host4.eth.phyLayer.phyHeaderChecker flowDroppedDataRate:vector:endtime 3
scalar Mrp8.host4.eth.phyLayer.inboundEmitter incomingPacketLengths:vector:count 2773
scalar Mrp8.host4.eth.phyLayer.inboundEmitter incomingPacketLengths:vector:sum 21451928
scalar Mrp8.host4.eth.phyLayer.inboundEmitter incomingPacketLengths:vector:sumweights 2773
scalar Mrp8.host4.eth.phyLayer.inboundEmitter incomingPacketLengths:vector:mean 7736
scalar Mrp8.host4.eth.phyLayer.inboundEmitter incomingPacketLengths:vector:stddev 0
scalar Mrp8.host4.eth.phyLayer.inboundEmitter incomingPacketLengths:vector:min 7736
scalar Mrp8.host4.eth.phyLayer.inboundEmitter incomingPacketLengths:vector:max 7736
scalar Mrp8.host4.eth.phyLayer.inboundEmitter incomingPacketLengths:vector:starttime 0.50033
scalar Mrp8.host4.eth.phyLayer.inboundEmitter incomingPacketLengths:vector:endtime 2.999429
scalar Mrp8.host4.eth.phyLayer.inboundEmitter incomingDataRate:vector:count 36
scalar Mrp8.host4.eth.phyLayer.inboundEmitter incomingDataRate:vector:sum 303419376.17879
scalar Mrp8.host4.eth.phyLayer.inboundEmitter incomingDataRate:vector:sumweights 36
scalar Mrp8.host4.eth.phyLayer.inboundEmitter incomingDataRate:vector:mean 8428316.0049665
scalar Mrp8.host4.eth.phyLayer.inboundEmitter incomingDataRate:vector:stddev 5435513.2010226
scalar Mrp8.host4.eth.phyLayer.inboundEmitter incomingDataRate:vector:min 0
scalar Mrp8.host4.eth.phyLayer.inboundEmitter incomingDataRate:vector:max 15498085.887137
scalar Mrp8.host4.eth.phyLayer.inboundEmitter incomingDataRate:vector:starttime 0.1
scalar Mrp8.host4.eth.phyLayer.inboundEmitter incomingDataRate:vector:endtime 3
scalar Mrp8.host4.eth.phyLayer.inboundEmitter outgoingPacketLengths:vector:count 2773
scalar Mrp8.host4.eth.phyLayer.inboundEmitter outgoingPacketLengths:vector:sum 21451928
scalar Mrp8.host4.eth.phyLayer.inboundEmitter outgoingPacketLengths:vector:sumweights 2773
scalar Mrp8.host4.eth.phyLayer.inboundEmitter outgoingPacketLengths:vector:mean 7736
scalar Mrp8.host4.eth.phyLayer.inboundEmitter outgoingPacketLengths:vector:stddev 0
scalar Mrp8.host4.eth.phyLayer.inboundEmitter outgoingPacketLengths:vector:min 7736
scalar Mrp8.host4.eth.phyLayer.inboundEmitter outgoingPacketLengths:vector:max 7736
scalar Mrp8.host4.eth.phyLayer.inboundEmitter outgoingPacketLengths:vector:starttime 0.50033
scalar Mrp8.host4.eth.phyLayer.inboundEmitter outgoingPacketLengths:vector:endtime 2.999429
scalar Mrp8.host4.eth.phyLayer.inboundEmitter outgoingDataRate:vector:count 36
scalar Mrp8.host4.eth.phyLayer.inboundEmitter outgoingDataRate:vector:sum 303419376.17879
scalar Mrp8.host4.eth.phyLayer.inboundEmitter outgoingDataRate:vector:sumweights 36
scalar Mrp8.host4.eth.phyLayer.inboundEmitter outgoingDataRate:vector:mean 8428316.0049665
scalar Mrp8.host4.eth.phyLayer.inboundEmitter outgoingDataRate:vector:stddev 5435513.2010226
scalar Mrp8.host4.eth.phyLayer.inboundEmitter outgoingDataRate:vector:min 0
scalar Mrp8.host4.eth.phyLayer.inboundEmitter outgoingDataRate:vector:max 15498085.887137
scalar Mrp8.host4.eth.phyLayer.inboundEmitter outgoingDataRate:vector:starttime 0.1
scalar Mrp8.host4.eth.phyLayer.inboundEmitter outgoingDataRate:vector:endtime 3
scalar Mrp8.host4.eth.phyLayer.inboundEmitter flowIncomingPacketLengths:vector:count 0
scalar Mrp8.host4.eth.phyLayer.inboundEmitter flowIncomingPacketLengths:vector:sum 0
scalar Mrp8.host4.eth.phyLayer.inboundEmitter flowIncomingPacketLengths:vector:sumweights 0
scalar Mrp8.host4.eth.phyLayer.inboundEmitter flowIncomingPacketLengths:vector:mean -nan
scalar Mrp8.host4.eth.phyLayer.inboundEmitter flowIncomingPacketLengths:vector:stddev nan
scalar Mrp8.host4.eth.phyLayer.inboundEmitter flowIncomingPacketLengths:vector:min inf
scalar Mrp8.host4.eth.phyLayer.inboundEmitter flowIncomingPacketLengths:vector:max -inf
scalar Mrp8.host4.eth.phyLayer.inboundEmitter flowIncomingPacketLengths:vector:starttime nan
scalar Mrp8.host4.eth.phyLayer.inboundEmitter flowIncomingPacketLengths:vector:endtime nan
scalar Mrp8.host4.eth.phyLayer.inboundEmitter flowIncomingDataRate:vector:count 30
scalar Mrp8.host4.eth.phyLayer.inboundEmitter flowIncomingDataRate:vector:sum 0
scalar Mrp8.host4.eth.phyLayer.inboundEmitter flowIncomingDataRate:vector:sumweights 30
scalar Mrp8.host4.eth.phyLayer.inboundEmitter flowIncomingDataRate:vector:mean 0
scalar Mrp8.host4.eth.phyLayer.inboundEmitter flowIncomingDataRate:vector:stddev 0
scalar Mrp8.host4.eth.phyLayer.inboundEmitter flowIncomingDataRate:vector:min 0
scalar Mrp8.host4.eth.phyLayer.inboundEmitter flowIncomingDataRate:vector:max 0
scalar Mrp8.host4.eth.phyLayer.inboundEmitter flowIncomingDataRate:vector:starttime 0.1
scalar Mrp8.host4.eth.phyLayer.inboundEmitter flowIncomingDataRate:vector:endtime 3
scalar Mrp8.host4.eth.phyLayer.inboundEmitter flowOutgoingPacketLengths:vector:count 0
scalar Mrp8.host4.eth.phyLayer.inboundEmitter flowOutgoingPacketLengths:vector:sum 0
scalar Mrp8.host4.eth.phyLayer.inboundEmitter flowOutgoingPacketLengths:vector:sumweights 0
scalar Mrp8.host4.eth.phyLayer.inboundEmitter flowOutgoingPacketLengths:vector:mean -nan
scalar Mrp8.host4.eth.phyLayer.inboundEmitter flowOutgoingPacketLengths:vector:stddev nan
scalar Mrp8.host4.eth.phyLayer.inboundEmitter flowOutgoingPacketLengths:vector:min inf
scalar Mrp8.host4.eth.phyLayer.inboundEmitter flowOutgoingPacketLengths:vector:max -inf
scalar Mrp8.host4.eth.phyLayer.inboundEmitter flowOutgoingPacketLengths:vector:starttime nan
scalar Mrp8.host4.eth.phyLayer.inboundEmitter flowOutgoingPacketLengths:vector:endtime nan
scalar Mrp8.host4.eth.phyLayer.inboundEmitter flowOutgoingDataRate:vector:count 30
scalar Mrp8.host4.eth.phyLayer.inboundEmitter flowOutgoingDataRate:vector:sum 0
scalar Mrp8.host4.eth.phyLayer.inboundEmitter flowOutgoingDataRate:vector:sumweights 30
scalar Mrp8.host4.eth.phyLayer.inboundEmitter flowOutgoingDataRate:vector:mean 0
scalar Mrp8.host4.eth.phyLayer.inboundEmitter flowOutgoingDataRate:vector:stddev 0
scalar Mrp8.host4.eth.phyLayer.inboundEmitter flowOutgoingDataRate:vector:min 0
scalar Mrp8.host4.eth.phyLayer.inboundEmitter flowOutgoingDataRate:vector:max 0
scalar Mrp8.host4.eth.phyLayer.inboundEmitter flowOutgoingDataRate:vector:starttime 0.1
scalar Mrp8.host4.eth.phyLayer.inboundEmitter flowOutgoingDataRate:vector:endtime 3
scalar Mrp8.host4.eth.phyLayer.receiver throughput:vector:count 36
scalar Mrp8.host4.eth.phyLayer.receiver throughput:vector:sum 303419376.17879
scalar Mrp8.host4.eth.phyLayer.receiver throughput:vector:sumweights 36
scalar Mrp8.host4.eth.phyLayer.receiver throughput:vector:mean 8428316.0049665
scalar Mrp8.host4.eth.phyLayer.receiver throughput:vector:stddev 5435513.2010226
scalar Mrp8.host4.eth.phyLayer.receiver throughput:vector:min 0
scalar Mrp8.host4.eth.phyLayer.receiver throughput:vector:max 15498085.887137
scalar Mrp8.host4.eth.phyLayer.receiver throughput:vector:starttime 0.1
scalar Mrp8.host4.eth.phyLayer.receiver throughput:vector:endtime 3
scalar Mrp8.host4.eth.phyLayer.receiver receptionTime:vector:count 2773
scalar Mrp8.host4.eth.phyLayer.receiver receptionTime:vector:sum 0.213521
scalar Mrp8.host4.eth.phyLayer.receiver receptionTime:vector:sumweights 2773
scalar Mrp8.host4.eth.phyLayer.receiver receptionTime:vector:mean 7.6999999999999e-05
scalar Mrp8.host4.eth.phyLayer.receiver receptionTime:vector:stddev 0
scalar Mrp8.host4.eth.phyLayer.receiver receptionTime:vector:min 7.7e-05
scalar Mrp8.host4.eth.phyLayer.receiver receptionTime:vector:max 7.7e-05
scalar Mrp8.host4.eth.phyLayer.receiver receptionTime:vector:starttime 0.50033
scalar Mrp8.host4.eth.phyLayer.receiver receptionTime:vector:endtime 2.999429
scalar Mrp8.host4.eth.phyLayer.receiver flowReceptionTime:vector:count 0
scalar Mrp8.host4.eth.phyLayer.receiver flowReceptionTime:vector:sum 0
scalar Mrp8.host4.eth.phyLayer.receiver flowReceptionTime:vector:sumweights 0
scalar Mrp8.host4.eth.phyLayer.receiver flowReceptionTime:vector:mean -nan
scalar Mrp8.host4.eth.phyLayer.receiver flowReceptionTime:vector:stddev nan
scalar Mrp8.host4.eth.phyLayer.receiver flowReceptionTime:vector:min inf
scalar Mrp8.host4.eth.phyLayer.receiver flowReceptionTime:vector:max -inf
scalar Mrp8.host4.eth.phyLayer.receiver flowReceptionTime:vector:starttime nan
scalar Mrp8.host4.eth.phyLayer.receiver flowReceptionTime:vector:endtime nan
scalar Mrp8.host4.eth packetDropInterfaceDown:vector(packetBytes):count 0
scalar Mrp8.host4.eth packetDropInterfaceDown:vector(packetBytes):sum 0
scalar Mrp8.host4.eth packetDropInterfaceDown:vector(packetBytes):sumweights 0
scalar Mrp8.host4.eth packetDropInterfaceDown:vector(packetBytes):mean -nan
scalar Mrp8.host4.eth packetDropInterfaceDown:vector(packetBytes):stddev nan
scalar Mrp8.host4.eth packetDropInterfaceDown:vector(packetBytes):min inf
scalar Mrp8.host4.eth packetDropInterfaceDown:vector(packetBytes):max -inf
scalar Mrp8.host4.eth packetDropInterfaceDown:vector(packetBytes):starttime nan
scalar Mrp8.host4.eth packetDropInterfaceDown:vector(packetBytes):endtime nan
scalar Mrp8.host4.eth packetDropNoCarrier:vector(packetBytes):count 0
scalar Mrp8.host4.eth packetDropNoCarrier:vector(packetBytes):sum 0
scalar Mrp8.host4.eth packetDropNoCarrier:vector(packetBytes):sumweights 0
scalar Mrp8.host4.eth packetDropNoCarrier:vector(packetBytes):mean -nan
scalar Mrp8.host4.eth packetDropNoCarrier:vector(packetBytes):stddev nan
scalar Mrp8.host4.eth packetDropNoCarrier:vector(packetBytes):min inf
scalar Mrp8.host4.eth packetDropNoCarrier:vector(packetBytes):max -inf
scalar Mrp8.host4.eth packetDropNoCarrier:vector(packetBytes):starttime nan
scalar Mrp8.host4.eth packetDropNoCarrier:vector(packetBytes):endtime nan

