version 3
run MediumNetworkLCWithTraffic-0-20241113-17:20:55-150556
attr configname MediumNetworkLCWithTraffic
attr datetime 20241113-17:20:55
attr datetimef 20241113-172055
attr experiment MediumNetworkLCWithTraffic
attr inifile omnetpp.ini
attr iterationvars "$timingProfile=500, $ccmInterval=10"
attr iterationvarsd timingProfile=500/ccmInterval=10
attr iterationvarsf timingProfile=500,ccmInterval=10-
attr measurement "$timingProfile=500, $ccmInterval=10"
attr network Mrp8
attr processid 150556
attr repetition 0
attr replication #0
attr resultdir results
attr runnumber 0
attr seedset 0
itervar ccmInterval 10
itervar timingProfile 500
config **.param-recording false
config **.vector-recording false
config image-path /home/levy/workspace/inet/images
config output-scalar-file results/omnetpp.ini-MediumNetworkLCWithTraffic-#0.sca
config sim-time-limit 3s
config extends MediumNetworkBaseWithTraffic
config **.mrp.interconnectionCheckMode "\"LC\""
config extends MediumNetworkBase
config **.cli.startTime 500ms
config **.cli.sendInterval 1ms
config **.host*.encap.typename ""
config **.host*.llc.typename Ieee8022Llc
config **.host*.eth.typename LayeredEthernetInterface
config **.host*.ethernet.typename EthernetLayer
config **.cli.reqLength 938B
config **.cli.respLength 938B
config **.host1.cli.destAddress "\"host3\""
config **.host2.cli.destAddress "\"host4\""
config **.host3.cli.destAddress "\"host2\""
config **.host4.cli.destAddress "\"host1\""
config description "8 Nodes - 2 Rings"
config network Mrp8
config **.hasStatus true
config **.script "xmldoc(\"scripts.xml\", \"//script[@id='MediumNetwork-disconnect']\")"
config **.numEthInterfaces 3
config *.node{3,5}.mrp.mrpRole "\"MRM\""
config **.mrp.mrpRole "\"MRC\""
config *.node{0,2,4,6}.mrp.typename MrpInterconnection
config *.node0.mrp.interconnectionRole "\"MIM\""
config *.node*.mrp.interconnectionRole "\"MIC\""
config *.node{0..3}.mrp.uuid0 111
config *.node{0..3}.mrp.uuid1 111
config *.node{4..7}.mrp.uuid0 222
config *.node{4..7}.mrp.uuid1 222
config **.mrp.timingProfile "500 ms"
config **.mrp.ccmInterval "10 ms"
config sim-time-limit 3s
config simtime-resolution us
config **.numEthInterfaces 2
config **.mrp.uuid0 333
config **.mrp.uuid1 999
config **.channel.delay 500ns
config **.bitrate 100Mbps
config **.mtu 1500B
config *.visualizer.infoVisualizer.modules "\"*.*.mrp\""
config *.visualizer.infoVisualizer.format "\"%t\""
config *.visualizer.infoVisualizer.placementHint "\"topCenter\""
config *.visualizer.infoVisualizer.textColor "\"blue\""
config *.visualizer.infoVisualizer.textAlignment "\"center\""
config *.visualizer.infoVisualizer.backgroundColor "\"\""
config *.visualizer.infoVisualizer.lineColor "\"\""
config **.annotationSpacing 0

scalar Mrp8.node0.bridging "processed frames" 0
scalar Mrp8.node0.bridging "discarded frames" 2319
scalar Mrp8.node0.bridging "number of received BPDUs from STP module" 0
scalar Mrp8.node0.bridging "number of received frames from network (including BPDUs)" 0
scalar Mrp8.node0.bridging "number of dropped frames (including BPDUs)" 2319
scalar Mrp8.node0.bridging "number of delivered BPDUs to the STP module" 0
scalar Mrp8.node0.bridging "number of dispatched BPDU frames to the network" 0
scalar Mrp8.node0.bridging "number of dispatched non-BDPU frames to the network" 0
scalar Mrp8.node0.bridging "number of received PDUs from MRP module" 0
scalar Mrp8.node0.bridging "number of received frames from network (including PDUs)" 9099
scalar Mrp8.node0.bridging "number of dropped frames (including PDUs)" 2319
scalar Mrp8.node0.bridging "number of delivered PDUs to the MRP module" 106
scalar Mrp8.node0.bridging "number of dispatched MRP frames to the network" 180
scalar Mrp8.node0.bridging "number of dispatched non-MRP frames to the network" 7608
scalar Mrp8.node0.bridging packetDropped:count 2319
attr interpolationmode none
attr recordingmode count
attr title "packets dropped, count"
scalar Mrp8.node0.bridging packetDropped:sum(packetBytes) 2182179
attr interpolationmode none
attr recordingmode sum(packetBytes)
attr title "packets dropped, sum(packetBytes)"
scalar Mrp8.node0.ethernet pauseSent:count 0
attr recordingmode count
attr title "pause sent, count"
scalar Mrp8.node0.ethernet pauseSent:sum 0
attr recordingmode sum
attr title "pause sent, sum"
scalar Mrp8.node0.ethernet decapPk:count 9099
attr interpolationmode none
attr recordingmode count
attr source decapPk
attr title "packets decapsulated, count"
scalar Mrp8.node0.ethernet decapPk:sum(packetBytes) 8108651
attr interpolationmode none
attr recordingmode sum(packetBytes)
attr source decapPk
attr title "packets decapsulated, sum(packetBytes)"
scalar Mrp8.node0.ethernet encapPk:count 6794
attr interpolationmode none
attr recordingmode count
attr source encapPk
attr title "packets encapsulated, count"
scalar Mrp8.node0.ethernet encapPk:sum(packetBytes) 5928722
attr interpolationmode none
attr recordingmode sum(packetBytes)
attr source encapPk
attr title "packets encapsulated, sum(packetBytes)"
scalar Mrp8.node0.eth[0].queue queueLength:last 0
attr autoWarmupFilter false
attr interpolationmode sample-hold
attr recordingmode last
attr source "warmup(atomic(constant0(packetPushEnded) + count(packetPushStarted) - count(packetPulled) - count(packetRemoved) - count(packetDropped)))"
attr title "queue length, last"
attr unit pk
scalar Mrp8.node0.eth[0].queue queueLength:max 1
attr autoWarmupFilter false
attr interpolationmode sample-hold
attr recordingmode max
attr source "warmup(atomic(constant0(packetPushEnded) + count(packetPushStarted) - count(packetPulled) - count(packetRemoved) - count(packetDropped)))"
attr title "queue length, max"
attr unit pk
scalar Mrp8.node0.eth[0].queue queueLength:timeavg 2.3333333333333e-06
attr autoWarmupFilter false
attr interpolationmode sample-hold
attr recordingmode timeavg
attr source "warmup(atomic(constant0(packetPushEnded) + count(packetPushStarted) - count(packetPulled) - count(packetRemoved) - count(packetDropped)))"
attr title "queue length, timeavg"
attr unit pk
scalar Mrp8.node0.eth[0].queue queueBitLength:last 0
attr autoWarmupFilter false
attr interpolationmode sample-hold
attr recordingmode last
attr source "warmup(atomic(constant0(packetPushEnded) + sum(packetLength(packetPushStarted)) - sum(packetLength(packetPulled)) - sum(packetLength(packetRemoved)) - sum(packetLength(packetDropped))))"
attr title "queue bit length, last"
attr unit b
scalar Mrp8.node0.eth[0].queue queueBitLength:max 496
attr autoWarmupFilter false
attr interpolationmode sample-hold
attr recordingmode max
attr source "warmup(atomic(constant0(packetPushEnded) + sum(packetLength(packetPushStarted)) - sum(packetLength(packetPulled)) - sum(packetLength(packetRemoved)) - sum(packetLength(packetDropped))))"
attr title "queue bit length, max"
attr unit b
scalar Mrp8.node0.eth[0].queue queueBitLength:timeavg 0.0011573333333333
attr autoWarmupFilter false
attr interpolationmode sample-hold
attr recordingmode timeavg
attr source "warmup(atomic(constant0(packetPushEnded) + sum(packetLength(packetPushStarted)) - sum(packetLength(packetPulled)) - sum(packetLength(packetRemoved)) - sum(packetLength(packetDropped))))"
attr title "queue bit length, timeavg"
attr unit b
statistic Mrp8.node0.eth[0].queue queueingTime:histogram
field count 1717
field mean 4.0768782760629e-09
field stddev 1.2063222598637e-07
field min 0
field max 4e-06
field sum 7e-06
field sqrsum 2.5e-11
attr interpolationmode none
attr recordingmode histogram
attr source queueingTime(packetPulled)
attr title "queueing times"
attr unit s
bin	-inf	0
bin	0	1715
bin	1e-07	0
bin	2e-07	0
bin	3e-07	0
bin	4e-07	0
bin	5e-07	0
bin	6e-07	0
bin	7e-07	0
bin	8e-07	0
bin	9e-07	0
bin	1e-06	0
bin	1.1e-06	0
bin	1.2e-06	0
bin	1.3e-06	0
bin	1.4e-06	0
bin	1.5e-06	0
bin	1.6e-06	0
bin	1.7e-06	0
bin	1.8e-06	0
bin	1.9e-06	0
bin	2e-06	0
bin	2.1e-06	0
bin	2.2e-06	0
bin	2.3e-06	0
bin	2.4e-06	0
bin	2.5e-06	0
bin	2.6e-06	0
bin	2.7e-06	0
bin	2.8e-06	0
bin	2.9e-06	1
bin	3e-06	0
bin	3.1e-06	0
bin	3.2e-06	0
bin	3.3e-06	0
bin	3.4e-06	0
bin	3.5e-06	0
bin	3.6e-06	0
bin	3.7e-06	0
bin	3.8e-06	0
bin	3.9e-06	1
bin	4e-06	0
bin	4.1e-06	0
bin	4.2e-06	0
bin	4.3e-06	0
bin	4.4e-06	0
bin	4.5e-06	0
bin	4.6e-06	0
bin	4.7e-06	0
bin	4.8e-06	0
bin	4.9e-06	0
bin	5e-06	0
scalar Mrp8.node0.eth[0].queue outgoingPackets:count 1717
attr recordingmode count
attr source packetPulled
attr title "outgoing packets, count"
attr unit pk
scalar Mrp8.node0.eth[0].queue outgoingPacketLengths:sum 12516664
attr interpolationmode none
attr recordingmode sum
attr source packetLength(packetPulled)
attr title "outgoing packet lengths, sum"
attr unit b
statistic Mrp8.node0.eth[0].queue outgoingPacketLengths:histogram
field count 1717
field mean 7289.8450786255
field stddev 1606.581343935
field min 496
field max 7672
field sum 12516664
field sqrsum 95673715264
attr interpolationmode none
attr recordingmode histogram
attr source packetLength(packetPulled)
attr title "outgoing packet lengths"
attr unit b
bin	-inf	0
bin	0	0
bin	200	0
bin	400	92
bin	600	0
bin	800	0
bin	1000	0
bin	1200	0
bin	1400	0
bin	1600	0
bin	1800	0
bin	2000	0
bin	2200	0
bin	2400	0
bin	2600	0
bin	2800	0
bin	3000	0
bin	3200	0
bin	3400	0
bin	3600	0
bin	3800	0
bin	4000	0
bin	4200	0
bin	4400	0
bin	4600	0
bin	4800	0
bin	5000	0
bin	5200	0
bin	5400	0
bin	5600	0
bin	5800	0
bin	6000	0
bin	6200	0
bin	6400	0
bin	6600	0
bin	6800	0
bin	7000	0
bin	7200	0
bin	7400	0
bin	7600	1625
bin	7800	0
bin	8000	0
bin	8200	0
bin	8400	0
bin	8600	0
bin	8800	0
bin	9000	0
bin	9200	0
bin	9400	0
bin	9600	0
statistic Mrp8.node0.eth[0].queue flowQueueingTime:histogram
field count 0
field mean -nan
field stddev nan
field min nan
field max nan
field sum 0
field sqrsum 0
attr interpolationmode none
attr recordingmode histogram
attr source queueingTime(demuxFlow(packetPulled))
attr title "flow queueing times"
attr unit s
bin	-inf	0
bin	0	0
bin	1	0
scalar Mrp8.node0.eth[0].queue incomingPackets:count 1717
attr recordingmode count
attr source packetPushStarted
attr title "incoming packets, count"
attr unit pk
scalar Mrp8.node0.eth[0].queue incomingPacketLengths:sum 12516664
attr interpolationmode none
attr recordingmode sum
attr source packetLength(packetPushStarted)
attr title "incoming packet lengths, sum"
attr unit b
statistic Mrp8.node0.eth[0].queue incomingPacketLengths:histogram
field count 1717
field mean 7289.8450786255
field stddev 1606.581343935
field min 496
field max 7672
field sum 12516664
field sqrsum 95673715264
attr interpolationmode none
attr recordingmode histogram
attr source packetLength(packetPushStarted)
attr title "incoming packet lengths"
attr unit b
bin	-inf	0
bin	0	0
bin	200	0
bin	400	92
bin	600	0
bin	800	0
bin	1000	0
bin	1200	0
bin	1400	0
bin	1600	0
bin	1800	0
bin	2000	0
bin	2200	0
bin	2400	0
bin	2600	0
bin	2800	0
bin	3000	0
bin	3200	0
bin	3400	0
bin	3600	0
bin	3800	0
bin	4000	0
bin	4200	0
bin	4400	0
bin	4600	0
bin	4800	0
bin	5000	0
bin	5200	0
bin	5400	0
bin	5600	0
bin	5800	0
bin	6000	0
bin	6200	0
bin	6400	0
bin	6600	0
bin	6800	0
bin	7000	0
bin	7200	0
bin	7400	0
bin	7600	1625
bin	7800	0
bin	8000	0
bin	8200	0
bin	8400	0
bin	8600	0
bin	8800	0
bin	9000	0
bin	9200	0
bin	9400	0
bin	9600	0
scalar Mrp8.node0.eth[0].queue droppedPacketsQueueOverflow:count 0
attr interpolationmode none
attr recordingmode count
attr source packetDropReasonIsQueueOverflow(packetDropped)
attr title "dropped packets: queue overflow, count"
attr unit pk
scalar Mrp8.node0.eth[0].queue droppedPacketLengthsQueueOverflow:sum 0
attr interpolationmode none
attr recordingmode sum
attr source packetLength(packetDropReasonIsQueueOverflow(packetDropped))
attr title "dropped packet lengths: queue overflow, sum"
attr unit b
scalar Mrp8.node0.eth[0].mac "simulated time" 3
scalar Mrp8.node0.eth[0].mac full-duplex 1
scalar Mrp8.node0.eth[0].mac "frames/sec sent" 572.33333333333
scalar Mrp8.node0.eth[0].mac "frames/sec rcvd" 1122.3333333333
scalar Mrp8.node0.eth[0].mac "bits/sec sent" 4172376
scalar Mrp8.node0.eth[0].mac "bits/sec rcvd" 8358584
scalar Mrp8.node0.eth[0].mac "rx channel idle (%)" 91.6089
scalar Mrp8.node0.eth[0].mac "rx channel utilization (%)" 8.3911
scalar Mrp8.node0.eth[0].mac rxPausePkUnits:count 0
attr interpolationmode none
attr recordingmode count
attr title "pause units received, count"
scalar Mrp8.node0.eth[0].mac rxPausePkUnits:sum 0
attr interpolationmode none
attr recordingmode sum
attr title "pause units received, sum"
scalar Mrp8.node0.eth[0].mac txPausePkUnits:count 0
attr interpolationmode none
attr recordingmode count
attr title "pause units sent, count"
scalar Mrp8.node0.eth[0].mac txPausePkUnits:sum 0
attr interpolationmode none
attr recordingmode sum
attr title "pause units sent, sum"
scalar Mrp8.node0.eth[0].mac rxPkOk:count 3367
attr interpolationmode none
attr recordingmode count
attr source rxPkOk
attr title "packets received OK, count"
scalar Mrp8.node0.eth[0].mac rxPkOk:sum(packetBytes) 3134469
attr interpolationmode none
attr recordingmode sum(packetBytes)
attr source rxPkOk
attr title "packets received OK, sum(packetBytes)"
statistic Mrp8.node0.eth[0].mac throughput:histogram
field count 37
field mean 5964556.4240579
field stddev 7030527.2372115
field min 0
field max 15567317.261409
field sum 220688587.69014
field sqrsum 3.0957288098177e+15
attr interpolationmode linear
attr recordingmode histogram
attr source throughput(transmissionEnded)
attr title throughput
attr unit bps
bin	-inf	0
bin	0	18
bin	200000	0
bin	400000	0
bin	600000	0
bin	800000	0
bin	1000000	0
bin	1200000	0
bin	1400000	0
bin	1600000	0
bin	1800000	1
bin	2000000	1
bin	2200000	0
bin	2400000	0
bin	2600000	1
bin	2800000	0
bin	3000000	0
bin	3200000	0
bin	3400000	0
bin	3600000	0
bin	3800000	0
bin	4000000	0
bin	4200000	0
bin	4400000	1
bin	4600000	0
bin	4800000	0
bin	5000000	0
bin	5200000	0
bin	5400000	0
bin	5600000	0
bin	5800000	0
bin	6000000	0
bin	6200000	0
bin	6400000	0
bin	6600000	0
bin	6800000	0
bin	7000000	0
bin	7200000	0
bin	7400000	0
bin	7600000	3
bin	7800000	0
bin	8000000	0
bin	8200000	0
bin	8400000	0
bin	8600000	0
bin	8800000	0
bin	9000000	0
bin	9200000	0
bin	9400000	0
bin	9600000	0
bin	9800000	0
bin	10000000	0
bin	10200000	0
bin	10400000	0
bin	10600000	0
bin	10800000	0
bin	11000000	0
bin	11200000	0
bin	11400000	0
bin	11600000	0
bin	11800000	0
bin	12000000	0
bin	12200000	0
bin	12400000	0
bin	12600000	0
bin	12800000	0
bin	13000000	0
bin	13200000	0
bin	13400000	0
bin	13600000	0
bin	13800000	0
bin	14000000	0
bin	14200000	0
bin	14400000	0
bin	14600000	0
bin	14800000	0
bin	15000000	0
bin	15200000	1
bin	15400000	11
bin	15600000	0
bin	15800000	0
bin	16000000	0
bin	16200000	0
bin	16400000	0
bin	16600000	0
bin	16800000	0
bin	17000000	0
bin	17200000	0
bin	17400000	0
bin	17600000	0
bin	17800000	0
bin	18000000	0
bin	18200000	0
bin	18400000	0
bin	18600000	0
bin	18800000	0
bin	19000000	0
bin	19200000	0
bin	19400000	0
bin	19600000	0
statistic Mrp8.node0.eth[0].mac utilization:histogram
field count 37
field mean 5.937147240489
field stddev 6.9942728609045
field min 0
field max 15.527042390775
field sum 219.67444789809
field sqrsum 3065.3542448444
attr interpolationmode linear
attr recordingmode histogram
attr source "100 * utilization(count(transmissionStarted) - count(transmissionEnded))"
attr title utilization
attr unit %
bin	-inf	0
bin	0	18
bin	0.2	0
bin	0.4	0
bin	0.6	0
bin	0.8	0
bin	1	0
bin	1.2	0
bin	1.4	0
bin	1.6	0
bin	1.8	1
bin	2	1
bin	2.2	0
bin	2.4	0
bin	2.6	1
bin	2.8	0
bin	3	0
bin	3.2	0
bin	3.4	0
bin	3.6	0
bin	3.8	0
bin	4	0
bin	4.2	0
bin	4.4	1
bin	4.6	0
bin	4.8	0
bin	5	0
bin	5.2	0
bin	5.4	0
bin	5.6	0
bin	5.8	0
bin	6	0
bin	6.2	0
bin	6.4	0
bin	6.6	0
bin	6.8	0
bin	7	0
bin	7.2	0
bin	7.4	0
bin	7.6	3
bin	7.8	0
bin	8	0
bin	8.2	0
bin	8.4	0
bin	8.6	0
bin	8.8	0
bin	9	0
bin	9.2	0
bin	9.4	0
bin	9.6	0
bin	9.8	0
bin	10	0
bin	10.2	0
bin	10.4	0
bin	10.6	0
bin	10.8	0
bin	11	0
bin	11.2	0
bin	11.4	0
bin	11.6	0
bin	11.8	0
bin	12	0
bin	12.2	0
bin	12.4	0
bin	12.6	0
bin	12.8	0
bin	13	0
bin	13.2	0
bin	13.4	0
bin	13.6	0
bin	13.8	0
bin	14	0
bin	14.2	0
bin	14.4	0
bin	14.6	0
bin	14.8	0
bin	15	0
bin	15.2	6
bin	15.4	6
bin	15.6	0
bin	15.8	0
bin	16	0
bin	16.2	0
bin	16.4	0
bin	16.6	0
bin	16.8	0
bin	17	0
bin	17.2	0
bin	17.4	0
bin	17.6	0
bin	17.8	0
bin	18	0
bin	18.2	0
bin	18.4	0
bin	18.6	0
bin	18.8	0
bin	19	0
bin	19.2	0
bin	19.4	0
bin	19.6	0
scalar Mrp8.node0.eth[0].mac txPk:count 1717
attr interpolationmode none
attr recordingmode count
attr source packetSentToLower
attr title "packets transmitted, count"
scalar Mrp8.node0.eth[0].mac txPk:sum(packetBytes) 1564641
attr interpolationmode none
attr recordingmode sum(packetBytes)
attr source packetSentToLower
attr title "packets transmitted, sum(packetBytes)"
scalar Mrp8.node0.eth[0].mac packetReceivedFromUpper:count 1717
attr interpolationmode none
attr recordingmode count
attr source packetReceivedFromUpper
attr title "packet bytes from higher layer, count"
scalar Mrp8.node0.eth[0].mac packetReceivedFromUpper:sum(packetBytes) 1564583
attr interpolationmode none
attr recordingmode sum(packetBytes)
attr source packetReceivedFromUpper
attr title "packet bytes from higher layer, sum(packetBytes)"
scalar Mrp8.node0.eth[0].mac passedUpPk:count 3367
attr interpolationmode none
attr recordingmode count
attr source packetSentToUpper
attr title "packets passed to higher layer, count"
scalar Mrp8.node0.eth[0].mac passedUpPk:sum(packetBytes) 3134469
attr interpolationmode none
attr recordingmode sum(packetBytes)
attr source packetSentToUpper
attr title "packets passed to higher layer, sum(packetBytes)"
scalar Mrp8.node0.eth[0].mac packetDropIncorrectlyReceived:count 0
attr interpolationmode none
attr recordingmode count
attr source packetDropReasonIsIncorrectlyReceived(packetDropped)
attr title "packet drop: incorrectly received, count"
scalar Mrp8.node0.eth[0].mac packetDropIncorrectlyReceived:sum(packetBytes) 0
attr interpolationmode none
attr recordingmode sum(packetBytes)
attr source packetDropReasonIsIncorrectlyReceived(packetDropped)
attr title "packet drop: incorrectly received, sum(packetBytes)"
scalar Mrp8.node0.eth[0].mac packetDropInterfaceDown:count 0
attr interpolationmode none
attr recordingmode count
attr source packetDropReasonIsInterfaceDown(packetDropped)
attr title "packet drop: interface down, count"
scalar Mrp8.node0.eth[0].mac packetDropInterfaceDown:sum(packetBytes) 0
attr interpolationmode none
attr recordingmode sum(packetBytes)
attr source packetDropReasonIsInterfaceDown(packetDropped)
attr title "packet drop: interface down, sum(packetBytes)"
scalar Mrp8.node0.eth[0].mac packetDropNotAddressedToUs:count 0
attr interpolationmode none
attr recordingmode count
attr source packetDropReasonIsNotAddressedToUs(packetDropped)
attr title "packet drop: not addressed to us, count"
scalar Mrp8.node0.eth[0].mac packetDropNotAddressedToUs:sum(packetBytes) 0
attr interpolationmode none
attr recordingmode sum(packetBytes)
attr source packetDropReasonIsNotAddressedToUs(packetDropped)
attr title "packet drop: not addressed to us, sum(packetBytes)"
scalar Mrp8.node0.eth[0] packetDropInterfaceDown:count 0
attr interpolationmode none
attr recordingmode count
attr source packetDropReasonIsInterfaceDown(packetDropped)
attr title "packet drops: interface down, count"
scalar Mrp8.node0.eth[0] packetDropInterfaceDown:sum(packetBytes) 0
attr interpolationmode none
attr recordingmode sum(packetBytes)
attr source packetDropReasonIsInterfaceDown(packetDropped)
attr title "packet drops: interface down, sum(packetBytes)"
scalar Mrp8.node0.eth[0] packetDropNoCarrier:count 0
attr interpolationmode none
attr recordingmode count
attr source packetDropReasonIsNoCarrier(packetDropped)
attr title "packet drops: no carrier, count"
scalar Mrp8.node0.eth[0] packetDropNoCarrier:sum(packetBytes) 0
attr interpolationmode none
attr recordingmode sum(packetBytes)
attr source packetDropReasonIsNoCarrier(packetDropped)
attr title "packet drops: no carrier, sum(packetBytes)"
scalar Mrp8.node0.eth[1].queue queueLength:last 0
attr autoWarmupFilter false
attr interpolationmode sample-hold
attr recordingmode last
attr source "warmup(atomic(constant0(packetPushEnded) + count(packetPushStarted) - count(packetPulled) - count(packetRemoved) - count(packetDropped)))"
attr title "queue length, last"
attr unit pk
scalar Mrp8.node0.eth[1].queue queueLength:max 1
attr autoWarmupFilter false
attr interpolationmode sample-hold
attr recordingmode max
attr source "warmup(atomic(constant0(packetPushEnded) + count(packetPushStarted) - count(packetPulled) - count(packetRemoved) - count(packetDropped)))"
attr title "queue length, max"
attr unit pk
scalar Mrp8.node0.eth[1].queue queueLength:timeavg 3e-06
attr autoWarmupFilter false
attr interpolationmode sample-hold
attr recordingmode timeavg
attr source "warmup(atomic(constant0(packetPushEnded) + count(packetPushStarted) - count(packetPulled) - count(packetRemoved) - count(packetDropped)))"
attr title "queue length, timeavg"
attr unit pk
scalar Mrp8.node0.eth[1].queue queueBitLength:last 0
attr autoWarmupFilter false
attr interpolationmode sample-hold
attr recordingmode last
attr source "warmup(atomic(constant0(packetPushEnded) + sum(packetLength(packetPushStarted)) - sum(packetLength(packetPulled)) - sum(packetLength(packetRemoved)) - sum(packetLength(packetDropped))))"
attr title "queue bit length, last"
attr unit b
scalar Mrp8.node0.eth[1].queue queueBitLength:max 7672
attr autoWarmupFilter false
attr interpolationmode sample-hold
attr recordingmode max
attr source "warmup(atomic(constant0(packetPushEnded) + sum(packetLength(packetPushStarted)) - sum(packetLength(packetPulled)) - sum(packetLength(packetRemoved)) - sum(packetLength(packetDropped))))"
attr title "queue bit length, max"
attr unit b
scalar Mrp8.node0.eth[1].queue queueBitLength:timeavg 0.0087173333333333
attr autoWarmupFilter false
attr interpolationmode sample-hold
attr recordingmode timeavg
attr source "warmup(atomic(constant0(packetPushEnded) + sum(packetLength(packetPushStarted)) - sum(packetLength(packetPulled)) - sum(packetLength(packetRemoved)) - sum(packetLength(packetDropped))))"
attr title "queue bit length, timeavg"
attr unit b
statistic Mrp8.node0.eth[1].queue queueingTime:histogram
field count 2283
field mean 3.9421813403417e-09
field stddev 1.0870224906491e-07
field min 0
field max 4e-06
field sum 9e-06
field sqrsum 2.7e-11
attr interpolationmode none
attr recordingmode histogram
attr source queueingTime(packetPulled)
attr title "queueing times"
attr unit s
bin	-inf	0
bin	0	2279
bin	6e-08	0
bin	1.2e-07	0
bin	1.8e-07	0
bin	2.4e-07	0
bin	3e-07	0
bin	3.6e-07	0
bin	4.2e-07	0
bin	4.8e-07	0
bin	5.4e-07	0
bin	6e-07	0
bin	6.6e-07	0
bin	7.2e-07	0
bin	7.8e-07	0
bin	8.4e-07	0
bin	9e-07	0
bin	9.6e-07	2
bin	1.02e-06	0
bin	1.08e-06	0
bin	1.14e-06	0
bin	1.2e-06	0
bin	1.26e-06	0
bin	1.32e-06	0
bin	1.38e-06	0
bin	1.44e-06	0
bin	1.5e-06	0
bin	1.56e-06	0
bin	1.62e-06	0
bin	1.68e-06	0
bin	1.74e-06	0
bin	1.8e-06	0
bin	1.86e-06	0
bin	1.92e-06	0
bin	1.98e-06	0
bin	2.04e-06	0
bin	2.1e-06	0
bin	2.16e-06	0
bin	2.22e-06	0
bin	2.28e-06	0
bin	2.34e-06	0
bin	2.4e-06	0
bin	2.46e-06	0
bin	2.52e-06	0
bin	2.58e-06	0
bin	2.64e-06	0
bin	2.7e-06	0
bin	2.76e-06	0
bin	2.82e-06	0
bin	2.88e-06	0
bin	2.94e-06	1
bin	3e-06	0
bin	3.06e-06	0
bin	3.12e-06	0
bin	3.18e-06	0
bin	3.24e-06	0
bin	3.3e-06	0
bin	3.36e-06	0
bin	3.42e-06	0
bin	3.48e-06	0
bin	3.54e-06	0
bin	3.6e-06	0
bin	3.66e-06	0
bin	3.72e-06	0
bin	3.78e-06	0
bin	3.84e-06	0
bin	3.9e-06	0
bin	3.96e-06	1
bin	4.02e-06	0
scalar Mrp8.node0.eth[1].queue outgoingPackets:count 2283
attr recordingmode count
attr source packetPulled
attr title "outgoing packets, count"
attr unit pk
scalar Mrp8.node0.eth[1].queue outgoingPacketLengths:sum 16637072
attr interpolationmode none
attr recordingmode sum
attr source packetLength(packetPulled)
attr title "outgoing packet lengths, sum"
attr unit b
statistic Mrp8.node0.eth[1].queue outgoingPacketLengths:histogram
field count 2283
field mean 7287.3727551467
field stddev 1612.1761839542
field min 496
field max 7672
field sum 16637072
field sqrsum 127171718912
attr interpolationmode none
attr recordingmode histogram
attr source packetLength(packetPulled)
attr title "outgoing packet lengths"
attr unit b
bin	-inf	0
bin	400	123
bin	600	0
bin	800	0
bin	1000	0
bin	1200	0
bin	1400	0
bin	1600	0
bin	1800	0
bin	2000	0
bin	2200	0
bin	2400	0
bin	2600	0
bin	2800	0
bin	3000	0
bin	3200	0
bin	3400	0
bin	3600	0
bin	3800	0
bin	4000	0
bin	4200	0
bin	4400	0
bin	4600	0
bin	4800	0
bin	5000	0
bin	5200	0
bin	5400	0
bin	5600	0
bin	5800	0
bin	6000	0
bin	6200	0
bin	6400	0
bin	6600	0
bin	6800	0
bin	7000	0
bin	7200	0
bin	7400	0
bin	7600	2160
bin	7800	0
statistic Mrp8.node0.eth[1].queue flowQueueingTime:histogram
field count 0
field mean -nan
field stddev nan
field min nan
field max nan
field sum 0
field sqrsum 0
attr interpolationmode none
attr recordingmode histogram
attr source queueingTime(demuxFlow(packetPulled))
attr title "flow queueing times"
attr unit s
bin	-inf	0
bin	0	0
bin	1	0
scalar Mrp8.node0.eth[1].queue incomingPackets:count 2283
attr recordingmode count
attr source packetPushStarted
attr title "incoming packets, count"
attr unit pk
scalar Mrp8.node0.eth[1].queue incomingPacketLengths:sum 16637072
attr interpolationmode none
attr recordingmode sum
attr source packetLength(packetPushStarted)
attr title "incoming packet lengths, sum"
attr unit b
statistic Mrp8.node0.eth[1].queue incomingPacketLengths:histogram
field count 2283
field mean 7287.3727551467
field stddev 1612.1761839542
field min 496
field max 7672
field sum 16637072
field sqrsum 127171718912
attr interpolationmode none
attr recordingmode histogram
attr source packetLength(packetPushStarted)
attr title "incoming packet lengths"
attr unit b
bin	-inf	0
bin	400	123
bin	600	0
bin	800	0
bin	1000	0
bin	1200	0
bin	1400	0
bin	1600	0
bin	1800	0
bin	2000	0
bin	2200	0
bin	2400	0
bin	2600	0
bin	2800	0
bin	3000	0
bin	3200	0
bin	3400	0
bin	3600	0
bin	3800	0
bin	4000	0
bin	4200	0
bin	4400	0
bin	4600	0
bin	4800	0
bin	5000	0
bin	5200	0
bin	5400	0
bin	5600	0
bin	5800	0
bin	6000	0
bin	6200	0
bin	6400	0
bin	6600	0
bin	6800	0
bin	7000	0
bin	7200	0
bin	7400	0
bin	7600	2160
bin	7800	0
scalar Mrp8.node0.eth[1].queue droppedPacketsQueueOverflow:count 0
attr interpolationmode none
attr recordingmode count
attr source packetDropReasonIsQueueOverflow(packetDropped)
attr title "dropped packets: queue overflow, count"
attr unit pk
scalar Mrp8.node0.eth[1].queue droppedPacketLengthsQueueOverflow:sum 0
attr interpolationmode none
attr recordingmode sum
attr source packetLength(packetDropReasonIsQueueOverflow(packetDropped))
attr title "dropped packet lengths: queue overflow, sum"
attr unit b
scalar Mrp8.node0.eth[1].mac "simulated time" 3
scalar Mrp8.node0.eth[1].mac full-duplex 1
scalar Mrp8.node0.eth[1].mac "frames/sec sent" 761
scalar Mrp8.node0.eth[1].mac "frames/sec rcvd" 854.66666666667
scalar Mrp8.node0.eth[1].mac "bits/sec sent" 5545861.3333333
scalar Mrp8.node0.eth[1].mac "bits/sec rcvd" 6381397.3333333
scalar Mrp8.node0.eth[1].mac "rx channel idle (%)" 93.5942
scalar Mrp8.node0.eth[1].mac "rx channel utilization (%)" 6.4058
scalar Mrp8.node0.eth[1].mac rxPausePkUnits:count 0
attr interpolationmode none
attr recordingmode count
attr title "pause units received, count"
scalar Mrp8.node0.eth[1].mac rxPausePkUnits:sum 0
attr interpolationmode none
attr recordingmode sum
attr title "pause units received, sum"
scalar Mrp8.node0.eth[1].mac txPausePkUnits:count 0
attr interpolationmode none
attr recordingmode count
attr title "pause units sent, count"
scalar Mrp8.node0.eth[1].mac txPausePkUnits:sum 0
attr interpolationmode none
attr recordingmode sum
attr title "pause units sent, sum"
scalar Mrp8.node0.eth[1].mac rxPkOk:count 2564
attr interpolationmode none
attr recordingmode count
attr source rxPkOk
attr title "packets received OK, count"
scalar Mrp8.node0.eth[1].mac rxPkOk:sum(packetBytes) 2393024
attr interpolationmode none
attr recordingmode sum(packetBytes)
attr source rxPkOk
attr title "packets received OK, sum(packetBytes)"
statistic Mrp8.node0.eth[1].mac throughput:histogram
field count 31
field mean 5663212.6368724
field stddev 3158342.0039515
field min 12480
field max 8047960.0764769
field sum 175559591.74304
field sqrsum 1.2934850249011e+15
attr interpolationmode linear
attr recordingmode histogram
attr source throughput(transmissionEnded)
attr title throughput
attr unit bps
bin	-inf	0
bin	0	5
bin	200000	1
bin	400000	0
bin	600000	0
bin	800000	0
bin	1000000	0
bin	1200000	0
bin	1400000	0
bin	1600000	0
bin	1800000	0
bin	2000000	1
bin	2200000	0
bin	2400000	0
bin	2600000	1
bin	2800000	0
bin	3000000	0
bin	3200000	0
bin	3400000	0
bin	3600000	0
bin	3800000	0
bin	4000000	0
bin	4200000	1
bin	4400000	0
bin	4600000	0
bin	4800000	0
bin	5000000	1
bin	5200000	0
bin	5400000	0
bin	5600000	1
bin	5800000	0
bin	6000000	0
bin	6200000	0
bin	6400000	0
bin	6600000	0
bin	6800000	0
bin	7000000	0
bin	7200000	0
bin	7400000	1
bin	7600000	16
bin	7800000	2
bin	8000000	1
bin	8200000	0
bin	8400000	0
bin	8600000	0
bin	8800000	0
bin	9000000	0
bin	9200000	0
bin	9400000	0
bin	9600000	0
bin	9800000	0
bin	10000000	0
bin	10200000	0
statistic Mrp8.node0.eth[1].mac utilization:histogram
field count 31
field mean 5.6402921116415
field stddev 3.1367748170577
field min 0.012
field max 8.0106289899219
field sum 174.84905546089
field sqrsum 1281.3804358318
attr interpolationmode linear
attr recordingmode histogram
attr source "100 * utilization(count(transmissionStarted) - count(transmissionEnded))"
attr title utilization
attr unit %
bin	-inf	0
bin	0	5
bin	0.2	1
bin	0.4	0
bin	0.6	0
bin	0.8	0
bin	1	0
bin	1.2	0
bin	1.4	0
bin	1.6	0
bin	1.8	0
bin	2	1
bin	2.2	0
bin	2.4	0
bin	2.6	1
bin	2.8	0
bin	3	0
bin	3.2	0
bin	3.4	0
bin	3.6	0
bin	3.8	0
bin	4	0
bin	4.2	1
bin	4.4	0
bin	4.6	0
bin	4.8	0
bin	5	1
bin	5.2	0
bin	5.4	0
bin	5.6	1
bin	5.8	0
bin	6	0
bin	6.2	0
bin	6.4	0
bin	6.6	0
bin	6.8	0
bin	7	0
bin	7.2	0
bin	7.4	1
bin	7.6	16
bin	7.8	2
bin	8	1
bin	8.2	0
bin	8.4	0
bin	8.6	0
bin	8.8	0
bin	9	0
bin	9.2	0
bin	9.4	0
bin	9.6	0
bin	9.8	0
bin	10	0
bin	10.2	0
scalar Mrp8.node0.eth[1].mac txPk:count 2283
attr interpolationmode none
attr recordingmode count
attr source packetSentToLower
attr title "packets transmitted, count"
scalar Mrp8.node0.eth[1].mac txPk:sum(packetBytes) 2079698
attr interpolationmode none
attr recordingmode sum(packetBytes)
attr source packetSentToLower
attr title "packets transmitted, sum(packetBytes)"
scalar Mrp8.node0.eth[1].mac packetReceivedFromUpper:count 2283
attr interpolationmode none
attr recordingmode count
attr source packetReceivedFromUpper
attr title "packet bytes from higher layer, count"
scalar Mrp8.node0.eth[1].mac packetReceivedFromUpper:sum(packetBytes) 2079634
attr interpolationmode none
attr recordingmode sum(packetBytes)
attr source packetReceivedFromUpper
attr title "packet bytes from higher layer, sum(packetBytes)"
scalar Mrp8.node0.eth[1].mac passedUpPk:count 2564
attr interpolationmode none
attr recordingmode count
attr source packetSentToUpper
attr title "packets passed to higher layer, count"
scalar Mrp8.node0.eth[1].mac passedUpPk:sum(packetBytes) 2393024
attr interpolationmode none
attr recordingmode sum(packetBytes)
attr source packetSentToUpper
attr title "packets passed to higher layer, sum(packetBytes)"
scalar Mrp8.node0.eth[1].mac packetDropIncorrectlyReceived:count 0
attr interpolationmode none
attr recordingmode count
attr source packetDropReasonIsIncorrectlyReceived(packetDropped)
attr title "packet drop: incorrectly received, count"
scalar Mrp8.node0.eth[1].mac packetDropIncorrectlyReceived:sum(packetBytes) 0
attr interpolationmode none
attr recordingmode sum(packetBytes)
attr source packetDropReasonIsIncorrectlyReceived(packetDropped)
attr title "packet drop: incorrectly received, sum(packetBytes)"
scalar Mrp8.node0.eth[1].mac packetDropInterfaceDown:count 0
attr interpolationmode none
attr recordingmode count
attr source packetDropReasonIsInterfaceDown(packetDropped)
attr title "packet drop: interface down, count"
scalar Mrp8.node0.eth[1].mac packetDropInterfaceDown:sum(packetBytes) 0
attr interpolationmode none
attr recordingmode sum(packetBytes)
attr source packetDropReasonIsInterfaceDown(packetDropped)
attr title "packet drop: interface down, sum(packetBytes)"
scalar Mrp8.node0.eth[1].mac packetDropNotAddressedToUs:count 0
attr interpolationmode none
attr recordingmode count
attr source packetDropReasonIsNotAddressedToUs(packetDropped)
attr title "packet drop: not addressed to us, count"
scalar Mrp8.node0.eth[1].mac packetDropNotAddressedToUs:sum(packetBytes) 0
attr interpolationmode none
attr recordingmode sum(packetBytes)
attr source packetDropReasonIsNotAddressedToUs(packetDropped)
attr title "packet drop: not addressed to us, sum(packetBytes)"
scalar Mrp8.node0.eth[1] packetDropInterfaceDown:count 0
attr interpolationmode none
attr recordingmode count
attr source packetDropReasonIsInterfaceDown(packetDropped)
attr title "packet drops: interface down, count"
scalar Mrp8.node0.eth[1] packetDropInterfaceDown:sum(packetBytes) 0
attr interpolationmode none
attr recordingmode sum(packetBytes)
attr source packetDropReasonIsInterfaceDown(packetDropped)
attr title "packet drops: interface down, sum(packetBytes)"
scalar Mrp8.node0.eth[1] packetDropNoCarrier:count 0
attr interpolationmode none
attr recordingmode count
attr source packetDropReasonIsNoCarrier(packetDropped)
attr title "packet drops: no carrier, count"
scalar Mrp8.node0.eth[1] packetDropNoCarrier:sum(packetBytes) 0
attr interpolationmode none
attr recordingmode sum(packetBytes)
attr source packetDropReasonIsNoCarrier(packetDropped)
attr title "packet drops: no carrier, sum(packetBytes)"
scalar Mrp8.node0.eth[2].queue queueLength:last 0
attr autoWarmupFilter false
attr interpolationmode sample-hold
attr recordingmode last
attr source "warmup(atomic(constant0(packetPushEnded) + count(packetPushStarted) - count(packetPulled) - count(packetRemoved) - count(packetDropped)))"
attr title "queue length, last"
attr unit pk
scalar Mrp8.node0.eth[2].queue queueLength:max 1
attr autoWarmupFilter false
attr interpolationmode sample-hold
attr recordingmode max
attr source "warmup(atomic(constant0(packetPushEnded) + count(packetPushStarted) - count(packetPulled) - count(packetRemoved) - count(packetDropped)))"
attr title "queue length, max"
attr unit pk
scalar Mrp8.node0.eth[2].queue queueLength:timeavg 0.014570333333333
attr autoWarmupFilter false
attr interpolationmode sample-hold
attr recordingmode timeavg
attr source "warmup(atomic(constant0(packetPushEnded) + count(packetPushStarted) - count(packetPulled) - count(packetRemoved) - count(packetDropped)))"
attr title "queue length, timeavg"
attr unit pk
scalar Mrp8.node0.eth[2].queue queueBitLength:last 0
attr autoWarmupFilter false
attr interpolationmode sample-hold
attr recordingmode last
attr source "warmup(atomic(constant0(packetPushEnded) + sum(packetLength(packetPushStarted)) - sum(packetLength(packetPulled)) - sum(packetLength(packetRemoved)) - sum(packetLength(packetDropped))))"
attr title "queue bit length, last"
attr unit b
scalar Mrp8.node0.eth[2].queue queueBitLength:max 7672
attr autoWarmupFilter false
attr interpolationmode sample-hold
attr recordingmode max
attr source "warmup(atomic(constant0(packetPushEnded) + sum(packetLength(packetPushStarted)) - sum(packetLength(packetPulled)) - sum(packetLength(packetRemoved)) - sum(packetLength(packetDropped))))"
attr title "queue bit length, max"
attr unit b
scalar Mrp8.node0.eth[2].queue queueBitLength:timeavg 111.67502133333
attr autoWarmupFilter false
attr interpolationmode sample-hold
attr recordingmode timeavg
attr source "warmup(atomic(constant0(packetPushEnded) + sum(packetLength(packetPushStarted)) - sum(packetLength(packetPulled)) - sum(packetLength(packetRemoved)) - sum(packetLength(packetDropped))))"
attr title "queue bit length, timeavg"
attr unit b
statistic Mrp8.node0.eth[2].queue queueingTime:histogram
field count 2794
field mean 1.5644595561918e-05
field stddev 2.9409927199831e-05
field min 0
field max 7.8e-05
field sum 0.043711
field sqrsum 3.099629e-06
attr interpolationmode none
attr recordingmode histogram
attr source queueingTime(packetPulled)
attr title "queueing times"
attr unit s
bin	-inf	0
bin	0	2167
bin	1.2e-06	1
bin	2.4e-06	0
bin	3.6e-06	1
bin	4.8e-06	2
bin	6e-06	3
bin	7.2e-06	0
bin	8.4e-06	1
bin	9.6e-06	0
bin	1.08e-05	0
bin	1.2e-05	0
bin	1.32e-05	0
bin	1.44e-05	0
bin	1.56e-05	0
bin	1.68e-05	0
bin	1.8e-05	0
bin	1.92e-05	0
bin	2.04e-05	0
bin	2.16e-05	0
bin	2.28e-05	0
bin	2.4e-05	0
bin	2.52e-05	0
bin	2.64e-05	0
bin	2.76e-05	0
bin	2.88e-05	0
bin	3e-05	0
bin	3.12e-05	0
bin	3.24e-05	0
bin	3.36e-05	0
bin	3.48e-05	0
bin	3.6e-05	0
bin	3.72e-05	0
bin	3.84e-05	0
bin	3.96e-05	0
bin	4.08e-05	0
bin	4.2e-05	0
bin	4.32e-05	0
bin	4.44e-05	0
bin	4.56e-05	0
bin	4.68e-05	1
bin	4.8e-05	0
bin	4.92e-05	1
bin	5.04e-05	0
bin	5.16e-05	0
bin	5.28e-05	0
bin	5.4e-05	0
bin	5.52e-05	5
bin	5.64e-05	3
bin	5.76e-05	4
bin	5.88e-05	25
bin	6e-05	10
bin	6.12e-05	11
bin	6.24e-05	14
bin	6.36e-05	19
bin	6.48e-05	54
bin	6.6e-05	37
bin	6.72e-05	28
bin	6.84e-05	25
bin	6.96e-05	35
bin	7.08e-05	63
bin	7.2e-05	49
bin	7.32e-05	50
bin	7.44e-05	47
bin	7.56e-05	52
bin	7.68e-05	86
bin	7.8e-05	0
scalar Mrp8.node0.eth[2].queue outgoingPackets:count 2794
attr recordingmode count
attr source packetPulled
attr title "outgoing packets, count"
attr unit pk
scalar Mrp8.node0.eth[2].queue outgoingPacketLengths:sum 19254376
attr interpolationmode none
attr recordingmode sum
attr source packetLength(packetPulled)
attr title "outgoing packet lengths, sum"
attr unit b
statistic Mrp8.node0.eth[2].queue outgoingPacketLengths:histogram
field count 2794
field mean 6891.3299928418
field stddev 2182.7508058566
field min 496
field max 7672
field sum 19254376
field sqrsum 145995231040
attr interpolationmode none
attr recordingmode histogram
attr source packetLength(packetPulled)
attr title "outgoing packet lengths"
attr unit b
bin	-inf	0
bin	410	17
bin	540	0
bin	670	0
bin	800	300
bin	930	0
bin	1060	0
bin	1190	0
bin	1320	0
bin	1450	0
bin	1580	0
bin	1710	0
bin	1840	0
bin	1970	0
bin	2100	0
bin	2230	0
bin	2360	0
bin	2490	0
bin	2620	0
bin	2750	0
bin	2880	0
bin	3010	0
bin	3140	0
bin	3270	0
bin	3400	0
bin	3530	0
bin	3660	0
bin	3790	0
bin	3920	0
bin	4050	0
bin	4180	0
bin	4310	0
bin	4440	0
bin	4570	0
bin	4700	0
bin	4830	0
bin	4960	0
bin	5090	0
bin	5220	0
bin	5350	0
bin	5480	0
bin	5610	0
bin	5740	0
bin	5870	0
bin	6000	0
bin	6130	0
bin	6260	0
bin	6390	0
bin	6520	0
bin	6650	0
bin	6780	0
bin	6910	0
bin	7040	0
bin	7170	0
bin	7300	0
bin	7430	0
bin	7560	2477
bin	7690	0
statistic Mrp8.node0.eth[2].queue flowQueueingTime:histogram
field count 0
field mean -nan
field stddev nan
field min nan
field max nan
field sum 0
field sqrsum 0
attr interpolationmode none
attr recordingmode histogram
attr source queueingTime(demuxFlow(packetPulled))
attr title "flow queueing times"
attr unit s
bin	-inf	0
bin	0	0
bin	1	0
scalar Mrp8.node0.eth[2].queue incomingPackets:count 2794
attr recordingmode count
attr source packetPushStarted
attr title "incoming packets, count"
attr unit pk
scalar Mrp8.node0.eth[2].queue incomingPacketLengths:sum 19254376
attr interpolationmode none
attr recordingmode sum
attr source packetLength(packetPushStarted)
attr title "incoming packet lengths, sum"
attr unit b
statistic Mrp8.node0.eth[2].queue incomingPacketLengths:histogram
field count 2794
field mean 6891.3299928418
field stddev 2182.7508058566
field min 496
field max 7672
field sum 19254376
field sqrsum 145995231040
attr interpolationmode none
attr recordingmode histogram
attr source packetLength(packetPushStarted)
attr title "incoming packet lengths"
attr unit b
bin	-inf	0
bin	410	17
bin	540	0
bin	670	0
bin	800	300
bin	930	0
bin	1060	0
bin	1190	0
bin	1320	0
bin	1450	0
bin	1580	0
bin	1710	0
bin	1840	0
bin	1970	0
bin	2100	0
bin	2230	0
bin	2360	0
bin	2490	0
bin	2620	0
bin	2750	0
bin	2880	0
bin	3010	0
bin	3140	0
bin	3270	0
bin	3400	0
bin	3530	0
bin	3660	0
bin	3790	0
bin	3920	0
bin	4050	0
bin	4180	0
bin	4310	0
bin	4440	0
bin	4570	0
bin	4700	0
bin	4830	0
bin	4960	0
bin	5090	0
bin	5220	0
bin	5350	0
bin	5480	0
bin	5610	0
bin	5740	0
bin	5870	0
bin	6000	0
bin	6130	0
bin	6260	0
bin	6390	0
bin	6520	0
bin	6650	0
bin	6780	0
bin	6910	0
bin	7040	0
bin	7170	0
bin	7300	0
bin	7430	0
bin	7560	2477
bin	7690	0
scalar Mrp8.node0.eth[2].queue droppedPacketsQueueOverflow:count 0
attr interpolationmode none
attr recordingmode count
attr source packetDropReasonIsQueueOverflow(packetDropped)
attr title "dropped packets: queue overflow, count"
attr unit pk
scalar Mrp8.node0.eth[2].queue droppedPacketLengthsQueueOverflow:sum 0
attr interpolationmode none
attr recordingmode sum
attr source packetLength(packetDropReasonIsQueueOverflow(packetDropped))
attr title "dropped packet lengths: queue overflow, sum"
attr unit b
scalar Mrp8.node0.eth[2].mac "simulated time" 3
scalar Mrp8.node0.eth[2].mac full-duplex 1
scalar Mrp8.node0.eth[2].mac "frames/sec sent" 931.33333333333
scalar Mrp8.node0.eth[2].mac "frames/sec rcvd" 1056
scalar Mrp8.node0.eth[2].mac "bits/sec sent" 6418216
scalar Mrp8.node0.eth[2].mac "bits/sec rcvd" 7319978.6666667
scalar Mrp8.node0.eth[2].mac "rx channel idle (%)" 92.643466666667
scalar Mrp8.node0.eth[2].mac "rx channel utilization (%)" 7.3565333333333
scalar Mrp8.node0.eth[2].mac rxPausePkUnits:count 0
attr interpolationmode none
attr recordingmode count
attr title "pause units received, count"
scalar Mrp8.node0.eth[2].mac rxPausePkUnits:sum 0
attr interpolationmode none
attr recordingmode sum
attr title "pause units received, sum"
scalar Mrp8.node0.eth[2].mac txPausePkUnits:count 0
attr interpolationmode none
attr recordingmode count
attr title "pause units sent, count"
scalar Mrp8.node0.eth[2].mac txPausePkUnits:sum 0
attr interpolationmode none
attr recordingmode sum
attr title "pause units sent, sum"
scalar Mrp8.node0.eth[2].mac rxPkOk:count 3168
attr interpolationmode none
attr recordingmode count
attr source rxPkOk
attr title "packets received OK, count"
scalar Mrp8.node0.eth[2].mac rxPkOk:sum(packetBytes) 2744992
attr interpolationmode none
attr recordingmode sum(packetBytes)
attr source rxPkOk
attr title "packets received OK, sum(packetBytes)"
statistic Mrp8.node0.eth[2].mac throughput:histogram
field count 49
field mean 15463211.485884
field stddev 15456971.494376
field min 59408.638779125
field max 31278890.088893
field sum 757697362.80831
field sqrsum 2.3184497016743e+16
attr interpolationmode linear
attr recordingmode histogram
attr source throughput(transmissionEnded)
attr title throughput
attr unit bps
bin	-inf	0
bin	0	23
bin	500000	0
bin	1000000	0
bin	1500000	0
bin	2000000	0
bin	2500000	0
bin	3000000	0
bin	3500000	0
bin	4000000	0
bin	4500000	1
bin	5000000	0
bin	5500000	1
bin	6000000	0
bin	6500000	0
bin	7000000	0
bin	7500000	0
bin	8000000	0
bin	8500000	0
bin	9000000	0
bin	9500000	0
bin	10000000	0
bin	10500000	0
bin	11000000	0
bin	11500000	0
bin	12000000	0
bin	12500000	0
bin	13000000	0
bin	13500000	0
bin	14000000	0
bin	14500000	0
bin	15000000	0
bin	15500000	0
bin	16000000	0
bin	16500000	0
bin	17000000	0
bin	17500000	0
bin	18000000	0
bin	18500000	0
bin	19000000	0
bin	19500000	0
bin	20000000	0
bin	20500000	0
bin	21000000	0
bin	21500000	0
bin	22000000	0
bin	22500000	0
bin	23000000	0
bin	23500000	0
bin	24000000	0
bin	24500000	0
bin	25000000	0
bin	25500000	0
bin	26000000	0
bin	26500000	0
bin	27000000	0
bin	27500000	0
bin	28000000	0
bin	28500000	0
bin	29000000	0
bin	29500000	0
bin	30000000	0
bin	30500000	10
bin	31000000	14
bin	31500000	0
bin	32000000	0
bin	32500000	0
bin	33000000	0
bin	33500000	0
bin	34000000	0
bin	34500000	0
bin	35000000	0
bin	35500000	0
bin	36000000	0
bin	36500000	0
bin	37000000	0
bin	37500000	0
bin	38000000	0
bin	38500000	0
bin	39000000	0
bin	39500000	0
statistic Mrp8.node0.eth[2].mac utilization:histogram
field count 49
field mean 15.391646438071
field stddev 15.37926109623
field min 0.060996272450017
field max 31.137326576389
field sum 754.19067546549
field sqrsum 22961.276473224
attr interpolationmode linear
attr recordingmode histogram
attr source "100 * utilization(count(transmissionStarted) - count(transmissionEnded))"
attr title utilization
attr unit %
bin	-inf	0
bin	0	23
bin	0.5	0
bin	1	0
bin	1.5	0
bin	2	0
bin	2.5	0
bin	3	0
bin	3.5	0
bin	4	0
bin	4.5	1
bin	5	0
bin	5.5	1
bin	6	0
bin	6.5	0
bin	7	0
bin	7.5	0
bin	8	0
bin	8.5	0
bin	9	0
bin	9.5	0
bin	10	0
bin	10.5	0
bin	11	0
bin	11.5	0
bin	12	0
bin	12.5	0
bin	13	0
bin	13.5	0
bin	14	0
bin	14.5	0
bin	15	0
bin	15.5	0
bin	16	0
bin	16.5	0
bin	17	0
bin	17.5	0
bin	18	0
bin	18.5	0
bin	19	0
bin	19.5	0
bin	20	0
bin	20.5	0
bin	21	0
bin	21.5	0
bin	22	0
bin	22.5	0
bin	23	0
bin	23.5	0
bin	24	0
bin	24.5	0
bin	25	0
bin	25.5	0
bin	26	0
bin	26.5	0
bin	27	0
bin	27.5	0
bin	28	0
bin	28.5	0
bin	29	0
bin	29.5	0
bin	30	0
bin	30.5	20
bin	31	4
bin	31.5	0
bin	32	0
bin	32.5	0
bin	33	0
bin	33.5	0
bin	34	0
bin	34.5	0
bin	35	0
bin	35.5	0
bin	36	0
bin	36.5	0
bin	37	0
bin	37.5	0
bin	38	0
bin	38.5	0
bin	39	0
scalar Mrp8.node0.eth[2].mac txPk:count 2794
attr interpolationmode none
attr recordingmode count
attr source packetSentToLower
attr title "packets transmitted, count"
scalar Mrp8.node0.eth[2].mac txPk:sum(packetBytes) 2406831
attr interpolationmode none
attr recordingmode sum(packetBytes)
attr source packetSentToLower
attr title "packets transmitted, sum(packetBytes)"
scalar Mrp8.node0.eth[2].mac packetReceivedFromUpper:count 2794
attr interpolationmode none
attr recordingmode count
attr source packetReceivedFromUpper
attr title "packet bytes from higher layer, count"
scalar Mrp8.node0.eth[2].mac packetReceivedFromUpper:sum(packetBytes) 2406797
attr interpolationmode none
attr recordingmode sum(packetBytes)
attr source packetReceivedFromUpper
attr title "packet bytes from higher layer, sum(packetBytes)"
scalar Mrp8.node0.eth[2].mac passedUpPk:count 3168
attr interpolationmode none
attr recordingmode count
attr source packetSentToUpper
attr title "packets passed to higher layer, count"
scalar Mrp8.node0.eth[2].mac passedUpPk:sum(packetBytes) 2744992
attr interpolationmode none
attr recordingmode sum(packetBytes)
attr source packetSentToUpper
attr title "packets passed to higher layer, sum(packetBytes)"
scalar Mrp8.node0.eth[2].mac packetDropIncorrectlyReceived:count 0
attr interpolationmode none
attr recordingmode count
attr source packetDropReasonIsIncorrectlyReceived(packetDropped)
attr title "packet drop: incorrectly received, count"
scalar Mrp8.node0.eth[2].mac packetDropIncorrectlyReceived:sum(packetBytes) 0
attr interpolationmode none
attr recordingmode sum(packetBytes)
attr source packetDropReasonIsIncorrectlyReceived(packetDropped)
attr title "packet drop: incorrectly received, sum(packetBytes)"
scalar Mrp8.node0.eth[2].mac packetDropInterfaceDown:count 0
attr interpolationmode none
attr recordingmode count
attr source packetDropReasonIsInterfaceDown(packetDropped)
attr title "packet drop: interface down, count"
scalar Mrp8.node0.eth[2].mac packetDropInterfaceDown:sum(packetBytes) 0
attr interpolationmode none
attr recordingmode sum(packetBytes)
attr source packetDropReasonIsInterfaceDown(packetDropped)
attr title "packet drop: interface down, sum(packetBytes)"
scalar Mrp8.node0.eth[2].mac packetDropNotAddressedToUs:count 0
attr interpolationmode none
attr recordingmode count
attr source packetDropReasonIsNotAddressedToUs(packetDropped)
attr title "packet drop: not addressed to us, count"
scalar Mrp8.node0.eth[2].mac packetDropNotAddressedToUs:sum(packetBytes) 0
attr interpolationmode none
attr recordingmode sum(packetBytes)
attr source packetDropReasonIsNotAddressedToUs(packetDropped)
attr title "packet drop: not addressed to us, sum(packetBytes)"
scalar Mrp8.node0.eth[2] packetDropInterfaceDown:count 0
attr interpolationmode none
attr recordingmode count
attr source packetDropReasonIsInterfaceDown(packetDropped)
attr title "packet drops: interface down, count"
scalar Mrp8.node0.eth[2] packetDropInterfaceDown:sum(packetBytes) 0
attr interpolationmode none
attr recordingmode sum(packetBytes)
attr source packetDropReasonIsInterfaceDown(packetDropped)
attr title "packet drops: interface down, sum(packetBytes)"
scalar Mrp8.node0.eth[2] packetDropNoCarrier:count 0
attr interpolationmode none
attr recordingmode count
attr source packetDropReasonIsNoCarrier(packetDropped)
attr title "packet drops: no carrier, count"
scalar Mrp8.node0.eth[2] packetDropNoCarrier:sum(packetBytes) 0
attr interpolationmode none
attr recordingmode sum(packetBytes)
attr source packetDropReasonIsNoCarrier(packetDropped)
attr title "packet drops: no carrier, sum(packetBytes)"
scalar Mrp8.node1.bridging "processed frames" 0
scalar Mrp8.node1.bridging "discarded frames" 0
scalar Mrp8.node1.bridging "number of received BPDUs from STP module" 0
scalar Mrp8.node1.bridging "number of received frames from network (including BPDUs)" 0
scalar Mrp8.node1.bridging "number of dropped frames (including BPDUs)" 0
scalar Mrp8.node1.bridging "number of delivered BPDUs to the STP module" 0
scalar Mrp8.node1.bridging "number of dispatched BPDU frames to the network" 0
scalar Mrp8.node1.bridging "number of dispatched non-BDPU frames to the network" 0
scalar Mrp8.node1.bridging "number of received PDUs from MRP module" 0
scalar Mrp8.node1.bridging "number of received frames from network (including PDUs)" 9917
scalar Mrp8.node1.bridging "number of dropped frames (including PDUs)" 0
scalar Mrp8.node1.bridging "number of delivered PDUs to the MRP module" 22
scalar Mrp8.node1.bridging "number of dispatched MRP frames to the network" 193
scalar Mrp8.node1.bridging "number of dispatched non-MRP frames to the network" 9724
scalar Mrp8.node1.bridging packetDropped:count 0
attr interpolationmode none
attr recordingmode count
attr title "packets dropped, count"
scalar Mrp8.node1.bridging packetDropped:sum(packetBytes) 0
attr interpolationmode none
attr recordingmode sum(packetBytes)
attr title "packets dropped, sum(packetBytes)"
scalar Mrp8.node1.ethernet pauseSent:count 0
attr recordingmode count
attr title "pause sent, count"
scalar Mrp8.node1.ethernet pauseSent:sum 0
attr recordingmode sum
attr title "pause sent, sum"
scalar Mrp8.node1.ethernet decapPk:count 9917
attr interpolationmode none
attr recordingmode count
attr source decapPk
attr title "packets decapsulated, count"
scalar Mrp8.node1.ethernet decapPk:sum(packetBytes) 9159848
attr interpolationmode none
attr recordingmode sum(packetBytes)
attr source decapPk
attr title "packets decapsulated, sum(packetBytes)"
scalar Mrp8.node1.ethernet encapPk:count 10833
attr interpolationmode none
attr recordingmode count
attr source encapPk
attr title "packets encapsulated, count"
scalar Mrp8.node1.ethernet encapPk:sum(packetBytes) 10016422
attr interpolationmode none
attr recordingmode sum(packetBytes)
attr source encapPk
attr title "packets encapsulated, sum(packetBytes)"
scalar Mrp8.node1.eth[0].queue queueLength:last 0
attr autoWarmupFilter false
attr interpolationmode sample-hold
attr recordingmode last
attr source "warmup(atomic(constant0(packetPushEnded) + count(packetPushStarted) - count(packetPulled) - count(packetRemoved) - count(packetDropped)))"
attr title "queue length, last"
attr unit pk
scalar Mrp8.node1.eth[0].queue queueLength:max 1
attr autoWarmupFilter false
attr interpolationmode sample-hold
attr recordingmode max
attr source "warmup(atomic(constant0(packetPushEnded) + count(packetPushStarted) - count(packetPulled) - count(packetRemoved) - count(packetDropped)))"
attr title "queue length, max"
attr unit pk
scalar Mrp8.node1.eth[0].queue queueLength:timeavg 7.8333333333333e-05
attr autoWarmupFilter false
attr interpolationmode sample-hold
attr recordingmode timeavg
attr source "warmup(atomic(constant0(packetPushEnded) + count(packetPushStarted) - count(packetPulled) - count(packetRemoved) - count(packetDropped)))"
attr title "queue length, timeavg"
attr unit pk
scalar Mrp8.node1.eth[0].queue queueBitLength:last 0
attr autoWarmupFilter false
attr interpolationmode sample-hold
attr recordingmode last
attr source "warmup(atomic(constant0(packetPushEnded) + sum(packetLength(packetPushStarted)) - sum(packetLength(packetPulled)) - sum(packetLength(packetRemoved)) - sum(packetLength(packetDropped))))"
attr title "queue bit length, last"
attr unit b
scalar Mrp8.node1.eth[0].queue queueBitLength:max 560
attr autoWarmupFilter false
attr interpolationmode sample-hold
attr recordingmode max
attr source "warmup(atomic(constant0(packetPushEnded) + sum(packetLength(packetPushStarted)) - sum(packetLength(packetPulled)) - sum(packetLength(packetRemoved)) - sum(packetLength(packetDropped))))"
attr title "queue bit length, max"
attr unit b
scalar Mrp8.node1.eth[0].queue queueBitLength:timeavg 0.043802666666667
attr autoWarmupFilter false
attr interpolationmode sample-hold
attr recordingmode timeavg
attr source "warmup(atomic(constant0(packetPushEnded) + sum(packetLength(packetPushStarted)) - sum(packetLength(packetPulled)) - sum(packetLength(packetRemoved)) - sum(packetLength(packetDropped))))"
attr title "queue bit length, timeavg"
attr unit b
statistic Mrp8.node1.eth[0].queue queueingTime:histogram
field count 2644
field mean 8.8880484114977e-08
field stddev 1.4527640213192e-06
field min 0
field max 4e-05
field sum 0.000235
field sqrsum 5.599e-09
attr interpolationmode none
attr recordingmode histogram
attr source queueingTime(packetPulled)
attr title "queueing times"
attr unit s
bin	-inf	0
bin	0	2630
bin	7e-07	1
bin	1.4e-06	1
bin	2.1e-06	0
bin	2.8e-06	0
bin	3.5e-06	0
bin	4.2e-06	0
bin	4.9e-06	1
bin	5.6e-06	0
bin	6.3e-06	0
bin	7e-06	0
bin	7.7e-06	0
bin	8.4e-06	0
bin	9.1e-06	0
bin	9.8e-06	0
bin	1.05e-05	0
bin	1.12e-05	0
bin	1.19e-05	3
bin	1.26e-05	1
bin	1.33e-05	0
bin	1.4e-05	0
bin	1.47e-05	0
bin	1.54e-05	1
bin	1.61e-05	0
bin	1.68e-05	0
bin	1.75e-05	0
bin	1.82e-05	0
bin	1.89e-05	1
bin	1.96e-05	0
bin	2.03e-05	1
bin	2.1e-05	0
bin	2.17e-05	0
bin	2.24e-05	1
bin	2.31e-05	0
bin	2.38e-05	0
bin	2.45e-05	1
bin	2.52e-05	0
bin	2.59e-05	0
bin	2.66e-05	0
bin	2.73e-05	0
bin	2.8e-05	0
bin	2.87e-05	0
bin	2.94e-05	0
bin	3.01e-05	0
bin	3.08e-05	0
bin	3.15e-05	0
bin	3.22e-05	0
bin	3.29e-05	0
bin	3.36e-05	1
bin	3.43e-05	0
bin	3.5e-05	0
bin	3.57e-05	0
bin	3.64e-05	0
bin	3.71e-05	0
bin	3.78e-05	0
bin	3.85e-05	0
bin	3.92e-05	0
bin	3.99e-05	1
bin	4.06e-05	0
scalar Mrp8.node1.eth[0].queue outgoingPackets:count 2644
attr recordingmode count
attr source packetPulled
attr title "outgoing packets, count"
attr unit pk
scalar Mrp8.node1.eth[0].queue outgoingPacketLengths:sum 19621432
attr interpolationmode none
attr recordingmode sum
attr source packetLength(packetPulled)
attr title "outgoing packet lengths, sum"
attr unit b
statistic Mrp8.node1.eth[0].queue outgoingPacketLengths:histogram
field count 2644
field mean 7421.1164901664
field stddev 1314.2318116225
field min 496
field max 7672
field sum 19621432
field sqrsum 150177936064
attr interpolationmode none
attr recordingmode histogram
attr source packetLength(packetPulled)
attr title "outgoing packet lengths"
attr unit b
bin	-inf	0
bin	0	0
bin	200	0
bin	400	93
bin	600	0
bin	800	0
bin	1000	0
bin	1200	0
bin	1400	0
bin	1600	0
bin	1800	0
bin	2000	0
bin	2200	0
bin	2400	0
bin	2600	0
bin	2800	0
bin	3000	0
bin	3200	0
bin	3400	0
bin	3600	0
bin	3800	0
bin	4000	0
bin	4200	0
bin	4400	0
bin	4600	0
bin	4800	0
bin	5000	0
bin	5200	0
bin	5400	0
bin	5600	0
bin	5800	0
bin	6000	0
bin	6200	0
bin	6400	0
bin	6600	0
bin	6800	0
bin	7000	0
bin	7200	0
bin	7400	0
bin	7600	2551
bin	7800	0
bin	8000	0
bin	8200	0
bin	8400	0
bin	8600	0
bin	8800	0
bin	9000	0
bin	9200	0
bin	9400	0
bin	9600	0
statistic Mrp8.node1.eth[0].queue flowQueueingTime:histogram
field count 0
field mean -nan
field stddev nan
field min nan
field max nan
field sum 0
field sqrsum 0
attr interpolationmode none
attr recordingmode histogram
attr source queueingTime(demuxFlow(packetPulled))
attr title "flow queueing times"
attr unit s
bin	-inf	0
bin	0	0
bin	1	0
scalar Mrp8.node1.eth[0].queue incomingPackets:count 2644
attr recordingmode count
attr source packetPushStarted
attr title "incoming packets, count"
attr unit pk
scalar Mrp8.node1.eth[0].queue incomingPacketLengths:sum 19621432
attr interpolationmode none
attr recordingmode sum
attr source packetLength(packetPushStarted)
attr title "incoming packet lengths, sum"
attr unit b
statistic Mrp8.node1.eth[0].queue incomingPacketLengths:histogram
field count 2644
field mean 7421.1164901664
field stddev 1314.2318116225
field min 496
field max 7672
field sum 19621432
field sqrsum 150177936064
attr interpolationmode none
attr recordingmode histogram
attr source packetLength(packetPushStarted)
attr title "incoming packet lengths"
attr unit b
bin	-inf	0
bin	0	0
bin	200	0
bin	400	93
bin	600	0
bin	800	0
bin	1000	0
bin	1200	0
bin	1400	0
bin	1600	0
bin	1800	0
bin	2000	0
bin	2200	0
bin	2400	0
bin	2600	0
bin	2800	0
bin	3000	0
bin	3200	0
bin	3400	0
bin	3600	0
bin	3800	0
bin	4000	0
bin	4200	0
bin	4400	0
bin	4600	0
bin	4800	0
bin	5000	0
bin	5200	0
bin	5400	0
bin	5600	0
bin	5800	0
bin	6000	0
bin	6200	0
bin	6400	0
bin	6600	0
bin	6800	0
bin	7000	0
bin	7200	0
bin	7400	0
bin	7600	2551
bin	7800	0
bin	8000	0
bin	8200	0
bin	8400	0
bin	8600	0
bin	8800	0
bin	9000	0
bin	9200	0
bin	9400	0
bin	9600	0
scalar Mrp8.node1.eth[0].queue droppedPacketsQueueOverflow:count 0
attr interpolationmode none
attr recordingmode count
attr source packetDropReasonIsQueueOverflow(packetDropped)
attr title "dropped packets: queue overflow, count"
attr unit pk
scalar Mrp8.node1.eth[0].queue droppedPacketLengthsQueueOverflow:sum 0
attr interpolationmode none
attr recordingmode sum
attr source packetLength(packetDropReasonIsQueueOverflow(packetDropped))
attr title "dropped packet lengths: queue overflow, sum"
attr unit b
scalar Mrp8.node1.eth[0].mac "simulated time" 3
scalar Mrp8.node1.eth[0].mac full-duplex 1
scalar Mrp8.node1.eth[0].mac "frames/sec sent" 837
scalar Mrp8.node1.eth[0].mac "frames/sec rcvd" 1183
scalar Mrp8.node1.eth[0].mac "bits/sec sent" 6231346.6666667
scalar Mrp8.node1.eth[0].mac "bits/sec rcvd" 8835952
scalar Mrp8.node1.eth[0].mac "rx channel idle (%)" 91.129933333333
scalar Mrp8.node1.eth[0].mac "rx channel utilization (%)" 8.8700666666667
scalar Mrp8.node1.eth[0].mac rxPausePkUnits:count 0
attr interpolationmode none
attr recordingmode count
attr title "pause units received, count"
scalar Mrp8.node1.eth[0].mac rxPausePkUnits:sum 0
attr interpolationmode none
attr recordingmode sum
attr title "pause units received, sum"
scalar Mrp8.node1.eth[0].mac txPausePkUnits:count 0
attr interpolationmode none
attr recordingmode count
attr title "pause units sent, count"
scalar Mrp8.node1.eth[0].mac txPausePkUnits:sum 0
attr interpolationmode none
attr recordingmode sum
attr title "pause units sent, sum"
scalar Mrp8.node1.eth[0].mac rxPkOk:count 3549
attr interpolationmode none
attr recordingmode count
attr source rxPkOk
attr title "packets received OK, count"
scalar Mrp8.node1.eth[0].mac rxPkOk:sum(packetBytes) 3313482
attr interpolationmode none
attr recordingmode sum(packetBytes)
attr source rxPkOk
attr title "packets received OK, sum(packetBytes)"
statistic Mrp8.node1.eth[0].mac throughput:histogram
field count 42
field mean 8883621.5145732
field stddev 7468016.5948629
field min 0
field max 15748103.248378
field sum 373112103.61207
field sqrsum 5.6012088573029e+15
attr interpolationmode linear
attr recordingmode histogram
attr source throughput(transmissionEnded)
attr title throughput
attr unit bps
bin	-inf	0
bin	0	15
bin	200000	1
bin	400000	0
bin	600000	0
bin	800000	0
bin	1000000	0
bin	1200000	0
bin	1400000	0
bin	1600000	0
bin	1800000	0
bin	2000000	0
bin	2200000	0
bin	2400000	0
bin	2600000	0
bin	2800000	0
bin	3000000	0
bin	3200000	0
bin	3400000	0
bin	3600000	0
bin	3800000	1
bin	4000000	0
bin	4200000	0
bin	4400000	0
bin	4600000	0
bin	4800000	1
bin	5000000	0
bin	5200000	0
bin	5400000	0
bin	5600000	0
bin	5800000	0
bin	6000000	0
bin	6200000	0
bin	6400000	0
bin	6600000	0
bin	6800000	0
bin	7000000	0
bin	7200000	0
bin	7400000	0
bin	7600000	0
bin	7800000	0
bin	8000000	0
bin	8200000	1
bin	8400000	0
bin	8600000	0
bin	8800000	0
bin	9000000	0
bin	9200000	0
bin	9400000	0
bin	9600000	0
bin	9800000	0
bin	10000000	0
bin	10200000	0
bin	10400000	0
bin	10600000	0
bin	10800000	0
bin	11000000	0
bin	11200000	0
bin	11400000	0
bin	11600000	0
bin	11800000	0
bin	12000000	0
bin	12200000	0
bin	12400000	0
bin	12600000	0
bin	12800000	0
bin	13000000	0
bin	13200000	0
bin	13400000	0
bin	13600000	0
bin	13800000	0
bin	14000000	0
bin	14200000	0
bin	14400000	0
bin	14600000	1
bin	14800000	0
bin	15000000	0
bin	15200000	1
bin	15400000	19
bin	15600000	2
bin	15800000	0
bin	16000000	0
bin	16200000	0
bin	16400000	0
bin	16600000	0
bin	16800000	0
bin	17000000	0
bin	17200000	0
bin	17400000	0
bin	17600000	0
bin	17800000	0
bin	18000000	0
bin	18200000	0
bin	18400000	0
bin	18600000	0
bin	18800000	0
bin	19000000	0
bin	19200000	0
bin	19400000	0
bin	19600000	0
bin	19800000	0
statistic Mrp8.node1.eth[0].mac utilization:histogram
field count 42
field mean 8.8430032701932
field stddev 7.4273659005009
field min 0
field max 15.542109766532
field sum 371.40613734811
field sqrsum 5546.1420201561
attr interpolationmode linear
attr recordingmode histogram
attr source "100 * utilization(count(transmissionStarted) - count(transmissionEnded))"
attr title utilization
attr unit %
bin	-inf	0
bin	0	15
bin	0.2	0
bin	0.4	1
bin	0.6	0
bin	0.8	0
bin	1	0
bin	1.2	0
bin	1.4	0
bin	1.6	0
bin	1.8	0
bin	2	0
bin	2.2	0
bin	2.4	0
bin	2.6	0
bin	2.8	0
bin	3	0
bin	3.2	0
bin	3.4	0
bin	3.6	0
bin	3.8	1
bin	4	0
bin	4.2	0
bin	4.4	0
bin	4.6	0
bin	4.8	1
bin	5	0
bin	5.2	0
bin	5.4	0
bin	5.6	0
bin	5.8	0
bin	6	0
bin	6.2	0
bin	6.4	0
bin	6.6	0
bin	6.8	0
bin	7	0
bin	7.2	0
bin	7.4	0
bin	7.6	0
bin	7.8	0
bin	8	0
bin	8.2	1
bin	8.4	0
bin	8.6	0
bin	8.8	0
bin	9	0
bin	9.2	0
bin	9.4	0
bin	9.6	0
bin	9.8	0
bin	10	0
bin	10.2	0
bin	10.4	0
bin	10.6	0
bin	10.8	0
bin	11	0
bin	11.2	0
bin	11.4	0
bin	11.6	0
bin	11.8	0
bin	12	0
bin	12.2	0
bin	12.4	0
bin	12.6	0
bin	12.8	0
bin	13	0
bin	13.2	0
bin	13.4	0
bin	13.6	0
bin	13.8	0
bin	14	0
bin	14.2	1
bin	14.4	0
bin	14.6	0
bin	14.8	0
bin	15	0
bin	15.2	3
bin	15.4	19
bin	15.6	0
bin	15.8	0
bin	16	0
bin	16.2	0
bin	16.4	0
bin	16.6	0
bin	16.8	0
bin	17	0
bin	17.2	0
bin	17.4	0
bin	17.6	0
bin	17.8	0
bin	18	0
bin	18.2	0
bin	18.4	0
bin	18.6	0
bin	18.8	0
bin	19	0
bin	19.2	0
bin	19.4	0
bin	19.6	0
scalar Mrp8.node1.eth[0].mac txPk:count 2511
attr interpolationmode none
attr recordingmode count
attr source packetSentToLower
attr title "packets transmitted, count"
scalar Mrp8.node1.eth[0].mac txPk:sum(packetBytes) 2336755
attr interpolationmode none
attr recordingmode sum(packetBytes)
attr source packetSentToLower
attr title "packets transmitted, sum(packetBytes)"
scalar Mrp8.node1.eth[0].mac packetReceivedFromUpper:count 2644
attr interpolationmode none
attr recordingmode count
attr source packetReceivedFromUpper
attr title "packet bytes from higher layer, count"
scalar Mrp8.node1.eth[0].mac packetReceivedFromUpper:sum(packetBytes) 2452679
attr interpolationmode none
attr recordingmode sum(packetBytes)
attr source packetReceivedFromUpper
attr title "packet bytes from higher layer, sum(packetBytes)"
scalar Mrp8.node1.eth[0].mac passedUpPk:count 3549
attr interpolationmode none
attr recordingmode count
attr source packetSentToUpper
attr title "packets passed to higher layer, count"
scalar Mrp8.node1.eth[0].mac passedUpPk:sum(packetBytes) 3313482
attr interpolationmode none
attr recordingmode sum(packetBytes)
attr source packetSentToUpper
attr title "packets passed to higher layer, sum(packetBytes)"
scalar Mrp8.node1.eth[0].mac packetDropIncorrectlyReceived:count 0
attr interpolationmode none
attr recordingmode count
attr source packetDropReasonIsIncorrectlyReceived(packetDropped)
attr title "packet drop: incorrectly received, count"
scalar Mrp8.node1.eth[0].mac packetDropIncorrectlyReceived:sum(packetBytes) 0
attr interpolationmode none
attr recordingmode sum(packetBytes)
attr source packetDropReasonIsIncorrectlyReceived(packetDropped)
attr title "packet drop: incorrectly received, sum(packetBytes)"
scalar Mrp8.node1.eth[0].mac packetDropInterfaceDown:count 133
attr interpolationmode none
attr recordingmode count
attr source packetDropReasonIsInterfaceDown(packetDropped)
attr title "packet drop: interface down, count"
scalar Mrp8.node1.eth[0].mac packetDropInterfaceDown:sum(packetBytes) 115982
attr interpolationmode none
attr recordingmode sum(packetBytes)
attr source packetDropReasonIsInterfaceDown(packetDropped)
attr title "packet drop: interface down, sum(packetBytes)"
scalar Mrp8.node1.eth[0].mac packetDropNotAddressedToUs:count 0
attr interpolationmode none
attr recordingmode count
attr source packetDropReasonIsNotAddressedToUs(packetDropped)
attr title "packet drop: not addressed to us, count"
scalar Mrp8.node1.eth[0].mac packetDropNotAddressedToUs:sum(packetBytes) 0
attr interpolationmode none
attr recordingmode sum(packetBytes)
attr source packetDropReasonIsNotAddressedToUs(packetDropped)
attr title "packet drop: not addressed to us, sum(packetBytes)"
scalar Mrp8.node1.eth[0] packetDropInterfaceDown:count 133
attr interpolationmode none
attr recordingmode count
attr source packetDropReasonIsInterfaceDown(packetDropped)
attr title "packet drops: interface down, count"
scalar Mrp8.node1.eth[0] packetDropInterfaceDown:sum(packetBytes) 115982
attr interpolationmode none
attr recordingmode sum(packetBytes)
attr source packetDropReasonIsInterfaceDown(packetDropped)
attr title "packet drops: interface down, sum(packetBytes)"
scalar Mrp8.node1.eth[0] packetDropNoCarrier:count 0
attr interpolationmode none
attr recordingmode count
attr source packetDropReasonIsNoCarrier(packetDropped)
attr title "packet drops: no carrier, count"
scalar Mrp8.node1.eth[0] packetDropNoCarrier:sum(packetBytes) 0
attr interpolationmode none
attr recordingmode sum(packetBytes)
attr source packetDropReasonIsNoCarrier(packetDropped)
attr title "packet drops: no carrier, sum(packetBytes)"
scalar Mrp8.node1.eth[1].queue queueLength:last 0
attr autoWarmupFilter false
attr interpolationmode sample-hold
attr recordingmode last
attr source "warmup(atomic(constant0(packetPushEnded) + count(packetPushStarted) - count(packetPulled) - count(packetRemoved) - count(packetDropped)))"
attr title "queue length, last"
attr unit pk
scalar Mrp8.node1.eth[1].queue queueLength:max 2
attr autoWarmupFilter false
attr interpolationmode sample-hold
attr recordingmode max
attr source "warmup(atomic(constant0(packetPushEnded) + count(packetPushStarted) - count(packetPulled) - count(packetRemoved) - count(packetDropped)))"
attr title "queue length, max"
attr unit pk
scalar Mrp8.node1.eth[1].queue queueLength:timeavg 0.00010766666666667
attr autoWarmupFilter false
attr interpolationmode sample-hold
attr recordingmode timeavg
attr source "warmup(atomic(constant0(packetPushEnded) + count(packetPushStarted) - count(packetPulled) - count(packetRemoved) - count(packetDropped)))"
attr title "queue length, timeavg"
attr unit pk
scalar Mrp8.node1.eth[1].queue queueBitLength:last 0
attr autoWarmupFilter false
attr interpolationmode sample-hold
attr recordingmode last
attr source "warmup(atomic(constant0(packetPushEnded) + sum(packetLength(packetPushStarted)) - sum(packetLength(packetPulled)) - sum(packetLength(packetRemoved)) - sum(packetLength(packetDropped))))"
attr title "queue bit length, last"
attr unit b
scalar Mrp8.node1.eth[1].queue queueBitLength:max 1088
attr autoWarmupFilter false
attr interpolationmode sample-hold
attr recordingmode max
attr source "warmup(atomic(constant0(packetPushEnded) + sum(packetLength(packetPushStarted)) - sum(packetLength(packetPulled)) - sum(packetLength(packetRemoved)) - sum(packetLength(packetDropped))))"
attr title "queue bit length, max"
attr unit b
scalar Mrp8.node1.eth[1].queue queueBitLength:timeavg 0.059813333333333
attr autoWarmupFilter false
attr interpolationmode sample-hold
attr recordingmode timeavg
attr source "warmup(atomic(constant0(packetPushEnded) + sum(packetLength(packetPushStarted)) - sum(packetLength(packetPulled)) - sum(packetLength(packetRemoved)) - sum(packetLength(packetDropped))))"
attr title "queue bit length, timeavg"
attr unit b
statistic Mrp8.node1.eth[1].queue queueingTime:histogram
field count 3367
field mean 9.5931095931096e-08
field stddev 1.5271375885958e-06
field min 0
field max 4e-05
field sum 0.000323
field sqrsum 7.881e-09
attr interpolationmode none
attr recordingmode histogram
attr source queueingTime(packetPulled)
attr title "queueing times"
attr unit s
bin	-inf	0
bin	0	3349
bin	6e-07	0
bin	1.2e-06	0
bin	1.8e-06	1
bin	2.4e-06	0
bin	3e-06	0
bin	3.6e-06	1
bin	4.2e-06	0
bin	4.8e-06	1
bin	5.4e-06	0
bin	6e-06	0
bin	6.6e-06	0
bin	7.2e-06	0
bin	7.8e-06	0
bin	8.4e-06	0
bin	9e-06	0
bin	9.6e-06	2
bin	1.02e-05	0
bin	1.08e-05	2
bin	1.14e-05	0
bin	1.2e-05	0
bin	1.26e-05	0
bin	1.32e-05	0
bin	1.38e-05	0
bin	1.44e-05	0
bin	1.5e-05	0
bin	1.56e-05	1
bin	1.62e-05	0
bin	1.68e-05	1
bin	1.74e-05	0
bin	1.8e-05	0
bin	1.86e-05	1
bin	1.92e-05	0
bin	1.98e-05	2
bin	2.04e-05	2
bin	2.1e-05	0
bin	2.16e-05	0
bin	2.22e-05	0
bin	2.28e-05	1
bin	2.34e-05	0
bin	2.4e-05	0
bin	2.46e-05	0
bin	2.52e-05	0
bin	2.58e-05	0
bin	2.64e-05	0
bin	2.7e-05	0
bin	2.76e-05	0
bin	2.82e-05	0
bin	2.88e-05	0
bin	2.94e-05	0
bin	3e-05	0
bin	3.06e-05	0
bin	3.12e-05	0
bin	3.18e-05	0
bin	3.24e-05	0
bin	3.3e-05	0
bin	3.36e-05	1
bin	3.42e-05	0
bin	3.48e-05	0
bin	3.54e-05	0
bin	3.6e-05	0
bin	3.66e-05	0
bin	3.72e-05	0
bin	3.78e-05	0
bin	3.84e-05	1
bin	3.9e-05	0
bin	3.96e-05	1
bin	4.02e-05	0
scalar Mrp8.node1.eth[1].queue outgoingPackets:count 3367
attr recordingmode count
attr source packetPulled
attr title "outgoing packets, count"
attr unit pk
scalar Mrp8.node1.eth[1].queue outgoingPacketLengths:sum 25075512
attr interpolationmode none
attr recordingmode sum
attr source packetLength(packetPulled)
attr title "outgoing packet lengths, sum"
attr unit b
statistic Mrp8.node1.eth[1].queue outgoingPacketLengths:histogram
field count 3367
field mean 7447.4345114345
field stddev 1245.7539486461
field min 496
field max 7672
field sum 25075512
field sqrsum 191971938624
attr interpolationmode none
attr recordingmode histogram
attr source packetLength(packetPulled)
attr title "outgoing packet lengths"
attr unit b
bin	-inf	0
bin	0	0
bin	200	0
bin	400	106
bin	600	0
bin	800	0
bin	1000	0
bin	1200	0
bin	1400	0
bin	1600	0
bin	1800	0
bin	2000	0
bin	2200	0
bin	2400	0
bin	2600	0
bin	2800	0
bin	3000	0
bin	3200	0
bin	3400	0
bin	3600	0
bin	3800	0
bin	4000	0
bin	4200	0
bin	4400	0
bin	4600	0
bin	4800	0
bin	5000	0
bin	5200	0
bin	5400	0
bin	5600	0
bin	5800	0
bin	6000	0
bin	6200	0
bin	6400	0
bin	6600	0
bin	6800	0
bin	7000	0
bin	7200	0
bin	7400	0
bin	7600	3261
bin	7800	0
bin	8000	0
bin	8200	0
bin	8400	0
bin	8600	0
bin	8800	0
bin	9000	0
bin	9200	0
bin	9400	0
bin	9600	0
statistic Mrp8.node1.eth[1].queue flowQueueingTime:histogram
field count 0
field mean -nan
field stddev nan
field min nan
field max nan
field sum 0
field sqrsum 0
attr interpolationmode none
attr recordingmode histogram
attr source queueingTime(demuxFlow(packetPulled))
attr title "flow queueing times"
attr unit s
bin	-inf	0
bin	0	0
bin	1	0
scalar Mrp8.node1.eth[1].queue incomingPackets:count 3367
attr recordingmode count
attr source packetPushStarted
attr title "incoming packets, count"
attr unit pk
scalar Mrp8.node1.eth[1].queue incomingPacketLengths:sum 25075512
attr interpolationmode none
attr recordingmode sum
attr source packetLength(packetPushStarted)
attr title "incoming packet lengths, sum"
attr unit b
statistic Mrp8.node1.eth[1].queue incomingPacketLengths:histogram
field count 3367
field mean 7447.4345114345
field stddev 1245.7539486461
field min 496
field max 7672
field sum 25075512
field sqrsum 191971938624
attr interpolationmode none
attr recordingmode histogram
attr source packetLength(packetPushStarted)
attr title "incoming packet lengths"
attr unit b
bin	-inf	0
bin	0	0
bin	200	0
bin	400	106
bin	600	0
bin	800	0
bin	1000	0
bin	1200	0
bin	1400	0
bin	1600	0
bin	1800	0
bin	2000	0
bin	2200	0
bin	2400	0
bin	2600	0
bin	2800	0
bin	3000	0
bin	3200	0
bin	3400	0
bin	3600	0
bin	3800	0
bin	4000	0
bin	4200	0
bin	4400	0
bin	4600	0
bin	4800	0
bin	5000	0
bin	5200	0
bin	5400	0
bin	5600	0
bin	5800	0
bin	6000	0
bin	6200	0
bin	6400	0
bin	6600	0
bin	6800	0
bin	7000	0
bin	7200	0
bin	7400	0
bin	7600	3261
bin	7800	0
bin	8000	0
bin	8200	0
bin	8400	0
bin	8600	0
bin	8800	0
bin	9000	0
bin	9200	0
bin	9400	0
bin	9600	0
scalar Mrp8.node1.eth[1].queue droppedPacketsQueueOverflow:count 0
attr interpolationmode none
attr recordingmode count
attr source packetDropReasonIsQueueOverflow(packetDropped)
attr title "dropped packets: queue overflow, count"
attr unit pk
scalar Mrp8.node1.eth[1].queue droppedPacketLengthsQueueOverflow:sum 0
attr interpolationmode none
attr recordingmode sum
attr source packetLength(packetDropReasonIsQueueOverflow(packetDropped))
attr title "dropped packet lengths: queue overflow, sum"
attr unit b
scalar Mrp8.node1.eth[1].mac "simulated time" 3
scalar Mrp8.node1.eth[1].mac full-duplex 1
scalar Mrp8.node1.eth[1].mac "frames/sec sent" 1122.3333333333
scalar Mrp8.node1.eth[1].mac "frames/sec rcvd" 572.33333333333
scalar Mrp8.node1.eth[1].mac "bits/sec sent" 8358584
scalar Mrp8.node1.eth[1].mac "bits/sec rcvd" 4172376
scalar Mrp8.node1.eth[1].mac "rx channel idle (%)" 95.810766666667
scalar Mrp8.node1.eth[1].mac "rx channel utilization (%)" 4.1892333333333
scalar Mrp8.node1.eth[1].mac rxPausePkUnits:count 0
attr interpolationmode none
attr recordingmode count
attr title "pause units received, count"
scalar Mrp8.node1.eth[1].mac rxPausePkUnits:sum 0
attr interpolationmode none
attr recordingmode sum
attr title "pause units received, sum"
scalar Mrp8.node1.eth[1].mac txPausePkUnits:count 0
attr interpolationmode none
attr recordingmode count
attr title "pause units sent, count"
scalar Mrp8.node1.eth[1].mac txPausePkUnits:sum 0
attr interpolationmode none
attr recordingmode sum
attr title "pause units sent, sum"
scalar Mrp8.node1.eth[1].mac rxPkOk:count 1717
attr interpolationmode none
attr recordingmode count
attr source rxPkOk
attr title "packets received OK, count"
scalar Mrp8.node1.eth[1].mac rxPkOk:sum(packetBytes) 1564641
attr interpolationmode none
attr recordingmode sum(packetBytes)
attr source rxPkOk
attr title "packets received OK, sum(packetBytes)"
statistic Mrp8.node1.eth[1].mac throughput:histogram
field count 40
field mean 10070515.574195
field stddev 5640560.9079215
field min 12480
field max 15591751.24859
field sum 402820622.96781
field sqrsum 5.2974325240873e+15
attr interpolationmode linear
attr recordingmode histogram
attr source throughput(transmissionEnded)
attr title throughput
attr unit bps
bin	-inf	0
bin	0	5
bin	200000	0
bin	400000	0
bin	600000	0
bin	800000	0
bin	1000000	0
bin	1200000	0
bin	1400000	0
bin	1600000	0
bin	1800000	0
bin	2000000	0
bin	2200000	0
bin	2400000	1
bin	2600000	0
bin	2800000	0
bin	3000000	0
bin	3200000	0
bin	3400000	0
bin	3600000	0
bin	3800000	0
bin	4000000	0
bin	4200000	2
bin	4400000	0
bin	4600000	0
bin	4800000	0
bin	5000000	0
bin	5200000	0
bin	5400000	0
bin	5600000	0
bin	5800000	1
bin	6000000	0
bin	6200000	0
bin	6400000	0
bin	6600000	0
bin	6800000	0
bin	7000000	0
bin	7200000	0
bin	7400000	0
bin	7600000	9
bin	7800000	2
bin	8000000	0
bin	8200000	0
bin	8400000	0
bin	8600000	0
bin	8800000	1
bin	9000000	0
bin	9200000	0
bin	9400000	0
bin	9600000	0
bin	9800000	0
bin	10000000	0
bin	10200000	0
bin	10400000	0
bin	10600000	0
bin	10800000	0
bin	11000000	0
bin	11200000	0
bin	11400000	0
bin	11600000	0
bin	11800000	0
bin	12000000	0
bin	12200000	0
bin	12400000	0
bin	12600000	1
bin	12800000	0
bin	13000000	0
bin	13200000	0
bin	13400000	0
bin	13600000	0
bin	13800000	0
bin	14000000	0
bin	14200000	0
bin	14400000	0
bin	14600000	0
bin	14800000	0
bin	15000000	0
bin	15200000	0
bin	15400000	18
bin	15600000	0
bin	15800000	0
bin	16000000	0
bin	16200000	0
bin	16400000	0
bin	16600000	0
bin	16800000	0
bin	17000000	0
bin	17200000	0
bin	17400000	0
bin	17600000	0
bin	17800000	0
bin	18000000	0
bin	18200000	0
bin	18400000	0
bin	18600000	0
bin	18800000	0
bin	19000000	0
bin	19200000	0
bin	19400000	0
bin	19600000	0
statistic Mrp8.node1.eth[1].mac utilization:histogram
field count 40
field mean 10.019870234581
field stddev 5.6017622953291
field min 0.012
field max 15.445195772766
field sum 400.79480938325
field sqrsum 5239.7218724353
attr interpolationmode linear
attr recordingmode histogram
attr source "100 * utilization(count(transmissionStarted) - count(transmissionEnded))"
attr title utilization
attr unit %
bin	-inf	0
bin	0	5
bin	0.2	0
bin	0.4	0
bin	0.6	0
bin	0.8	0
bin	1	0
bin	1.2	0
bin	1.4	0
bin	1.6	0
bin	1.8	0
bin	2	0
bin	2.2	0
bin	2.4	1
bin	2.6	0
bin	2.8	0
bin	3	0
bin	3.2	0
bin	3.4	0
bin	3.6	0
bin	3.8	0
bin	4	0
bin	4.2	2
bin	4.4	0
bin	4.6	0
bin	4.8	0
bin	5	0
bin	5.2	0
bin	5.4	0
bin	5.6	1
bin	5.8	0
bin	6	0
bin	6.2	0
bin	6.4	0
bin	6.6	0
bin	6.8	0
bin	7	0
bin	7.2	0
bin	7.4	0
bin	7.6	10
bin	7.8	1
bin	8	0
bin	8.2	0
bin	8.4	0
bin	8.6	1
bin	8.8	0
bin	9	0
bin	9.2	0
bin	9.4	0
bin	9.6	0
bin	9.8	0
bin	10	0
bin	10.2	0
bin	10.4	0
bin	10.6	0
bin	10.8	0
bin	11	0
bin	11.2	0
bin	11.4	0
bin	11.6	0
bin	11.8	0
bin	12	0
bin	12.2	0
bin	12.4	1
bin	12.6	0
bin	12.8	0
bin	13	0
bin	13.2	0
bin	13.4	0
bin	13.6	0
bin	13.8	0
bin	14	0
bin	14.2	0
bin	14.4	0
bin	14.6	0
bin	14.8	0
bin	15	0
bin	15.2	9
bin	15.4	9
bin	15.6	0
bin	15.8	0
bin	16	0
bin	16.2	0
bin	16.4	0
bin	16.6	0
bin	16.8	0
bin	17	0
bin	17.2	0
bin	17.4	0
bin	17.6	0
bin	17.8	0
bin	18	0
bin	18.2	0
bin	18.4	0
bin	18.6	0
bin	18.8	0
bin	19	0
bin	19.2	0
bin	19.4	0
scalar Mrp8.node1.eth[1].mac txPk:count 3367
attr interpolationmode none
attr recordingmode count
attr source packetSentToLower
attr title "packets transmitted, count"
scalar Mrp8.node1.eth[1].mac txPk:sum(packetBytes) 3134469
attr interpolationmode none
attr recordingmode sum(packetBytes)
attr source packetSentToLower
attr title "packets transmitted, sum(packetBytes)"
scalar Mrp8.node1.eth[1].mac packetReceivedFromUpper:count 3367
attr interpolationmode none
attr recordingmode count
attr source packetReceivedFromUpper
attr title "packet bytes from higher layer, count"
scalar Mrp8.node1.eth[1].mac packetReceivedFromUpper:sum(packetBytes) 3134439
attr interpolationmode none
attr recordingmode sum(packetBytes)
attr source packetReceivedFromUpper
attr title "packet bytes from higher layer, sum(packetBytes)"
scalar Mrp8.node1.eth[1].mac passedUpPk:count 1717
attr interpolationmode none
attr recordingmode count
attr source packetSentToUpper
attr title "packets passed to higher layer, count"
scalar Mrp8.node1.eth[1].mac passedUpPk:sum(packetBytes) 1564641
attr interpolationmode none
attr recordingmode sum(packetBytes)
attr source packetSentToUpper
attr title "packets passed to higher layer, sum(packetBytes)"
scalar Mrp8.node1.eth[1].mac packetDropIncorrectlyReceived:count 0
attr interpolationmode none
attr recordingmode count
attr source packetDropReasonIsIncorrectlyReceived(packetDropped)
attr title "packet drop: incorrectly received, count"
scalar Mrp8.node1.eth[1].mac packetDropIncorrectlyReceived:sum(packetBytes) 0
attr interpolationmode none
attr recordingmode sum(packetBytes)
attr source packetDropReasonIsIncorrectlyReceived(packetDropped)
attr title "packet drop: incorrectly received, sum(packetBytes)"
scalar Mrp8.node1.eth[1].mac packetDropInterfaceDown:count 0
attr interpolationmode none
attr recordingmode count
attr source packetDropReasonIsInterfaceDown(packetDropped)
attr title "packet drop: interface down, count"
scalar Mrp8.node1.eth[1].mac packetDropInterfaceDown:sum(packetBytes) 0
attr interpolationmode none
attr recordingmode sum(packetBytes)
attr source packetDropReasonIsInterfaceDown(packetDropped)
attr title "packet drop: interface down, sum(packetBytes)"
scalar Mrp8.node1.eth[1].mac packetDropNotAddressedToUs:count 0
attr interpolationmode none
attr recordingmode count
attr source packetDropReasonIsNotAddressedToUs(packetDropped)
attr title "packet drop: not addressed to us, count"
scalar Mrp8.node1.eth[1].mac packetDropNotAddressedToUs:sum(packetBytes) 0
attr interpolationmode none
attr recordingmode sum(packetBytes)
attr source packetDropReasonIsNotAddressedToUs(packetDropped)
[...]
attr recordingmode sum
attr source "packetLength(demuxFlow(merge(packetPushedIn, packetPulledIn)))"
attr title "flow specific incoming packet lengths, sum"
attr unit b
statistic Mrp8.host4.eth.phyLayer.phyHeaderInserter flowIncomingPacketLengths:histogram
field count 0
field mean -nan
field stddev nan
field min nan
field max nan
field sum 0
field sqrsum 0
attr interpolationmode none
attr recordingmode histogram
attr source "packetLength(demuxFlow(merge(packetPushedIn, packetPulledIn)))"
attr title "flow specific incoming packet lengths"
attr unit b
bin	-inf	0
bin	0	0
bin	1	0
scalar Mrp8.host4.eth.phyLayer.outboundEmitter outgoingPackets:count 4269
attr recordingmode count
attr source "merge(packetPushedOut, packetPulledOut)"
attr title "outgoing packets, count"
attr unit pk
scalar Mrp8.host4.eth.phyLayer.outboundEmitter outgoingPacketLengths:sum 33024984
attr interpolationmode none
attr recordingmode sum
attr source "packetLength(merge(packetPushedOut, packetPulledOut))"
attr title "outgoing packet lengths, sum"
attr unit b
statistic Mrp8.host4.eth.phyLayer.outboundEmitter outgoingPacketLengths:histogram
field count 4269
field mean 7736
field stddev 0
field min 7736
field max 7736
field sum 33024984
field sqrsum 255481276224
attr interpolationmode none
attr recordingmode histogram
attr source "packetLength(merge(packetPushedOut, packetPulledOut))"
attr title "outgoing packet lengths"
attr unit b
bin	-inf	0
bin	7735	0
bin	7736	4269
bin	7737	0
scalar Mrp8.host4.eth.phyLayer.outboundEmitter flowOutgoingPacketLengths:sum 0
attr interpolationmode none
attr recordingmode sum
attr source "packetLength(demuxFlow(merge(packetPushedOut, packetPulledOut)))"
attr title "flow specific outgoing packet lengths, sum"
attr unit b
statistic Mrp8.host4.eth.phyLayer.outboundEmitter flowOutgoingPacketLengths:histogram
field count 0
field mean -nan
field stddev nan
field min nan
field max nan
field sum 0
field sqrsum 0
attr interpolationmode none
attr recordingmode histogram
attr source "packetLength(demuxFlow(merge(packetPushedOut, packetPulledOut)))"
attr title "flow specific outgoing packet lengths"
attr unit b
bin	-inf	0
bin	0	0
bin	1	0
scalar Mrp8.host4.eth.phyLayer.outboundEmitter incomingPackets:count 4269
attr recordingmode count
attr source "merge(packetPushedIn, packetPulledIn)"
attr title "incoming packets, count"
attr unit pk
scalar Mrp8.host4.eth.phyLayer.outboundEmitter incomingPacketLengths:sum 33024984
attr interpolationmode none
attr recordingmode sum
attr source "packetLength(merge(packetPushedIn, packetPulledIn))"
attr title "incoming packet lengths, sum"
attr unit b
statistic Mrp8.host4.eth.phyLayer.outboundEmitter incomingPacketLengths:histogram
field count 4269
field mean 7736
field stddev 0
field min 7736
field max 7736
field sum 33024984
field sqrsum 255481276224
attr interpolationmode none
attr recordingmode histogram
attr source "packetLength(merge(packetPushedIn, packetPulledIn))"
attr title "incoming packet lengths"
attr unit b
bin	-inf	0
bin	7735	0
bin	7736	4269
bin	7737	0
scalar Mrp8.host4.eth.phyLayer.outboundEmitter flowIncomingPacketLengths:sum 0
attr interpolationmode none
attr recordingmode sum
attr source "packetLength(demuxFlow(merge(packetPushedIn, packetPulledIn)))"
attr title "flow specific incoming packet lengths, sum"
attr unit b
statistic Mrp8.host4.eth.phyLayer.outboundEmitter flowIncomingPacketLengths:histogram
field count 0
field mean -nan
field stddev nan
field min nan
field max nan
field sum 0
field sqrsum 0
attr interpolationmode none
attr recordingmode histogram
attr source "packetLength(demuxFlow(merge(packetPushedIn, packetPulledIn)))"
attr title "flow specific incoming packet lengths"
attr unit b
bin	-inf	0
bin	0	0
bin	1	0
scalar Mrp8.host4.eth.phyLayer.transmitter propagationTime 1e-06
statistic Mrp8.host4.eth.phyLayer.transmitter throughput:histogram
field count 48
field mean 12601848.468043
field stddev 5109048.0875675
field min 0
field max 15602691.854544
field sum 604888726.46607
field sqrsum 8.8495275719236e+15
attr interpolationmode linear
attr recordingmode histogram
attr source throughput(transmissionEnded)
attr title throughput
attr unit bps
bin	-inf	0
bin	0	5
bin	200000	0
bin	400000	0
bin	600000	0
bin	800000	0
bin	1000000	0
bin	1200000	0
bin	1400000	0
bin	1600000	0
bin	1800000	0
bin	2000000	0
bin	2200000	0
bin	2400000	0
bin	2600000	0
bin	2800000	0
bin	3000000	0
bin	3200000	0
bin	3400000	0
bin	3600000	0
bin	3800000	0
bin	4000000	0
bin	4200000	0
bin	4400000	0
bin	4600000	0
bin	4800000	0
bin	5000000	0
bin	5200000	0
bin	5400000	0
bin	5600000	0
bin	5800000	0
bin	6000000	0
bin	6200000	0
bin	6400000	0
bin	6600000	0
bin	6800000	0
bin	7000000	0
bin	7200000	0
bin	7400000	0
bin	7600000	5
bin	7800000	1
bin	8000000	0
bin	8200000	0
bin	8400000	0
bin	8600000	0
bin	8800000	0
bin	9000000	1
bin	9200000	0
bin	9400000	0
bin	9600000	0
bin	9800000	0
bin	10000000	0
bin	10200000	0
bin	10400000	0
bin	10600000	0
bin	10800000	0
bin	11000000	0
bin	11200000	0
bin	11400000	0
bin	11600000	0
bin	11800000	2
bin	12000000	0
bin	12200000	0
bin	12400000	0
bin	12600000	0
bin	12800000	0
bin	13000000	0
bin	13200000	0
bin	13400000	0
bin	13600000	0
bin	13800000	0
bin	14000000	0
bin	14200000	0
bin	14400000	0
bin	14600000	0
bin	14800000	0
bin	15000000	1
bin	15200000	1
bin	15400000	31
bin	15600000	1
bin	15800000	0
bin	16000000	0
bin	16200000	0
bin	16400000	0
bin	16600000	0
bin	16800000	0
bin	17000000	0
bin	17200000	0
bin	17400000	0
bin	17600000	0
bin	17800000	0
bin	18000000	0
bin	18200000	0
bin	18400000	0
bin	18600000	0
bin	18800000	0
bin	19000000	0
bin	19200000	0
bin	19400000	0
bin	19600000	0
statistic Mrp8.host4.eth.phyLayer.transmitter utilization:histogram
field count 48
field mean 12.544495440435
field stddev 5.0859004537692
field min 0
field max 15.42931569983
field sum 602.13578114088
field sqrsum 8769.2095820502
attr interpolationmode linear
attr recordingmode histogram
attr source "100 * utilization(count(transmissionStarted) - count(transmissionEnded))"
attr title utilization
attr unit %
bin	-inf	0
bin	0	5
bin	0.2	0
bin	0.4	0
bin	0.6	0
bin	0.8	0
bin	1	0
bin	1.2	0
bin	1.4	0
bin	1.6	0
bin	1.8	0
bin	2	0
bin	2.2	0
bin	2.4	0
bin	2.6	0
bin	2.8	0
bin	3	0
bin	3.2	0
bin	3.4	0
bin	3.6	0
bin	3.8	0
bin	4	0
bin	4.2	0
bin	4.4	0
bin	4.6	0
bin	4.8	0
bin	5	0
bin	5.2	0
bin	5.4	0
bin	5.6	0
bin	5.8	0
bin	6	0
bin	6.2	0
bin	6.4	0
bin	6.6	0
bin	6.8	0
bin	7	0
bin	7.2	0
bin	7.4	0
bin	7.6	6
bin	7.8	0
bin	8	0
bin	8.2	0
bin	8.4	0
bin	8.6	0
bin	8.8	0
bin	9	1
bin	9.2	0
bin	9.4	0
bin	9.6	0
bin	9.8	0
bin	10	0
bin	10.2	0
bin	10.4	0
bin	10.6	0
bin	10.8	0
bin	11	0
bin	11.2	0
bin	11.4	0
bin	11.6	2
bin	11.8	0
bin	12	0
bin	12.2	0
bin	12.4	0
bin	12.6	0
bin	12.8	0
bin	13	0
bin	13.2	0
bin	13.4	0
bin	13.6	0
bin	13.8	0
bin	14	0
bin	14.2	0
bin	14.4	0
bin	14.6	0
bin	14.8	0
bin	15	1
bin	15.2	28
bin	15.4	5
bin	15.6	0
bin	15.8	0
bin	16	0
bin	16.2	0
bin	16.4	0
bin	16.6	0
bin	16.8	0
bin	17	0
bin	17.2	0
bin	17.4	0
bin	17.6	0
bin	17.8	0
bin	18	0
bin	18.2	0
bin	18.4	0
bin	18.6	0
bin	18.8	0
bin	19	0
bin	19.2	0
bin	19.4	0
statistic Mrp8.host4.eth.phyLayer.transmitter transmissionTime:histogram
field count 4268
field mean 7.6999999999995e-05
field stddev 0
field min 7.7e-05
field max 7.7e-05
field sum 0.32863599999998
field sqrsum 2.5304971999999e-05
attr interpolationmode none
attr recordingmode histogram
attr source packetDuration(transmissionEnded)
attr title "transmission time"
attr unit s
bin	-inf	0
bin	0	4268
bin	0.01	0
bin	0.02	0
bin	0.03	0
bin	0.04	0
bin	0.05	0
bin	0.06	0
bin	0.07	0
bin	0.08	0
bin	0.09	0
bin	0.1	0
bin	0.11	0
bin	0.12	0
bin	0.13	0
bin	0.14	0
bin	0.15	0
bin	0.16	0
bin	0.17	0
bin	0.18	0
bin	0.19	0
bin	0.2	0
bin	0.21	0
bin	0.22	0
bin	0.23	0
bin	0.24	0
bin	0.25	0
bin	0.26	0
bin	0.27	0
bin	0.28	0
bin	0.29	0
bin	0.3	0
bin	0.31	0
bin	0.32	0
bin	0.33	0
bin	0.34	0
bin	0.35	0
bin	0.36	0
bin	0.37	0
bin	0.38	0
bin	0.39	0
bin	0.4	0
bin	0.41	0
bin	0.42	0
bin	0.43	0
bin	0.44	0
bin	0.45	0
bin	0.46	0
bin	0.47	0
bin	0.48	0
bin	0.49	0
bin	0.5	0
bin	0.51	0
statistic Mrp8.host4.eth.phyLayer.transmitter flowTransmissionTime:histogram
field count 0
field mean -nan
field stddev nan
field min nan
field max nan
field sum 0
field sqrsum 0
attr interpolationmode none
attr recordingmode histogram
attr source packetDuration(demuxFlow(transmissionEnded))
attr title "flow transmission time"
attr unit s
bin	-inf	0
bin	0	0
bin	1	0
scalar Mrp8.host4.eth.phyLayer.phyHeaderChecker outgoingPackets:count 2773
attr recordingmode count
attr source "merge(packetPushedOut, packetPulledOut)"
attr title "outgoing packets, count"
attr unit pk
scalar Mrp8.host4.eth.phyLayer.phyHeaderChecker outgoingPacketLengths:sum 21274456
attr interpolationmode none
attr recordingmode sum
attr source "packetLength(merge(packetPushedOut, packetPulledOut))"
attr title "outgoing packet lengths, sum"
attr unit b
statistic Mrp8.host4.eth.phyLayer.phyHeaderChecker outgoingPacketLengths:histogram
field count 2773
field mean 7672
field stddev 0
field min 7672
field max 7672
field sum 21274456
field sqrsum 163217626432
attr interpolationmode none
attr recordingmode histogram
attr source "packetLength(merge(packetPushedOut, packetPulledOut))"
attr title "outgoing packet lengths"
attr unit b
bin	-inf	0
bin	7671	0
bin	7672	2773
bin	7673	0
scalar Mrp8.host4.eth.phyLayer.phyHeaderChecker flowOutgoingPacketLengths:sum 0
attr interpolationmode none
attr recordingmode sum
attr source "packetLength(demuxFlow(merge(packetPushedOut, packetPulledOut)))"
attr title "flow specific outgoing packet lengths, sum"
attr unit b
statistic Mrp8.host4.eth.phyLayer.phyHeaderChecker flowOutgoingPacketLengths:histogram
field count 0
field mean -nan
field stddev nan
field min nan
field max nan
field sum 0
field sqrsum 0
attr interpolationmode none
attr recordingmode histogram
attr source "packetLength(demuxFlow(merge(packetPushedOut, packetPulledOut)))"
attr title "flow specific outgoing packet lengths"
attr unit b
bin	-inf	0
bin	0	0
bin	1	0
scalar Mrp8.host4.eth.phyLayer.phyHeaderChecker incomingPackets:count 2773
attr recordingmode count
attr source "merge(packetPushedIn, packetPulledIn)"
attr title "incoming packets, count"
attr unit pk
scalar Mrp8.host4.eth.phyLayer.phyHeaderChecker incomingPacketLengths:sum 21451928
attr interpolationmode none
attr recordingmode sum
attr source "packetLength(merge(packetPushedIn, packetPulledIn))"
attr title "incoming packet lengths, sum"
attr unit b
statistic Mrp8.host4.eth.phyLayer.phyHeaderChecker incomingPacketLengths:histogram
field count 2773
field mean 7736
field stddev 0
field min 7736
field max 7736
field sum 21451928
field sqrsum 165952115008
attr interpolationmode none
attr recordingmode histogram
attr source "packetLength(merge(packetPushedIn, packetPulledIn))"
attr title "incoming packet lengths"
attr unit b
bin	-inf	0
bin	7735	0
bin	7736	2773
bin	7737	0
scalar Mrp8.host4.eth.phyLayer.phyHeaderChecker flowIncomingPacketLengths:sum 0
attr interpolationmode none
attr recordingmode sum
attr source "packetLength(demuxFlow(merge(packetPushedIn, packetPulledIn)))"
attr title "flow specific incoming packet lengths, sum"
attr unit b
statistic Mrp8.host4.eth.phyLayer.phyHeaderChecker flowIncomingPacketLengths:histogram
field count 0
field mean -nan
field stddev nan
field min nan
field max nan
field sum 0
field sqrsum 0
attr interpolationmode none
attr recordingmode histogram
attr source "packetLength(demuxFlow(merge(packetPushedIn, packetPulledIn)))"
attr title "flow specific incoming packet lengths"
attr unit b
bin	-inf	0
bin	0	0
bin	1	0
scalar Mrp8.host4.eth.phyLayer.phyHeaderChecker droppedPackets:count 0
attr recordingmode count
attr source packetDropped
attr title "dropped packets, count"
attr unit pk
scalar Mrp8.host4.eth.phyLayer.phyHeaderChecker droppedPacketLengths:sum 0
attr interpolationmode none
attr recordingmode sum
attr source packetLength(packetDropped)
attr title "dropped packet lengths, sum"
attr unit b
statistic Mrp8.host4.eth.phyLayer.phyHeaderChecker droppedPacketLengths:histogram
field count 0
field mean -nan
field stddev nan
field min nan
field max nan
field sum 0
field sqrsum 0
attr interpolationmode none
attr recordingmode histogram
attr source packetLength(packetDropped)
attr title "dropped packet lengths"
attr unit b
bin	-inf	0
bin	0	0
bin	1	0
scalar Mrp8.host4.eth.phyLayer.phyHeaderChecker flowDroppedPacketLengths:sum 0
attr interpolationmode none
attr recordingmode sum
attr source packetLength(demuxFlow(packetDropped))
attr title "flow specific dropped packet lengths, sum"
attr unit b
statistic Mrp8.host4.eth.phyLayer.phyHeaderChecker flowDroppedPacketLengths:histogram
field count 0
field mean -nan
field stddev nan
field min nan
field max nan
field sum 0
field sqrsum 0
attr interpolationmode none
attr recordingmode histogram
attr source packetLength(demuxFlow(packetDropped))
attr title "flow specific dropped packet lengths"
attr unit b
bin	-inf	0
bin	0	0
bin	1	0
scalar Mrp8.host4.eth.phyLayer.inboundEmitter outgoingPackets:count 2773
attr recordingmode count
attr source "merge(packetPushedOut, packetPulledOut)"
attr title "outgoing packets, count"
attr unit pk
scalar Mrp8.host4.eth.phyLayer.inboundEmitter outgoingPacketLengths:sum 21451928
attr interpolationmode none
attr recordingmode sum
attr source "packetLength(merge(packetPushedOut, packetPulledOut))"
attr title "outgoing packet lengths, sum"
attr unit b
statistic Mrp8.host4.eth.phyLayer.inboundEmitter outgoingPacketLengths:histogram
field count 2773
field mean 7736
field stddev 0
field min 7736
field max 7736
field sum 21451928
field sqrsum 165952115008
attr interpolationmode none
attr recordingmode histogram
attr source "packetLength(merge(packetPushedOut, packetPulledOut))"
attr title "outgoing packet lengths"
attr unit b
bin	-inf	0
bin	7735	0
bin	7736	2773
bin	7737	0
scalar Mrp8.host4.eth.phyLayer.inboundEmitter flowOutgoingPacketLengths:sum 0
attr interpolationmode none
attr recordingmode sum
attr source "packetLength(demuxFlow(merge(packetPushedOut, packetPulledOut)))"
attr title "flow specific outgoing packet lengths, sum"
attr unit b
statistic Mrp8.host4.eth.phyLayer.inboundEmitter flowOutgoingPacketLengths:histogram
field count 0
field mean -nan
field stddev nan
field min nan
field max nan
field sum 0
field sqrsum 0
attr interpolationmode none
attr recordingmode histogram
attr source "packetLength(demuxFlow(merge(packetPushedOut, packetPulledOut)))"
attr title "flow specific outgoing packet lengths"
attr unit b
bin	-inf	0
bin	0	0
bin	1	0
scalar Mrp8.host4.eth.phyLayer.inboundEmitter incomingPackets:count 2773
attr recordingmode count
attr source "merge(packetPushedIn, packetPulledIn)"
attr title "incoming packets, count"
attr unit pk
scalar Mrp8.host4.eth.phyLayer.inboundEmitter incomingPacketLengths:sum 21451928
attr interpolationmode none
attr recordingmode sum
attr source "packetLength(merge(packetPushedIn, packetPulledIn))"
attr title "incoming packet lengths, sum"
attr unit b
statistic Mrp8.host4.eth.phyLayer.inboundEmitter incomingPacketLengths:histogram
field count 2773
field mean 7736
field stddev 0
field min 7736
field max 7736
field sum 21451928
field sqrsum 165952115008
attr interpolationmode none
attr recordingmode histogram
attr source "packetLength(merge(packetPushedIn, packetPulledIn))"
attr title "incoming packet lengths"
attr unit b
bin	-inf	0
bin	7735	0
bin	7736	2773
bin	7737	0
scalar Mrp8.host4.eth.phyLayer.inboundEmitter flowIncomingPacketLengths:sum 0
attr interpolationmode none
attr recordingmode sum
attr source "packetLength(demuxFlow(merge(packetPushedIn, packetPulledIn)))"
attr title "flow specific incoming packet lengths, sum"
attr unit b
statistic Mrp8.host4.eth.phyLayer.inboundEmitter flowIncomingPacketLengths:histogram
field count 0
field mean -nan
field stddev nan
field min nan
field max nan
field sum 0
field sqrsum 0
attr interpolationmode none
attr recordingmode histogram
attr source "packetLength(demuxFlow(merge(packetPushedIn, packetPulledIn)))"
attr title "flow specific incoming packet lengths"
attr unit b
bin	-inf	0
bin	0	0
bin	1	0
statistic Mrp8.host4.eth.phyLayer.receiver throughput:histogram
field count 36
field mean 8428316.0049663
field stddev 5435513.2010229
field min 0
field max 15498085.887137
field sum 303419376.17879
field sqrsum 3.5913825160119e+15
attr interpolationmode linear
attr recordingmode histogram
attr source throughput(receptionEnded)
attr title throughput
attr unit bps
bin	-inf	0
bin	0	5
bin	200000	0
bin	400000	0
bin	600000	0
bin	800000	0
bin	1000000	0
bin	1200000	0
bin	1400000	0
bin	1600000	0
bin	1800000	0
bin	2000000	0
bin	2200000	0
bin	2400000	1
bin	2600000	0
bin	2800000	0
bin	3000000	1
bin	3200000	0
bin	3400000	0
bin	3600000	1
bin	3800000	2
bin	4000000	0
bin	4200000	0
bin	4400000	0
bin	4600000	0
bin	4800000	0
bin	5000000	0
bin	5200000	0
bin	5400000	0
bin	5600000	0
bin	5800000	0
bin	6000000	0
bin	6200000	0
bin	6400000	0
bin	6600000	0
bin	6800000	0
bin	7000000	0
bin	7200000	0
bin	7400000	1
bin	7600000	13
bin	7800000	1
bin	8000000	0
bin	8200000	0
bin	8400000	0
bin	8600000	0
bin	8800000	0
bin	9000000	0
bin	9200000	0
bin	9400000	0
bin	9600000	0
bin	9800000	0
bin	10000000	0
bin	10200000	0
bin	10400000	0
bin	10600000	0
bin	10800000	0
bin	11000000	0
bin	11200000	0
bin	11400000	0
bin	11600000	0
bin	11800000	0
bin	12000000	0
bin	12200000	0
bin	12400000	0
bin	12600000	0
bin	12800000	0
bin	13000000	0
bin	13200000	0
bin	13400000	0
bin	13600000	0
bin	13800000	0
bin	14000000	0
bin	14200000	0
bin	14400000	0
bin	14600000	0
bin	14800000	0
bin	15000000	0
bin	15200000	0
bin	15400000	11
bin	15600000	0
bin	15800000	0
bin	16000000	0
bin	16200000	0
bin	16400000	0
bin	16600000	0
bin	16800000	0
bin	17000000	0
bin	17200000	0
bin	17400000	0
bin	17600000	0
bin	17800000	0
bin	18000000	0
bin	18200000	0
bin	18400000	0
bin	18600000	0
bin	18800000	0
bin	19000000	0
bin	19200000	0
bin	19400000	0
statistic Mrp8.host4.eth.phyLayer.receiver receptionTime:histogram
field count 2773
field mean 7.6999999999996e-05
field stddev 0
field min 7.7e-05
field max 7.7e-05
field sum 0.21352099999999
field sqrsum 1.6441117e-05
attr interpolationmode none
attr recordingmode histogram
attr source packetDuration(receptionEnded)
attr title "reception time"
attr unit s
bin	-inf	0
bin	0	2773
bin	0.01	0
bin	0.02	0
bin	0.03	0
bin	0.04	0
bin	0.05	0
bin	0.06	0
bin	0.07	0
bin	0.08	0
bin	0.09	0
bin	0.1	0
bin	0.11	0
bin	0.12	0
bin	0.13	0
bin	0.14	0
bin	0.15	0
bin	0.16	0
bin	0.17	0
bin	0.18	0
bin	0.19	0
bin	0.2	0
bin	0.21	0
bin	0.22	0
bin	0.23	0
bin	0.24	0
bin	0.25	0
bin	0.26	0
bin	0.27	0
bin	0.28	0
bin	0.29	0
bin	0.3	0
bin	0.31	0
bin	0.32	0
bin	0.33	0
bin	0.34	0
bin	0.35	0
bin	0.36	0
bin	0.37	0
bin	0.38	0
bin	0.39	0
bin	0.4	0
bin	0.41	0
bin	0.42	0
bin	0.43	0
bin	0.44	0
bin	0.45	0
bin	0.46	0
bin	0.47	0
bin	0.48	0
bin	0.49	0
bin	0.5	0
bin	0.51	0
statistic Mrp8.host4.eth.phyLayer.receiver flowReceptionTime:histogram
field count 0
field mean -nan
field stddev nan
field min nan
field max nan
field sum 0
field sqrsum 0
attr interpolationmode none
attr recordingmode histogram
attr source packetDuration(demuxFlow(receptionEnded))
attr title "flow reception time"
attr unit s
bin	-inf	0
bin	0	0
bin	1	0
scalar Mrp8.host4.eth packetDropInterfaceDown:count 0
attr interpolationmode none
attr recordingmode count
attr source packetDropReasonIsInterfaceDown(packetDropped)
attr title "packet drops: interface down, count"
scalar Mrp8.host4.eth packetDropInterfaceDown:sum(packetBytes) 0
attr interpolationmode none
attr recordingmode sum(packetBytes)
attr source packetDropReasonIsInterfaceDown(packetDropped)
attr title "packet drops: interface down, sum(packetBytes)"
scalar Mrp8.host4.eth packetDropNoCarrier:count 0
attr interpolationmode none
attr recordingmode count
attr source packetDropReasonIsNoCarrier(packetDropped)
attr title "packet drops: no carrier, count"
scalar Mrp8.host4.eth packetDropNoCarrier:sum(packetBytes) 0
attr interpolationmode none
attr recordingmode sum(packetBytes)
attr source packetDropReasonIsNoCarrier(packetDropped)
attr title "packet drops: no carrier, sum(packetBytes)"

