version 3
run SmallNetworkBase-0-20250108-11:28:30-11774
attr configname SmallNetworkBase
attr datetime 20250108-11:28:30
attr datetimef 20250108-112830
attr experiment SmallNetworkBase
attr inifile omnetpp.ini
attr iterationvars "$script=disconnect, $timingProfile=500, $ccmInterval=10, $enableLinkCheckOnRing=false"
attr iterationvarsd script=disconnect/timingProfile=500/ccmInterval=10/enableLinkCheckOnRing=false
attr iterationvarsf script=disconnect,timingProfile=500,ccmInterval=10,enableLinkCheckOnRing=false-
attr measurement "$script=disconnect, $timingProfile=500, $ccmInterval=10, $enableLinkCheckOnRing=false"
attr network Mrp4
attr processid 11774
attr repetition 0
attr replication #0
attr resultdir results
attr runnumber 0
attr seedset 0
itervar ccmInterval 10
itervar enableLinkCheckOnRing false
itervar script disconnect
itervar timingProfile 500
config **.param-recording false
config image-path /home/levy/workspace/inet/images
config output-scalar-file results/omnetpp.ini-SmallNetworkBase-#0.sca
config output-vector-file results/omnetpp.ini-SmallNetworkBase-#0.vec
config sim-time-limit 3s
config description "4 Nodes - 1 Ring"
config network Mrp4
config **.hasStatus true
config **.script "xmldoc(\"scripts.xml\", \"//script[@id='SmallNetwork-disconnect']\")"
config **.mrp.timingProfile "500 ms"
config **.mrp.ccmInterval "10 ms"
config **.mrp.enableLinkCheckOnRing false
config sim-time-limit 3s
config simtime-resolution us
config **.numEthInterfaces 2
config **.mrp.uuid0 333
config **.mrp.uuid1 999
config **.channel.delay 500ns
config **.bitrate 100Mbps
config **.mtu 1500B
config *.visualizer.infoVisualizer.modules "\"*.*.mrp\""
config *.visualizer.infoVisualizer.format "\"%t\""
config *.visualizer.infoVisualizer.placementHint "\"topCenter\""
config *.visualizer.infoVisualizer.textColor "\"blue\""
config *.visualizer.infoVisualizer.textAlignment "\"center\""
config *.visualizer.infoVisualizer.backgroundColor "\"\""
config *.visualizer.infoVisualizer.lineColor "\"\""
config **.annotationSpacing 0

scalar Mrp4.node0.bridging "processed frames" 0
scalar Mrp4.node0.bridging "discarded frames" 0
scalar Mrp4.node0.bridging "number of received BPDUs from STP module" 0
scalar Mrp4.node0.bridging "number of received frames from network (including BPDUs)" 0
scalar Mrp4.node0.bridging "number of dropped frames (including BPDUs)" 0
scalar Mrp4.node0.bridging "number of delivered BPDUs to the STP module" 0
scalar Mrp4.node0.bridging "number of dispatched BPDU frames to the network" 0
scalar Mrp4.node0.bridging "number of dispatched non-BDPU frames to the network" 0
scalar Mrp4.node0.bridging "number of received PDUs from MRP module" 0
scalar Mrp4.node0.bridging "number of received frames from network (including PDUs)" 0
scalar Mrp4.node0.bridging "number of dropped frames (including PDUs)" 0
scalar Mrp4.node0.bridging "number of delivered PDUs to the MRP module" 0
scalar Mrp4.node0.bridging "number of dispatched MRP frames to the network" 0
scalar Mrp4.node0.bridging "number of dispatched non-MRP frames to the network" 0
scalar Mrp4.node0.bridging packetDropped:count 0
scalar Mrp4.node0.bridging packetDropped:sum(packetBytes) 0
scalar Mrp4.node0.ethernet pauseSent:count 0
scalar Mrp4.node0.ethernet pauseSent:sum 0
scalar Mrp4.node0.ethernet decapPk:count 0
scalar Mrp4.node0.ethernet decapPk:sum(packetBytes) 0
scalar Mrp4.node0.ethernet encapPk:count 0
scalar Mrp4.node0.ethernet encapPk:sum(packetBytes) 0
scalar Mrp4.node0.eth[0].queue queueLength:last 0
scalar Mrp4.node0.eth[0].queue queueLength:max 0
scalar Mrp4.node0.eth[0].queue queueLength:timeavg 0
scalar Mrp4.node0.eth[0].queue queueBitLength:last 0
scalar Mrp4.node0.eth[0].queue queueBitLength:max 0
scalar Mrp4.node0.eth[0].queue queueBitLength:timeavg 0
scalar Mrp4.node0.eth[0].queue outgoingPackets:count 0
scalar Mrp4.node0.eth[0].queue outgoingPacketLengths:sum 0
scalar Mrp4.node0.eth[0].queue incomingPackets:count 0
scalar Mrp4.node0.eth[0].queue incomingPacketLengths:sum 0
scalar Mrp4.node0.eth[0].queue droppedPacketsQueueOverflow:count 0
scalar Mrp4.node0.eth[0].queue droppedPacketLengthsQueueOverflow:sum 0
scalar Mrp4.node0.eth[0].mac "simulated time" 3
scalar Mrp4.node0.eth[0].mac full-duplex 1
scalar Mrp4.node0.eth[0].mac "frames/sec sent" 0
scalar Mrp4.node0.eth[0].mac "frames/sec rcvd" 0
scalar Mrp4.node0.eth[0].mac "bits/sec sent" 0
scalar Mrp4.node0.eth[0].mac "bits/sec rcvd" 0
scalar Mrp4.node0.eth[0].mac "rx channel idle (%)" 100
scalar Mrp4.node0.eth[0].mac "rx channel utilization (%)" 0
scalar Mrp4.node0.eth[0].mac rxPausePkUnits:count 0
scalar Mrp4.node0.eth[0].mac rxPausePkUnits:sum 0
scalar Mrp4.node0.eth[0].mac txPausePkUnits:count 0
scalar Mrp4.node0.eth[0].mac txPausePkUnits:sum 0
scalar Mrp4.node0.eth[0].mac rxPkOk:count 0
scalar Mrp4.node0.eth[0].mac rxPkOk:sum(packetBytes) 0
scalar Mrp4.node0.eth[0].mac txPk:count 0
scalar Mrp4.node0.eth[0].mac txPk:sum(packetBytes) 0
scalar Mrp4.node0.eth[0].mac packetReceivedFromUpper:count 0
scalar Mrp4.node0.eth[0].mac packetReceivedFromUpper:sum(packetBytes) 0
scalar Mrp4.node0.eth[0].mac passedUpPk:count 0
scalar Mrp4.node0.eth[0].mac passedUpPk:sum(packetBytes) 0
scalar Mrp4.node0.eth[0].mac packetDropIncorrectlyReceived:count 0
scalar Mrp4.node0.eth[0].mac packetDropIncorrectlyReceived:sum(packetBytes) 0
scalar Mrp4.node0.eth[0].mac packetDropInterfaceDown:count 0
scalar Mrp4.node0.eth[0].mac packetDropInterfaceDown:sum(packetBytes) 0
scalar Mrp4.node0.eth[0].mac packetDropNotAddressedToUs:count 0
scalar Mrp4.node0.eth[0].mac packetDropNotAddressedToUs:sum(packetBytes) 0
scalar Mrp4.node0.eth[0] packetDropInterfaceDown:count 0
scalar Mrp4.node0.eth[0] packetDropInterfaceDown:sum(packetBytes) 0
scalar Mrp4.node0.eth[0] packetDropNoCarrier:count 0
scalar Mrp4.node0.eth[0] packetDropNoCarrier:sum(packetBytes) 0
scalar Mrp4.node0.eth[1].queue queueLength:last 0
scalar Mrp4.node0.eth[1].queue queueLength:max 0
scalar Mrp4.node0.eth[1].queue queueLength:timeavg 0
scalar Mrp4.node0.eth[1].queue queueBitLength:last 0
scalar Mrp4.node0.eth[1].queue queueBitLength:max 0
scalar Mrp4.node0.eth[1].queue queueBitLength:timeavg 0
scalar Mrp4.node0.eth[1].queue outgoingPackets:count 0
scalar Mrp4.node0.eth[1].queue outgoingPacketLengths:sum 0
scalar Mrp4.node0.eth[1].queue incomingPackets:count 0
scalar Mrp4.node0.eth[1].queue incomingPacketLengths:sum 0
scalar Mrp4.node0.eth[1].queue droppedPacketsQueueOverflow:count 0
scalar Mrp4.node0.eth[1].queue droppedPacketLengthsQueueOverflow:sum 0
scalar Mrp4.node0.eth[1].mac "simulated time" 3
scalar Mrp4.node0.eth[1].mac full-duplex 1
scalar Mrp4.node0.eth[1].mac "frames/sec sent" 0
scalar Mrp4.node0.eth[1].mac "frames/sec rcvd" 0
scalar Mrp4.node0.eth[1].mac "bits/sec sent" 0
scalar Mrp4.node0.eth[1].mac "bits/sec rcvd" 0
scalar Mrp4.node0.eth[1].mac "rx channel idle (%)" 100
scalar Mrp4.node0.eth[1].mac "rx channel utilization (%)" 0
scalar Mrp4.node0.eth[1].mac rxPausePkUnits:count 0
scalar Mrp4.node0.eth[1].mac rxPausePkUnits:sum 0
scalar Mrp4.node0.eth[1].mac txPausePkUnits:count 0
scalar Mrp4.node0.eth[1].mac txPausePkUnits:sum 0
scalar Mrp4.node0.eth[1].mac rxPkOk:count 0
scalar Mrp4.node0.eth[1].mac rxPkOk:sum(packetBytes) 0
scalar Mrp4.node0.eth[1].mac txPk:count 0
scalar Mrp4.node0.eth[1].mac txPk:sum(packetBytes) 0
scalar Mrp4.node0.eth[1].mac packetReceivedFromUpper:count 0
scalar Mrp4.node0.eth[1].mac packetReceivedFromUpper:sum(packetBytes) 0
scalar Mrp4.node0.eth[1].mac passedUpPk:count 0
scalar Mrp4.node0.eth[1].mac passedUpPk:sum(packetBytes) 0
scalar Mrp4.node0.eth[1].mac packetDropIncorrectlyReceived:count 0
scalar Mrp4.node0.eth[1].mac packetDropIncorrectlyReceived:sum(packetBytes) 0
scalar Mrp4.node0.eth[1].mac packetDropInterfaceDown:count 0
scalar Mrp4.node0.eth[1].mac packetDropInterfaceDown:sum(packetBytes) 0
scalar Mrp4.node0.eth[1].mac packetDropNotAddressedToUs:count 0
scalar Mrp4.node0.eth[1].mac packetDropNotAddressedToUs:sum(packetBytes) 0
scalar Mrp4.node0.eth[1] packetDropInterfaceDown:count 0
scalar Mrp4.node0.eth[1] packetDropInterfaceDown:sum(packetBytes) 0
scalar Mrp4.node0.eth[1] packetDropNoCarrier:count 0
scalar Mrp4.node0.eth[1] packetDropNoCarrier:sum(packetBytes) 0
scalar Mrp4.node1.bridging "processed frames" 0
scalar Mrp4.node1.bridging "discarded frames" 0
scalar Mrp4.node1.bridging "number of received BPDUs from STP module" 0
scalar Mrp4.node1.bridging "number of received frames from network (including BPDUs)" 0
scalar Mrp4.node1.bridging "number of dropped frames (including BPDUs)" 0
scalar Mrp4.node1.bridging "number of delivered BPDUs to the STP module" 0
scalar Mrp4.node1.bridging "number of dispatched BPDU frames to the network" 0
scalar Mrp4.node1.bridging "number of dispatched non-BDPU frames to the network" 0
scalar Mrp4.node1.bridging "number of received PDUs from MRP module" 0
scalar Mrp4.node1.bridging "number of received frames from network (including PDUs)" 0
scalar Mrp4.node1.bridging "number of dropped frames (including PDUs)" 0
scalar Mrp4.node1.bridging "number of delivered PDUs to the MRP module" 0
scalar Mrp4.node1.bridging "number of dispatched MRP frames to the network" 0
scalar Mrp4.node1.bridging "number of dispatched non-MRP frames to the network" 0
scalar Mrp4.node1.bridging packetDropped:count 0
scalar Mrp4.node1.bridging packetDropped:sum(packetBytes) 0
scalar Mrp4.node1.ethernet pauseSent:count 0
scalar Mrp4.node1.ethernet pauseSent:sum 0
scalar Mrp4.node1.ethernet decapPk:count 0
scalar Mrp4.node1.ethernet decapPk:sum(packetBytes) 0
scalar Mrp4.node1.ethernet encapPk:count 0
scalar Mrp4.node1.ethernet encapPk:sum(packetBytes) 0
scalar Mrp4.node1.eth[0].queue queueLength:last 0
scalar Mrp4.node1.eth[0].queue queueLength:max 0
scalar Mrp4.node1.eth[0].queue queueLength:timeavg 0
scalar Mrp4.node1.eth[0].queue queueBitLength:last 0
scalar Mrp4.node1.eth[0].queue queueBitLength:max 0
scalar Mrp4.node1.eth[0].queue queueBitLength:timeavg 0
scalar Mrp4.node1.eth[0].queue outgoingPackets:count 0
scalar Mrp4.node1.eth[0].queue outgoingPacketLengths:sum 0
scalar Mrp4.node1.eth[0].queue incomingPackets:count 0
scalar Mrp4.node1.eth[0].queue incomingPacketLengths:sum 0
scalar Mrp4.node1.eth[0].queue droppedPacketsQueueOverflow:count 0
scalar Mrp4.node1.eth[0].queue droppedPacketLengthsQueueOverflow:sum 0
scalar Mrp4.node1.eth[0].mac "simulated time" 3
scalar Mrp4.node1.eth[0].mac full-duplex 1
scalar Mrp4.node1.eth[0].mac "frames/sec sent" 0
scalar Mrp4.node1.eth[0].mac "frames/sec rcvd" 0
scalar Mrp4.node1.eth[0].mac "bits/sec sent" 0
scalar Mrp4.node1.eth[0].mac "bits/sec rcvd" 0
scalar Mrp4.node1.eth[0].mac "rx channel idle (%)" 100
scalar Mrp4.node1.eth[0].mac "rx channel utilization (%)" 0
scalar Mrp4.node1.eth[0].mac rxPausePkUnits:count 0
scalar Mrp4.node1.eth[0].mac rxPausePkUnits:sum 0
scalar Mrp4.node1.eth[0].mac txPausePkUnits:count 0
scalar Mrp4.node1.eth[0].mac txPausePkUnits:sum 0
scalar Mrp4.node1.eth[0].mac rxPkOk:count 0
scalar Mrp4.node1.eth[0].mac rxPkOk:sum(packetBytes) 0
scalar Mrp4.node1.eth[0].mac txPk:count 0
scalar Mrp4.node1.eth[0].mac txPk:sum(packetBytes) 0
scalar Mrp4.node1.eth[0].mac packetReceivedFromUpper:count 0
scalar Mrp4.node1.eth[0].mac packetReceivedFromUpper:sum(packetBytes) 0
scalar Mrp4.node1.eth[0].mac passedUpPk:count 0
scalar Mrp4.node1.eth[0].mac passedUpPk:sum(packetBytes) 0
scalar Mrp4.node1.eth[0].mac packetDropIncorrectlyReceived:count 0
scalar Mrp4.node1.eth[0].mac packetDropIncorrectlyReceived:sum(packetBytes) 0
scalar Mrp4.node1.eth[0].mac packetDropInterfaceDown:count 0
scalar Mrp4.node1.eth[0].mac packetDropInterfaceDown:sum(packetBytes) 0
scalar Mrp4.node1.eth[0].mac packetDropNotAddressedToUs:count 0
scalar Mrp4.node1.eth[0].mac packetDropNotAddressedToUs:sum(packetBytes) 0
scalar Mrp4.node1.eth[0] packetDropInterfaceDown:count 0
scalar Mrp4.node1.eth[0] packetDropInterfaceDown:sum(packetBytes) 0
scalar Mrp4.node1.eth[0] packetDropNoCarrier:count 0
scalar Mrp4.node1.eth[0] packetDropNoCarrier:sum(packetBytes) 0
scalar Mrp4.node1.eth[1].queue queueLength:last 0
scalar Mrp4.node1.eth[1].queue queueLength:max 0
scalar Mrp4.node1.eth[1].queue queueLength:timeavg 0
scalar Mrp4.node1.eth[1].queue queueBitLength:last 0
scalar Mrp4.node1.eth[1].queue queueBitLength:max 0
scalar Mrp4.node1.eth[1].queue queueBitLength:timeavg 0
scalar Mrp4.node1.eth[1].queue outgoingPackets:count 0
scalar Mrp4.node1.eth[1].queue outgoingPacketLengths:sum 0
scalar Mrp4.node1.eth[1].queue incomingPackets:count 0
scalar Mrp4.node1.eth[1].queue incomingPacketLengths:sum 0
scalar Mrp4.node1.eth[1].queue droppedPacketsQueueOverflow:count 0
scalar Mrp4.node1.eth[1].queue droppedPacketLengthsQueueOverflow:sum 0
scalar Mrp4.node1.eth[1].mac "simulated time" 3
scalar Mrp4.node1.eth[1].mac full-duplex 1
scalar Mrp4.node1.eth[1].mac "frames/sec sent" 0
scalar Mrp4.node1.eth[1].mac "frames/sec rcvd" 0
scalar Mrp4.node1.eth[1].mac "bits/sec sent" 0
scalar Mrp4.node1.eth[1].mac "bits/sec rcvd" 0
scalar Mrp4.node1.eth[1].mac "rx channel idle (%)" 100
scalar Mrp4.node1.eth[1].mac "rx channel utilization (%)" 0
scalar Mrp4.node1.eth[1].mac rxPausePkUnits:count 0
scalar Mrp4.node1.eth[1].mac rxPausePkUnits:sum 0
scalar Mrp4.node1.eth[1].mac txPausePkUnits:count 0
scalar Mrp4.node1.eth[1].mac txPausePkUnits:sum 0
scalar Mrp4.node1.eth[1].mac rxPkOk:count 0
scalar Mrp4.node1.eth[1].mac rxPkOk:sum(packetBytes) 0
scalar Mrp4.node1.eth[1].mac txPk:count 0
scalar Mrp4.node1.eth[1].mac txPk:sum(packetBytes) 0
scalar Mrp4.node1.eth[1].mac packetReceivedFromUpper:count 0
scalar Mrp4.node1.eth[1].mac packetReceivedFromUpper:sum(packetBytes) 0
scalar Mrp4.node1.eth[1].mac passedUpPk:count 0
scalar Mrp4.node1.eth[1].mac passedUpPk:sum(packetBytes) 0
scalar Mrp4.node1.eth[1].mac packetDropIncorrectlyReceived:count 0
scalar Mrp4.node1.eth[1].mac packetDropIncorrectlyReceived:sum(packetBytes) 0
scalar Mrp4.node1.eth[1].mac packetDropInterfaceDown:count 0
scalar Mrp4.node1.eth[1].mac packetDropInterfaceDown:sum(packetBytes) 0
scalar Mrp4.node1.eth[1].mac packetDropNotAddressedToUs:count 0
scalar Mrp4.node1.eth[1].mac packetDropNotAddressedToUs:sum(packetBytes) 0
scalar Mrp4.node1.eth[1] packetDropInterfaceDown:count 0
scalar Mrp4.node1.eth[1] packetDropInterfaceDown:sum(packetBytes) 0
scalar Mrp4.node1.eth[1] packetDropNoCarrier:count 0
scalar Mrp4.node1.eth[1] packetDropNoCarrier:sum(packetBytes) 0
scalar Mrp4.node2.bridging "processed frames" 0
scalar Mrp4.node2.bridging "discarded frames" 0
scalar Mrp4.node2.bridging "number of received BPDUs from STP module" 0
scalar Mrp4.node2.bridging "number of received frames from network (including BPDUs)" 0
scalar Mrp4.node2.bridging "number of dropped frames (including BPDUs)" 0
scalar Mrp4.node2.bridging "number of delivered BPDUs to the STP module" 0
scalar Mrp4.node2.bridging "number of dispatched BPDU frames to the network" 0
scalar Mrp4.node2.bridging "number of dispatched non-BDPU frames to the network" 0
scalar Mrp4.node2.bridging "number of received PDUs from MRP module" 0
scalar Mrp4.node2.bridging "number of received frames from network (including PDUs)" 0
scalar Mrp4.node2.bridging "number of dropped frames (including PDUs)" 0
scalar Mrp4.node2.bridging "number of delivered PDUs to the MRP module" 0
scalar Mrp4.node2.bridging "number of dispatched MRP frames to the network" 0
scalar Mrp4.node2.bridging "number of dispatched non-MRP frames to the network" 0
scalar Mrp4.node2.bridging packetDropped:count 0
scalar Mrp4.node2.bridging packetDropped:sum(packetBytes) 0
scalar Mrp4.node2.ethernet pauseSent:count 0
scalar Mrp4.node2.ethernet pauseSent:sum 0
scalar Mrp4.node2.ethernet decapPk:count 0
scalar Mrp4.node2.ethernet decapPk:sum(packetBytes) 0
scalar Mrp4.node2.ethernet encapPk:count 0
scalar Mrp4.node2.ethernet encapPk:sum(packetBytes) 0
scalar Mrp4.node2.eth[0].queue queueLength:last 0
scalar Mrp4.node2.eth[0].queue queueLength:max 0
scalar Mrp4.node2.eth[0].queue queueLength:timeavg 0
scalar Mrp4.node2.eth[0].queue queueBitLength:last 0
scalar Mrp4.node2.eth[0].queue queueBitLength:max 0
scalar Mrp4.node2.eth[0].queue queueBitLength:timeavg 0
scalar Mrp4.node2.eth[0].queue outgoingPackets:count 0
scalar Mrp4.node2.eth[0].queue outgoingPacketLengths:sum 0
scalar Mrp4.node2.eth[0].queue incomingPackets:count 0
scalar Mrp4.node2.eth[0].queue incomingPacketLengths:sum 0
scalar Mrp4.node2.eth[0].queue droppedPacketsQueueOverflow:count 0
scalar Mrp4.node2.eth[0].queue droppedPacketLengthsQueueOverflow:sum 0
scalar Mrp4.node2.eth[0].mac "simulated time" 3
scalar Mrp4.node2.eth[0].mac full-duplex 1
scalar Mrp4.node2.eth[0].mac "frames/sec sent" 0
scalar Mrp4.node2.eth[0].mac "frames/sec rcvd" 0
scalar Mrp4.node2.eth[0].mac "bits/sec sent" 0
scalar Mrp4.node2.eth[0].mac "bits/sec rcvd" 0
scalar Mrp4.node2.eth[0].mac "rx channel idle (%)" 100
scalar Mrp4.node2.eth[0].mac "rx channel utilization (%)" 0
scalar Mrp4.node2.eth[0].mac rxPausePkUnits:count 0
scalar Mrp4.node2.eth[0].mac rxPausePkUnits:sum 0
scalar Mrp4.node2.eth[0].mac txPausePkUnits:count 0
scalar Mrp4.node2.eth[0].mac txPausePkUnits:sum 0
scalar Mrp4.node2.eth[0].mac rxPkOk:count 0
scalar Mrp4.node2.eth[0].mac rxPkOk:sum(packetBytes) 0
scalar Mrp4.node2.eth[0].mac txPk:count 0
scalar Mrp4.node2.eth[0].mac txPk:sum(packetBytes) 0
scalar Mrp4.node2.eth[0].mac packetReceivedFromUpper:count 0
scalar Mrp4.node2.eth[0].mac packetReceivedFromUpper:sum(packetBytes) 0
scalar Mrp4.node2.eth[0].mac passedUpPk:count 0
scalar Mrp4.node2.eth[0].mac passedUpPk:sum(packetBytes) 0
scalar Mrp4.node2.eth[0].mac packetDropIncorrectlyReceived:count 0
scalar Mrp4.node2.eth[0].mac packetDropIncorrectlyReceived:sum(packetBytes) 0
scalar Mrp4.node2.eth[0].mac packetDropInterfaceDown:count 0
scalar Mrp4.node2.eth[0].mac packetDropInterfaceDown:sum(packetBytes) 0
scalar Mrp4.node2.eth[0].mac packetDropNotAddressedToUs:count 0
scalar Mrp4.node2.eth[0].mac packetDropNotAddressedToUs:sum(packetBytes) 0
scalar Mrp4.node2.eth[0] packetDropInterfaceDown:count 0
scalar Mrp4.node2.eth[0] packetDropInterfaceDown:sum(packetBytes) 0
scalar Mrp4.node2.eth[0] packetDropNoCarrier:count 0
scalar Mrp4.node2.eth[0] packetDropNoCarrier:sum(packetBytes) 0
scalar Mrp4.node2.eth[1].queue queueLength:last 0
scalar Mrp4.node2.eth[1].queue queueLength:max 0
scalar Mrp4.node2.eth[1].queue queueLength:timeavg 0
scalar Mrp4.node2.eth[1].queue queueBitLength:last 0
scalar Mrp4.node2.eth[1].queue queueBitLength:max 0
scalar Mrp4.node2.eth[1].queue queueBitLength:timeavg 0
scalar Mrp4.node2.eth[1].queue outgoingPackets:count 0
scalar Mrp4.node2.eth[1].queue outgoingPacketLengths:sum 0
scalar Mrp4.node2.eth[1].queue incomingPackets:count 0
scalar Mrp4.node2.eth[1].queue incomingPacketLengths:sum 0
scalar Mrp4.node2.eth[1].queue droppedPacketsQueueOverflow:count 0
scalar Mrp4.node2.eth[1].queue droppedPacketLengthsQueueOverflow:sum 0
scalar Mrp4.node2.eth[1].mac "simulated time" 3
scalar Mrp4.node2.eth[1].mac full-duplex 1
scalar Mrp4.node2.eth[1].mac "frames/sec sent" 0
scalar Mrp4.node2.eth[1].mac "frames/sec rcvd" 0
scalar Mrp4.node2.eth[1].mac "bits/sec sent" 0
scalar Mrp4.node2.eth[1].mac "bits/sec rcvd" 0
scalar Mrp4.node2.eth[1].mac "rx channel idle (%)" 100
scalar Mrp4.node2.eth[1].mac "rx channel utilization (%)" 0
scalar Mrp4.node2.eth[1].mac rxPausePkUnits:count 0
scalar Mrp4.node2.eth[1].mac rxPausePkUnits:sum 0
scalar Mrp4.node2.eth[1].mac txPausePkUnits:count 0
scalar Mrp4.node2.eth[1].mac txPausePkUnits:sum 0
scalar Mrp4.node2.eth[1].mac rxPkOk:count 0
scalar Mrp4.node2.eth[1].mac rxPkOk:sum(packetBytes) 0
scalar Mrp4.node2.eth[1].mac txPk:count 0
scalar Mrp4.node2.eth[1].mac txPk:sum(packetBytes) 0
scalar Mrp4.node2.eth[1].mac packetReceivedFromUpper:count 0
scalar Mrp4.node2.eth[1].mac packetReceivedFromUpper:sum(packetBytes) 0
scalar Mrp4.node2.eth[1].mac passedUpPk:count 0
scalar Mrp4.node2.eth[1].mac passedUpPk:sum(packetBytes) 0
scalar Mrp4.node2.eth[1].mac packetDropIncorrectlyReceived:count 0
scalar Mrp4.node2.eth[1].mac packetDropIncorrectlyReceived:sum(packetBytes) 0
scalar Mrp4.node2.eth[1].mac packetDropInterfaceDown:count 0
scalar Mrp4.node2.eth[1].mac packetDropInterfaceDown:sum(packetBytes) 0
scalar Mrp4.node2.eth[1].mac packetDropNotAddressedToUs:count 0
scalar Mrp4.node2.eth[1].mac packetDropNotAddressedToUs:sum(packetBytes) 0
scalar Mrp4.node2.eth[1] packetDropInterfaceDown:count 0
scalar Mrp4.node2.eth[1] packetDropInterfaceDown:sum(packetBytes) 0
scalar Mrp4.node2.eth[1] packetDropNoCarrier:count 0
scalar Mrp4.node2.eth[1] packetDropNoCarrier:sum(packetBytes) 0
scalar Mrp4.node3.bridging "processed frames" 0
scalar Mrp4.node3.bridging "discarded frames" 0
scalar Mrp4.node3.bridging "number of received BPDUs from STP module" 0
scalar Mrp4.node3.bridging "number of received frames from network (including BPDUs)" 0
scalar Mrp4.node3.bridging "number of dropped frames (including BPDUs)" 0
scalar Mrp4.node3.bridging "number of delivered BPDUs to the STP module" 0
scalar Mrp4.node3.bridging "number of dispatched BPDU frames to the network" 0
scalar Mrp4.node3.bridging "number of dispatched non-BDPU frames to the network" 0
scalar Mrp4.node3.bridging "number of received PDUs from MRP module" 0
scalar Mrp4.node3.bridging "number of received frames from network (including PDUs)" 0
scalar Mrp4.node3.bridging "number of dropped frames (including PDUs)" 0
scalar Mrp4.node3.bridging "number of delivered PDUs to the MRP module" 0
scalar Mrp4.node3.bridging "number of dispatched MRP frames to the network" 0
scalar Mrp4.node3.bridging "number of dispatched non-MRP frames to the network" 0
scalar Mrp4.node3.bridging packetDropped:count 0
scalar Mrp4.node3.bridging packetDropped:sum(packetBytes) 0
scalar Mrp4.node3.ethernet pauseSent:count 0
scalar Mrp4.node3.ethernet pauseSent:sum 0
scalar Mrp4.node3.ethernet decapPk:count 0
scalar Mrp4.node3.ethernet decapPk:sum(packetBytes) 0
scalar Mrp4.node3.ethernet encapPk:count 0
scalar Mrp4.node3.ethernet encapPk:sum(packetBytes) 0
scalar Mrp4.node3.eth[0].queue queueLength:last 0
scalar Mrp4.node3.eth[0].queue queueLength:max 0
scalar Mrp4.node3.eth[0].queue queueLength:timeavg 0
scalar Mrp4.node3.eth[0].queue queueBitLength:last 0
scalar Mrp4.node3.eth[0].queue queueBitLength:max 0
scalar Mrp4.node3.eth[0].queue queueBitLength:timeavg 0
scalar Mrp4.node3.eth[0].queue outgoingPackets:count 0
scalar Mrp4.node3.eth[0].queue outgoingPacketLengths:sum 0
scalar Mrp4.node3.eth[0].queue incomingPackets:count 0
scalar Mrp4.node3.eth[0].queue incomingPacketLengths:sum 0
scalar Mrp4.node3.eth[0].queue droppedPacketsQueueOverflow:count 0
scalar Mrp4.node3.eth[0].queue droppedPacketLengthsQueueOverflow:sum 0
scalar Mrp4.node3.eth[0].mac "simulated time" 3
scalar Mrp4.node3.eth[0].mac full-duplex 1
scalar Mrp4.node3.eth[0].mac "frames/sec sent" 0
scalar Mrp4.node3.eth[0].mac "frames/sec rcvd" 0
scalar Mrp4.node3.eth[0].mac "bits/sec sent" 0
scalar Mrp4.node3.eth[0].mac "bits/sec rcvd" 0
scalar Mrp4.node3.eth[0].mac "rx channel idle (%)" 100
scalar Mrp4.node3.eth[0].mac "rx channel utilization (%)" 0
scalar Mrp4.node3.eth[0].mac rxPausePkUnits:count 0
scalar Mrp4.node3.eth[0].mac rxPausePkUnits:sum 0
scalar Mrp4.node3.eth[0].mac txPausePkUnits:count 0
scalar Mrp4.node3.eth[0].mac txPausePkUnits:sum 0
scalar Mrp4.node3.eth[0].mac rxPkOk:count 0
scalar Mrp4.node3.eth[0].mac rxPkOk:sum(packetBytes) 0
scalar Mrp4.node3.eth[0].mac txPk:count 0
scalar Mrp4.node3.eth[0].mac txPk:sum(packetBytes) 0
scalar Mrp4.node3.eth[0].mac packetReceivedFromUpper:count 0
scalar Mrp4.node3.eth[0].mac packetReceivedFromUpper:sum(packetBytes) 0
scalar Mrp4.node3.eth[0].mac passedUpPk:count 0
scalar Mrp4.node3.eth[0].mac passedUpPk:sum(packetBytes) 0
scalar Mrp4.node3.eth[0].mac packetDropIncorrectlyReceived:count 0
scalar Mrp4.node3.eth[0].mac packetDropIncorrectlyReceived:sum(packetBytes) 0
scalar Mrp4.node3.eth[0].mac packetDropInterfaceDown:count 0
scalar Mrp4.node3.eth[0].mac packetDropInterfaceDown:sum(packetBytes) 0
scalar Mrp4.node3.eth[0].mac packetDropNotAddressedToUs:count 0
scalar Mrp4.node3.eth[0].mac packetDropNotAddressedToUs:sum(packetBytes) 0
scalar Mrp4.node3.eth[0] packetDropInterfaceDown:count 0
scalar Mrp4.node3.eth[0] packetDropInterfaceDown:sum(packetBytes) 0
scalar Mrp4.node3.eth[0] packetDropNoCarrier:count 0
scalar Mrp4.node3.eth[0] packetDropNoCarrier:sum(packetBytes) 0
scalar Mrp4.node3.eth[1].queue queueLength:last 0
scalar Mrp4.node3.eth[1].queue queueLength:max 0
scalar Mrp4.node3.eth[1].queue queueLength:timeavg 0
scalar Mrp4.node3.eth[1].queue queueBitLength:last 0
scalar Mrp4.node3.eth[1].queue queueBitLength:max 0
scalar Mrp4.node3.eth[1].queue queueBitLength:timeavg 0
scalar Mrp4.node3.eth[1].queue outgoingPackets:count 0
scalar Mrp4.node3.eth[1].queue outgoingPacketLengths:sum 0
scalar Mrp4.node3.eth[1].queue incomingPackets:count 0
scalar Mrp4.node3.eth[1].queue incomingPacketLengths:sum 0
scalar Mrp4.node3.eth[1].queue droppedPacketsQueueOverflow:count 0
scalar Mrp4.node3.eth[1].queue droppedPacketLengthsQueueOverflow:sum 0
scalar Mrp4.node3.eth[1].mac "simulated time" 3
scalar Mrp4.node3.eth[1].mac full-duplex 1
scalar Mrp4.node3.eth[1].mac "frames/sec sent" 0
scalar Mrp4.node3.eth[1].mac "frames/sec rcvd" 0
scalar Mrp4.node3.eth[1].mac "bits/sec sent" 0
scalar Mrp4.node3.eth[1].mac "bits/sec rcvd" 0
scalar Mrp4.node3.eth[1].mac "rx channel idle (%)" 100
scalar Mrp4.node3.eth[1].mac "rx channel utilization (%)" 0
scalar Mrp4.node3.eth[1].mac rxPausePkUnits:count 0
scalar Mrp4.node3.eth[1].mac rxPausePkUnits:sum 0
scalar Mrp4.node3.eth[1].mac txPausePkUnits:count 0
scalar Mrp4.node3.eth[1].mac txPausePkUnits:sum 0
scalar Mrp4.node3.eth[1].mac rxPkOk:count 0
scalar Mrp4.node3.eth[1].mac rxPkOk:sum(packetBytes) 0
scalar Mrp4.node3.eth[1].mac txPk:count 0
scalar Mrp4.node3.eth[1].mac txPk:sum(packetBytes) 0
scalar Mrp4.node3.eth[1].mac packetReceivedFromUpper:count 0
scalar Mrp4.node3.eth[1].mac packetReceivedFromUpper:sum(packetBytes) 0
scalar Mrp4.node3.eth[1].mac passedUpPk:count 0
scalar Mrp4.node3.eth[1].mac passedUpPk:sum(packetBytes) 0
scalar Mrp4.node3.eth[1].mac packetDropIncorrectlyReceived:count 0
scalar Mrp4.node3.eth[1].mac packetDropIncorrectlyReceived:sum(packetBytes) 0
scalar Mrp4.node3.eth[1].mac packetDropInterfaceDown:count 0
scalar Mrp4.node3.eth[1].mac packetDropInterfaceDown:sum(packetBytes) 0
scalar Mrp4.node3.eth[1].mac packetDropNotAddressedToUs:count 0
scalar Mrp4.node3.eth[1].mac packetDropNotAddressedToUs:sum(packetBytes) 0
scalar Mrp4.node3.eth[1] packetDropInterfaceDown:count 0
scalar Mrp4.node3.eth[1] packetDropInterfaceDown:sum(packetBytes) 0
scalar Mrp4.node3.eth[1] packetDropNoCarrier:count 0
scalar Mrp4.node3.eth[1] packetDropNoCarrier:sum(packetBytes) 0
scalar Mrp4.node0.eth[0].queue queueingTime:histogram:count 0
scalar Mrp4.node0.eth[0].queue queueingTime:histogram:sumweights 0
scalar Mrp4.node0.eth[0].queue queueingTime:histogram:mean -nan
scalar Mrp4.node0.eth[0].queue queueingTime:histogram:stddev nan
scalar Mrp4.node0.eth[0].queue queueingTime:histogram:min nan
scalar Mrp4.node0.eth[0].queue queueingTime:histogram:max nan
scalar Mrp4.node0.eth[0].queue queueingTime:histogram:numbins 1
scalar Mrp4.node0.eth[0].queue queueingTime:histogram:rangemin 0
scalar Mrp4.node0.eth[0].queue queueingTime:histogram:rangemax 1
scalar Mrp4.node0.eth[0].queue queueingTime:histogram:underflows 0
scalar Mrp4.node0.eth[0].queue queueingTime:histogram:overflows 0
scalar Mrp4.node0.eth[0].queue outgoingPacketLengths:histogram:count 0
scalar Mrp4.node0.eth[0].queue outgoingPacketLengths:histogram:sumweights 0
scalar Mrp4.node0.eth[0].queue outgoingPacketLengths:histogram:mean -nan
scalar Mrp4.node0.eth[0].queue outgoingPacketLengths:histogram:stddev nan
scalar Mrp4.node0.eth[0].queue outgoingPacketLengths:histogram:min nan
scalar Mrp4.node0.eth[0].queue outgoingPacketLengths:histogram:max nan
scalar Mrp4.node0.eth[0].queue outgoingPacketLengths:histogram:numbins 1
scalar Mrp4.node0.eth[0].queue outgoingPacketLengths:histogram:rangemin 0
scalar Mrp4.node0.eth[0].queue outgoingPacketLengths:histogram:rangemax 1
scalar Mrp4.node0.eth[0].queue outgoingPacketLengths:histogram:underflows 0
scalar Mrp4.node0.eth[0].queue outgoingPacketLengths:histogram:overflows 0
scalar Mrp4.node0.eth[0].queue flowQueueingTime:histogram:count 0
scalar Mrp4.node0.eth[0].queue flowQueueingTime:histogram:sumweights 0
scalar Mrp4.node0.eth[0].queue flowQueueingTime:histogram:mean -nan
scalar Mrp4.node0.eth[0].queue flowQueueingTime:histogram:stddev nan
scalar Mrp4.node0.eth[0].queue flowQueueingTime:histogram:min nan
scalar Mrp4.node0.eth[0].queue flowQueueingTime:histogram:max nan
scalar Mrp4.node0.eth[0].queue flowQueueingTime:histogram:numbins 1
scalar Mrp4.node0.eth[0].queue flowQueueingTime:histogram:rangemin 0
scalar Mrp4.node0.eth[0].queue flowQueueingTime:histogram:rangemax 1
scalar Mrp4.node0.eth[0].queue flowQueueingTime:histogram:underflows 0
scalar Mrp4.node0.eth[0].queue flowQueueingTime:histogram:overflows 0
scalar Mrp4.node0.eth[0].queue incomingPacketLengths:histogram:count 0
scalar Mrp4.node0.eth[0].queue incomingPacketLengths:histogram:sumweights 0
scalar Mrp4.node0.eth[0].queue incomingPacketLengths:histogram:mean -nan
scalar Mrp4.node0.eth[0].queue incomingPacketLengths:histogram:stddev nan
scalar Mrp4.node0.eth[0].queue incomingPacketLengths:histogram:min nan
scalar Mrp4.node0.eth[0].queue incomingPacketLengths:histogram:max nan
scalar Mrp4.node0.eth[0].queue incomingPacketLengths:histogram:numbins 1
scalar Mrp4.node0.eth[0].queue incomingPacketLengths:histogram:rangemin 0
scalar Mrp4.node0.eth[0].queue incomingPacketLengths:histogram:rangemax 1
scalar Mrp4.node0.eth[0].queue incomingPacketLengths:histogram:underflows 0
scalar Mrp4.node0.eth[0].queue incomingPacketLengths:histogram:overflows 0
scalar Mrp4.node0.eth[0].mac throughput:histogram:count 30
scalar Mrp4.node0.eth[0].mac throughput:histogram:sumweights 30
scalar Mrp4.node0.eth[0].mac throughput:histogram:mean 0
scalar Mrp4.node0.eth[0].mac throughput:histogram:stddev 0
scalar Mrp4.node0.eth[0].mac throughput:histogram:min 0
scalar Mrp4.node0.eth[0].mac throughput:histogram:max 0
scalar Mrp4.node0.eth[0].mac throughput:histogram:numbins 50
scalar Mrp4.node0.eth[0].mac throughput:histogram:rangemin -0.5
scalar Mrp4.node0.eth[0].mac throughput:histogram:rangemax 0.5
scalar Mrp4.node0.eth[0].mac throughput:histogram:underflows 0
scalar Mrp4.node0.eth[0].mac throughput:histogram:overflows 0
scalar Mrp4.node0.eth[0].mac utilization:histogram:count 30
scalar Mrp4.node0.eth[0].mac utilization:histogram:sumweights 30
scalar Mrp4.node0.eth[0].mac utilization:histogram:mean 0
scalar Mrp4.node0.eth[0].mac utilization:histogram:stddev 0
scalar Mrp4.node0.eth[0].mac utilization:histogram:min 0
scalar Mrp4.node0.eth[0].mac utilization:histogram:max 0
scalar Mrp4.node0.eth[0].mac utilization:histogram:numbins 50
scalar Mrp4.node0.eth[0].mac utilization:histogram:rangemin -0.5
scalar Mrp4.node0.eth[0].mac utilization:histogram:rangemax 0.5
scalar Mrp4.node0.eth[0].mac utilization:histogram:underflows 0
scalar Mrp4.node0.eth[0].mac utilization:histogram:overflows 0
scalar Mrp4.node0.eth[1].queue queueingTime:histogram:count 0
scalar Mrp4.node0.eth[1].queue queueingTime:histogram:sumweights 0
scalar Mrp4.node0.eth[1].queue queueingTime:histogram:mean -nan
scalar Mrp4.node0.eth[1].queue queueingTime:histogram:stddev nan
scalar Mrp4.node0.eth[1].queue queueingTime:histogram:min nan
scalar Mrp4.node0.eth[1].queue queueingTime:histogram:max nan
scalar Mrp4.node0.eth[1].queue queueingTime:histogram:numbins 1
scalar Mrp4.node0.eth[1].queue queueingTime:histogram:rangemin 0
scalar Mrp4.node0.eth[1].queue queueingTime:histogram:rangemax 1
scalar Mrp4.node0.eth[1].queue queueingTime:histogram:underflows 0
scalar Mrp4.node0.eth[1].queue queueingTime:histogram:overflows 0
scalar Mrp4.node0.eth[1].queue outgoingPacketLengths:histogram:count 0
scalar Mrp4.node0.eth[1].queue outgoingPacketLengths:histogram:sumweights 0
scalar Mrp4.node0.eth[1].queue outgoingPacketLengths:histogram:mean -nan
scalar Mrp4.node0.eth[1].queue outgoingPacketLengths:histogram:stddev nan
scalar Mrp4.node0.eth[1].queue outgoingPacketLengths:histogram:min nan
scalar Mrp4.node0.eth[1].queue outgoingPacketLengths:histogram:max nan
scalar Mrp4.node0.eth[1].queue outgoingPacketLengths:histogram:numbins 1
scalar Mrp4.node0.eth[1].queue outgoingPacketLengths:histogram:rangemin 0
scalar Mrp4.node0.eth[1].queue outgoingPacketLengths:histogram:rangemax 1
scalar Mrp4.node0.eth[1].queue outgoingPacketLengths:histogram:underflows 0
scalar Mrp4.node0.eth[1].queue outgoingPacketLengths:histogram:overflows 0
scalar Mrp4.node0.eth[1].queue flowQueueingTime:histogram:count 0
scalar Mrp4.node0.eth[1].queue flowQueueingTime:histogram:sumweights 0
scalar Mrp4.node0.eth[1].queue flowQueueingTime:histogram:mean -nan
scalar Mrp4.node0.eth[1].queue flowQueueingTime:histogram:stddev nan
scalar Mrp4.node0.eth[1].queue flowQueueingTime:histogram:min nan
scalar Mrp4.node0.eth[1].queue flowQueueingTime:histogram:max nan
scalar Mrp4.node0.eth[1].queue flowQueueingTime:histogram:numbins 1
scalar Mrp4.node0.eth[1].queue flowQueueingTime:histogram:rangemin 0
scalar Mrp4.node0.eth[1].queue flowQueueingTime:histogram:rangemax 1
scalar Mrp4.node0.eth[1].queue flowQueueingTime:histogram:underflows 0
scalar Mrp4.node0.eth[1].queue flowQueueingTime:histogram:overflows 0
scalar Mrp4.node0.eth[1].queue incomingPacketLengths:histogram:count 0
scalar Mrp4.node0.eth[1].queue incomingPacketLengths:histogram:sumweights 0
scalar Mrp4.node0.eth[1].queue incomingPacketLengths:histogram:mean -nan
scalar Mrp4.node0.eth[1].queue incomingPacketLengths:histogram:stddev nan
scalar Mrp4.node0.eth[1].queue incomingPacketLengths:histogram:min nan
scalar Mrp4.node0.eth[1].queue incomingPacketLengths:histogram:max nan
scalar Mrp4.node0.eth[1].queue incomingPacketLengths:histogram:numbins 1
scalar Mrp4.node0.eth[1].queue incomingPacketLengths:histogram:rangemin 0
scalar Mrp4.node0.eth[1].queue incomingPacketLengths:histogram:rangemax 1
scalar Mrp4.node0.eth[1].queue incomingPacketLengths:histogram:underflows 0
scalar Mrp4.node0.eth[1].queue incomingPacketLengths:histogram:overflows 0
scalar Mrp4.node0.eth[1].mac throughput:histogram:count 30
scalar Mrp4.node0.eth[1].mac throughput:histogram:sumweights 30
scalar Mrp4.node0.eth[1].mac throughput:histogram:mean 0
scalar Mrp4.node0.eth[1].mac throughput:histogram:stddev 0
scalar Mrp4.node0.eth[1].mac throughput:histogram:min 0
scalar Mrp4.node0.eth[1].mac throughput:histogram:max 0
scalar Mrp4.node0.eth[1].mac throughput:histogram:numbins 50
scalar Mrp4.node0.eth[1].mac throughput:histogram:rangemin -0.5
scalar Mrp4.node0.eth[1].mac throughput:histogram:rangemax 0.5
scalar Mrp4.node0.eth[1].mac throughput:histogram:underflows 0
scalar Mrp4.node0.eth[1].mac throughput:histogram:overflows 0
scalar Mrp4.node0.eth[1].mac utilization:histogram:count 30
scalar Mrp4.node0.eth[1].mac utilization:histogram:sumweights 30
scalar Mrp4.node0.eth[1].mac utilization:histogram:mean 0
scalar Mrp4.node0.eth[1].mac utilization:histogram:stddev 0
scalar Mrp4.node0.eth[1].mac utilization:histogram:min 0
scalar Mrp4.node0.eth[1].mac utilization:histogram:max 0
scalar Mrp4.node0.eth[1].mac utilization:histogram:numbins 50
scalar Mrp4.node0.eth[1].mac utilization:histogram:rangemin -0.5
scalar Mrp4.node0.eth[1].mac utilization:histogram:rangemax 0.5
scalar Mrp4.node0.eth[1].mac utilization:histogram:underflows 0
scalar Mrp4.node0.eth[1].mac utilization:histogram:overflows 0
scalar Mrp4.node1.eth[0].queue queueingTime:histogram:count 0
scalar Mrp4.node1.eth[0].queue queueingTime:histogram:sumweights 0
scalar Mrp4.node1.eth[0].queue queueingTime:histogram:mean -nan
scalar Mrp4.node1.eth[0].queue queueingTime:histogram:stddev nan
scalar Mrp4.node1.eth[0].queue queueingTime:histogram:min nan
scalar Mrp4.node1.eth[0].queue queueingTime:histogram:max nan
scalar Mrp4.node1.eth[0].queue queueingTime:histogram:numbins 1
scalar Mrp4.node1.eth[0].queue queueingTime:histogram:rangemin 0
scalar Mrp4.node1.eth[0].queue queueingTime:histogram:rangemax 1
scalar Mrp4.node1.eth[0].queue queueingTime:histogram:underflows 0
scalar Mrp4.node1.eth[0].queue queueingTime:histogram:overflows 0
scalar Mrp4.node1.eth[0].queue outgoingPacketLengths:histogram:count 0
scalar Mrp4.node1.eth[0].queue outgoingPacketLengths:histogram:sumweights 0
scalar Mrp4.node1.eth[0].queue outgoingPacketLengths:histogram:mean -nan
scalar Mrp4.node1.eth[0].queue outgoingPacketLengths:histogram:stddev nan
scalar Mrp4.node1.eth[0].queue outgoingPacketLengths:histogram:min nan
scalar Mrp4.node1.eth[0].queue outgoingPacketLengths:histogram:max nan
scalar Mrp4.node1.eth[0].queue outgoingPacketLengths:histogram:numbins 1
scalar Mrp4.node1.eth[0].queue outgoingPacketLengths:histogram:rangemin 0
scalar Mrp4.node1.eth[0].queue outgoingPacketLengths:histogram:rangemax 1
scalar Mrp4.node1.eth[0].queue outgoingPacketLengths:histogram:underflows 0
scalar Mrp4.node1.eth[0].queue outgoingPacketLengths:histogram:overflows 0
scalar Mrp4.node1.eth[0].queue flowQueueingTime:histogram:count 0
scalar Mrp4.node1.eth[0].queue flowQueueingTime:histogram:sumweights 0
scalar Mrp4.node1.eth[0].queue flowQueueingTime:histogram:mean -nan
scalar Mrp4.node1.eth[0].queue flowQueueingTime:histogram:stddev nan
scalar Mrp4.node1.eth[0].queue flowQueueingTime:histogram:min nan
scalar Mrp4.node1.eth[0].queue flowQueueingTime:histogram:max nan
scalar Mrp4.node1.eth[0].queue flowQueueingTime:histogram:numbins 1
scalar Mrp4.node1.eth[0].queue flowQueueingTime:histogram:rangemin 0
scalar Mrp4.node1.eth[0].queue flowQueueingTime:histogram:rangemax 1
scalar Mrp4.node1.eth[0].queue flowQueueingTime:histogram:underflows 0
scalar Mrp4.node1.eth[0].queue flowQueueingTime:histogram:overflows 0
scalar Mrp4.node1.eth[0].queue incomingPacketLengths:histogram:count 0
scalar Mrp4.node1.eth[0].queue incomingPacketLengths:histogram:sumweights 0
scalar Mrp4.node1.eth[0].queue incomingPacketLengths:histogram:mean -nan
scalar Mrp4.node1.eth[0].queue incomingPacketLengths:histogram:stddev nan
scalar Mrp4.node1.eth[0].queue incomingPacketLengths:histogram:min nan
scalar Mrp4.node1.eth[0].queue incomingPacketLengths:histogram:max nan
scalar Mrp4.node1.eth[0].queue incomingPacketLengths:histogram:numbins 1
scalar Mrp4.node1.eth[0].queue incomingPacketLengths:histogram:rangemin 0
scalar Mrp4.node1.eth[0].queue incomingPacketLengths:histogram:rangemax 1
scalar Mrp4.node1.eth[0].queue incomingPacketLengths:histogram:underflows 0
scalar Mrp4.node1.eth[0].queue incomingPacketLengths:histogram:overflows 0
scalar Mrp4.node1.eth[0].mac throughput:histogram:count 30
scalar Mrp4.node1.eth[0].mac throughput:histogram:sumweights 30
scalar Mrp4.node1.eth[0].mac throughput:histogram:mean 0
scalar Mrp4.node1.eth[0].mac throughput:histogram:stddev 0
scalar Mrp4.node1.eth[0].mac throughput:histogram:min 0
scalar Mrp4.node1.eth[0].mac throughput:histogram:max 0
scalar Mrp4.node1.eth[0].mac throughput:histogram:numbins 50
scalar Mrp4.node1.eth[0].mac throughput:histogram:rangemin -0.5
scalar Mrp4.node1.eth[0].mac throughput:histogram:rangemax 0.5
scalar Mrp4.node1.eth[0].mac throughput:histogram:underflows 0
scalar Mrp4.node1.eth[0].mac throughput:histogram:overflows 0
scalar Mrp4.node1.eth[0].mac utilization:histogram:count 30
scalar Mrp4.node1.eth[0].mac utilization:histogram:sumweights 30
scalar Mrp4.node1.eth[0].mac utilization:histogram:mean 0
scalar Mrp4.node1.eth[0].mac utilization:histogram:stddev 0
scalar Mrp4.node1.eth[0].mac utilization:histogram:min 0
scalar Mrp4.node1.eth[0].mac utilization:histogram:max 0
scalar Mrp4.node1.eth[0].mac utilization:histogram:numbins 50
scalar Mrp4.node1.eth[0].mac utilization:histogram:rangemin -0.5
scalar Mrp4.node1.eth[0].mac utilization:histogram:rangemax 0.5
scalar Mrp4.node1.eth[0].mac utilization:histogram:underflows 0
scalar Mrp4.node1.eth[0].mac utilization:histogram:overflows 0
scalar Mrp4.node1.eth[1].queue queueingTime:histogram:count 0
scalar Mrp4.node1.eth[1].queue queueingTime:histogram:sumweights 0
scalar Mrp4.node1.eth[1].queue queueingTime:histogram:mean -nan
scalar Mrp4.node1.eth[1].queue queueingTime:histogram:stddev nan
scalar Mrp4.node1.eth[1].queue queueingTime:histogram:min nan
scalar Mrp4.node1.eth[1].queue queueingTime:histogram:max nan
scalar Mrp4.node1.eth[1].queue queueingTime:histogram:numbins 1
scalar Mrp4.node1.eth[1].queue queueingTime:histogram:rangemin 0
scalar Mrp4.node1.eth[1].queue queueingTime:histogram:rangemax 1
scalar Mrp4.node1.eth[1].queue queueingTime:histogram:underflows 0
scalar Mrp4.node1.eth[1].queue queueingTime:histogram:overflows 0
scalar Mrp4.node1.eth[1].queue outgoingPacketLengths:histogram:count 0
scalar Mrp4.node1.eth[1].queue outgoingPacketLengths:histogram:sumweights 0
scalar Mrp4.node1.eth[1].queue outgoingPacketLengths:histogram:mean -nan
scalar Mrp4.node1.eth[1].queue outgoingPacketLengths:histogram:stddev nan
scalar Mrp4.node1.eth[1].queue outgoingPacketLengths:histogram:min nan
scalar Mrp4.node1.eth[1].queue outgoingPacketLengths:histogram:max nan
scalar Mrp4.node1.eth[1].queue outgoingPacketLengths:histogram:numbins 1
scalar Mrp4.node1.eth[1].queue outgoingPacketLengths:histogram:rangemin 0
scalar Mrp4.node1.eth[1].queue outgoingPacketLengths:histogram:rangemax 1
scalar Mrp4.node1.eth[1].queue outgoingPacketLengths:histogram:underflows 0
scalar Mrp4.node1.eth[1].queue outgoingPacketLengths:histogram:overflows 0
scalar Mrp4.node1.eth[1].queue flowQueueingTime:histogram:count 0
scalar Mrp4.node1.eth[1].queue flowQueueingTime:histogram:sumweights 0
scalar Mrp4.node1.eth[1].queue flowQueueingTime:histogram:mean -nan
scalar Mrp4.node1.eth[1].queue flowQueueingTime:histogram:stddev nan
scalar Mrp4.node1.eth[1].queue flowQueueingTime:histogram:min nan
scalar Mrp4.node1.eth[1].queue flowQueueingTime:histogram:max nan
scalar Mrp4.node1.eth[1].queue flowQueueingTime:histogram:numbins 1
scalar Mrp4.node1.eth[1].queue flowQueueingTime:histogram:rangemin 0
scalar Mrp4.node1.eth[1].queue flowQueueingTime:histogram:rangemax 1
scalar Mrp4.node1.eth[1].queue flowQueueingTime:histogram:underflows 0
scalar Mrp4.node1.eth[1].queue flowQueueingTime:histogram:overflows 0
scalar Mrp4.node1.eth[1].queue incomingPacketLengths:histogram:count 0
scalar Mrp4.node1.eth[1].queue incomingPacketLengths:histogram:sumweights 0
scalar Mrp4.node1.eth[1].queue incomingPacketLengths:histogram:mean -nan
scalar Mrp4.node1.eth[1].queue incomingPacketLengths:histogram:stddev nan
scalar Mrp4.node1.eth[1].queue incomingPacketLengths:histogram:min nan
scalar Mrp4.node1.eth[1].queue incomingPacketLengths:histogram:max nan
scalar Mrp4.node1.eth[1].queue incomingPacketLengths:histogram:numbins 1
scalar Mrp4.node1.eth[1].queue incomingPacketLengths:histogram:rangemin 0
scalar Mrp4.node1.eth[1].queue incomingPacketLengths:histogram:rangemax 1
scalar Mrp4.node1.eth[1].queue incomingPacketLengths:histogram:underflows 0
scalar Mrp4.node1.eth[1].queue incomingPacketLengths:histogram:overflows 0
scalar Mrp4.node1.eth[1].mac throughput:histogram:count 30
scalar Mrp4.node1.eth[1].mac throughput:histogram:sumweights 30
scalar Mrp4.node1.eth[1].mac throughput:histogram:mean 0
scalar Mrp4.node1.eth[1].mac throughput:histogram:stddev 0
scalar Mrp4.node1.eth[1].mac throughput:histogram:min 0
scalar Mrp4.node1.eth[1].mac throughput:histogram:max 0
scalar Mrp4.node1.eth[1].mac throughput:histogram:numbins 50
scalar Mrp4.node1.eth[1].mac throughput:histogram:rangemin -0.5
scalar Mrp4.node1.eth[1].mac throughput:histogram:rangemax 0.5
scalar Mrp4.node1.eth[1].mac throughput:histogram:underflows 0
scalar Mrp4.node1.eth[1].mac throughput:histogram:overflows 0
scalar Mrp4.node1.eth[1].mac utilization:histogram:count 30
scalar Mrp4.node1.eth[1].mac utilization:histogram:sumweights 30
scalar Mrp4.node1.eth[1].mac utilization:histogram:mean 0
scalar Mrp4.node1.eth[1].mac utilization:histogram:stddev 0
scalar Mrp4.node1.eth[1].mac utilization:histogram:min 0
scalar Mrp4.node1.eth[1].mac utilization:histogram:max 0
scalar Mrp4.node1.eth[1].mac utilization:histogram:numbins 50
scalar Mrp4.node1.eth[1].mac utilization:histogram:rangemin -0.5
scalar Mrp4.node1.eth[1].mac utilization:histogram:rangemax 0.5
scalar Mrp4.node1.eth[1].mac utilization:histogram:underflows 0
scalar Mrp4.node1.eth[1].mac utilization:histogram:overflows 0
scalar Mrp4.node2.eth[0].queue queueingTime:histogram:count 0
scalar Mrp4.node2.eth[0].queue queueingTime:histogram:sumweights 0
scalar Mrp4.node2.eth[0].queue queueingTime:histogram:mean -nan
scalar Mrp4.node2.eth[0].queue queueingTime:histogram:stddev nan
scalar Mrp4.node2.eth[0].queue queueingTime:histogram:min nan
scalar Mrp4.node2.eth[0].queue queueingTime:histogram:max nan
scalar Mrp4.node2.eth[0].queue queueingTime:histogram:numbins 1
scalar Mrp4.node2.eth[0].queue queueingTime:histogram:rangemin 0
scalar Mrp4.node2.eth[0].queue queueingTime:histogram:rangemax 1
scalar Mrp4.node2.eth[0].queue queueingTime:histogram:underflows 0
scalar Mrp4.node2.eth[0].queue queueingTime:histogram:overflows 0
scalar Mrp4.node2.eth[0].queue outgoingPacketLengths:histogram:count 0
scalar Mrp4.node2.eth[0].queue outgoingPacketLengths:histogram:sumweights 0
scalar Mrp4.node2.eth[0].queue outgoingPacketLengths:histogram:mean -nan
scalar Mrp4.node2.eth[0].queue outgoingPacketLengths:histogram:stddev nan
scalar Mrp4.node2.eth[0].queue outgoingPacketLengths:histogram:min nan
scalar Mrp4.node2.eth[0].queue outgoingPacketLengths:histogram:max nan
scalar Mrp4.node2.eth[0].queue outgoingPacketLengths:histogram:numbins 1
scalar Mrp4.node2.eth[0].queue outgoingPacketLengths:histogram:rangemin 0
scalar Mrp4.node2.eth[0].queue outgoingPacketLengths:histogram:rangemax 1
scalar Mrp4.node2.eth[0].queue outgoingPacketLengths:histogram:underflows 0
scalar Mrp4.node2.eth[0].queue outgoingPacketLengths:histogram:overflows 0
scalar Mrp4.node2.eth[0].queue flowQueueingTime:histogram:count 0
scalar Mrp4.node2.eth[0].queue flowQueueingTime:histogram:sumweights 0
scalar Mrp4.node2.eth[0].queue flowQueueingTime:histogram:mean -nan
scalar Mrp4.node2.eth[0].queue flowQueueingTime:histogram:stddev nan
scalar Mrp4.node2.eth[0].queue flowQueueingTime:histogram:min nan
scalar Mrp4.node2.eth[0].queue flowQueueingTime:histogram:max nan
scalar Mrp4.node2.eth[0].queue flowQueueingTime:histogram:numbins 1
scalar Mrp4.node2.eth[0].queue flowQueueingTime:histogram:rangemin 0
scalar Mrp4.node2.eth[0].queue flowQueueingTime:histogram:rangemax 1
scalar Mrp4.node2.eth[0].queue flowQueueingTime:histogram:underflows 0
scalar Mrp4.node2.eth[0].queue flowQueueingTime:histogram:overflows 0
scalar Mrp4.node2.eth[0].queue incomingPacketLengths:histogram:count 0
scalar Mrp4.node2.eth[0].queue incomingPacketLengths:histogram:sumweights 0
scalar Mrp4.node2.eth[0].queue incomingPacketLengths:histogram:mean -nan
scalar Mrp4.node2.eth[0].queue incomingPacketLengths:histogram:stddev nan
scalar Mrp4.node2.eth[0].queue incomingPacketLengths:histogram:min nan
scalar Mrp4.node2.eth[0].queue incomingPacketLengths:histogram:max nan
scalar Mrp4.node2.eth[0].queue incomingPacketLengths:histogram:numbins 1
scalar Mrp4.node2.eth[0].queue incomingPacketLengths:histogram:rangemin 0
scalar Mrp4.node2.eth[0].queue incomingPacketLengths:histogram:rangemax 1
scalar Mrp4.node2.eth[0].queue incomingPacketLengths:histogram:underflows 0
scalar Mrp4.node2.eth[0].queue incomingPacketLengths:histogram:overflows 0
scalar Mrp4.node2.eth[0].mac throughput:histogram:count 30
scalar Mrp4.node2.eth[0].mac throughput:histogram:sumweights 30
scalar Mrp4.node2.eth[0].mac throughput:histogram:mean 0
scalar Mrp4.node2.eth[0].mac throughput:histogram:stddev 0
scalar Mrp4.node2.eth[0].mac throughput:histogram:min 0
scalar Mrp4.node2.eth[0].mac throughput:histogram:max 0
scalar Mrp4.node2.eth[0].mac throughput:histogram:numbins 50
scalar Mrp4.node2.eth[0].mac throughput:histogram:rangemin -0.5
scalar Mrp4.node2.eth[0].mac throughput:histogram:rangemax 0.5
scalar Mrp4.node2.eth[0].mac throughput:histogram:underflows 0
scalar Mrp4.node2.eth[0].mac throughput:histogram:overflows 0
scalar Mrp4.node2.eth[0].mac utilization:histogram:count 30
scalar Mrp4.node2.eth[0].mac utilization:histogram:sumweights 30
scalar Mrp4.node2.eth[0].mac utilization:histogram:mean 0
scalar Mrp4.node2.eth[0].mac utilization:histogram:stddev 0
scalar Mrp4.node2.eth[0].mac utilization:histogram:min 0
scalar Mrp4.node2.eth[0].mac utilization:histogram:max 0
scalar Mrp4.node2.eth[0].mac utilization:histogram:numbins 50
scalar Mrp4.node2.eth[0].mac utilization:histogram:rangemin -0.5
scalar Mrp4.node2.eth[0].mac utilization:histogram:rangemax 0.5
scalar Mrp4.node2.eth[0].mac utilization:histogram:underflows 0
scalar Mrp4.node2.eth[0].mac utilization:histogram:overflows 0
scalar Mrp4.node2.eth[1].queue queueingTime:histogram:count 0
scalar Mrp4.node2.eth[1].queue queueingTime:histogram:sumweights 0
scalar Mrp4.node2.eth[1].queue queueingTime:histogram:mean -nan
scalar Mrp4.node2.eth[1].queue queueingTime:histogram:stddev nan
scalar Mrp4.node2.eth[1].queue queueingTime:histogram:min nan
scalar Mrp4.node2.eth[1].queue queueingTime:histogram:max nan
scalar Mrp4.node2.eth[1].queue queueingTime:histogram:numbins 1
scalar Mrp4.node2.eth[1].queue queueingTime:histogram:rangemin 0
scalar Mrp4.node2.eth[1].queue queueingTime:histogram:rangemax 1
scalar Mrp4.node2.eth[1].queue queueingTime:histogram:underflows 0
scalar Mrp4.node2.eth[1].queue queueingTime:histogram:overflows 0
scalar Mrp4.node2.eth[1].queue outgoingPacketLengths:histogram:count 0
scalar Mrp4.node2.eth[1].queue outgoingPacketLengths:histogram:sumweights 0
scalar Mrp4.node2.eth[1].queue outgoingPacketLengths:histogram:mean -nan
scalar Mrp4.node2.eth[1].queue outgoingPacketLengths:histogram:stddev nan
scalar Mrp4.node2.eth[1].queue outgoingPacketLengths:histogram:min nan
scalar Mrp4.node2.eth[1].queue outgoingPacketLengths:histogram:max nan
scalar Mrp4.node2.eth[1].queue outgoingPacketLengths:histogram:numbins 1
scalar Mrp4.node2.eth[1].queue outgoingPacketLengths:histogram:rangemin 0
scalar Mrp4.node2.eth[1].queue outgoingPacketLengths:histogram:rangemax 1
scalar Mrp4.node2.eth[1].queue outgoingPacketLengths:histogram:underflows 0
scalar Mrp4.node2.eth[1].queue outgoingPacketLengths:histogram:overflows 0
scalar Mrp4.node2.eth[1].queue flowQueueingTime:histogram:count 0
scalar Mrp4.node2.eth[1].queue flowQueueingTime:histogram:sumweights 0
scalar Mrp4.node2.eth[1].queue flowQueueingTime:histogram:mean -nan
scalar Mrp4.node2.eth[1].queue flowQueueingTime:histogram:stddev nan
scalar Mrp4.node2.eth[1].queue flowQueueingTime:histogram:min nan
scalar Mrp4.node2.eth[1].queue flowQueueingTime:histogram:max nan
scalar Mrp4.node2.eth[1].queue flowQueueingTime:histogram:numbins 1
scalar Mrp4.node2.eth[1].queue flowQueueingTime:histogram:rangemin 0
scalar Mrp4.node2.eth[1].queue flowQueueingTime:histogram:rangemax 1
scalar Mrp4.node2.eth[1].queue flowQueueingTime:histogram:underflows 0
scalar Mrp4.node2.eth[1].queue flowQueueingTime:histogram:overflows 0
scalar Mrp4.node2.eth[1].queue incomingPacketLengths:histogram:count 0
scalar Mrp4.node2.eth[1].queue incomingPacketLengths:histogram:sumweights 0
scalar Mrp4.node2.eth[1].queue incomingPacketLengths:histogram:mean -nan
scalar Mrp4.node2.eth[1].queue incomingPacketLengths:histogram:stddev nan
scalar Mrp4.node2.eth[1].queue incomingPacketLengths:histogram:min nan
scalar Mrp4.node2.eth[1].queue incomingPacketLengths:histogram:max nan
scalar Mrp4.node2.eth[1].queue incomingPacketLengths:histogram:numbins 1
scalar Mrp4.node2.eth[1].queue incomingPacketLengths:histogram:rangemin 0
scalar Mrp4.node2.eth[1].queue incomingPacketLengths:histogram:rangemax 1
scalar Mrp4.node2.eth[1].queue incomingPacketLengths:histogram:underflows 0
scalar Mrp4.node2.eth[1].queue incomingPacketLengths:histogram:overflows 0
scalar Mrp4.node2.eth[1].mac throughput:histogram:count 30
scalar Mrp4.node2.eth[1].mac throughput:histogram:sumweights 30
scalar Mrp4.node2.eth[1].mac throughput:histogram:mean 0
scalar Mrp4.node2.eth[1].mac throughput:histogram:stddev 0
scalar Mrp4.node2.eth[1].mac throughput:histogram:min 0
scalar Mrp4.node2.eth[1].mac throughput:histogram:max 0
scalar Mrp4.node2.eth[1].mac throughput:histogram:numbins 50
scalar Mrp4.node2.eth[1].mac throughput:histogram:rangemin -0.5
scalar Mrp4.node2.eth[1].mac throughput:histogram:rangemax 0.5
scalar Mrp4.node2.eth[1].mac throughput:histogram:underflows 0
scalar Mrp4.node2.eth[1].mac throughput:histogram:overflows 0
scalar Mrp4.node2.eth[1].mac utilization:histogram:count 30
scalar Mrp4.node2.eth[1].mac utilization:histogram:sumweights 30
scalar Mrp4.node2.eth[1].mac utilization:histogram:mean 0
scalar Mrp4.node2.eth[1].mac utilization:histogram:stddev 0
scalar Mrp4.node2.eth[1].mac utilization:histogram:min 0
scalar Mrp4.node2.eth[1].mac utilization:histogram:max 0
scalar Mrp4.node2.eth[1].mac utilization:histogram:numbins 50
scalar Mrp4.node2.eth[1].mac utilization:histogram:rangemin -0.5
scalar Mrp4.node2.eth[1].mac utilization:histogram:rangemax 0.5
scalar Mrp4.node2.eth[1].mac utilization:histogram:underflows 0
scalar Mrp4.node2.eth[1].mac utilization:histogram:overflows 0
scalar Mrp4.node3.eth[0].queue queueingTime:histogram:count 0
scalar Mrp4.node3.eth[0].queue queueingTime:histogram:sumweights 0
scalar Mrp4.node3.eth[0].queue queueingTime:histogram:mean -nan
scalar Mrp4.node3.eth[0].queue queueingTime:histogram:stddev nan
scalar Mrp4.node3.eth[0].queue queueingTime:histogram:min nan
scalar Mrp4.node3.eth[0].queue queueingTime:histogram:max nan
scalar Mrp4.node3.eth[0].queue queueingTime:histogram:numbins 1
scalar Mrp4.node3.eth[0].queue queueingTime:histogram:rangemin 0
scalar Mrp4.node3.eth[0].queue queueingTime:histogram:rangemax 1
scalar Mrp4.node3.eth[0].queue queueingTime:histogram:underflows 0
scalar Mrp4.node3.eth[0].queue queueingTime:histogram:overflows 0
scalar Mrp4.node3.eth[0].queue outgoingPacketLengths:histogram:count 0
scalar Mrp4.node3.eth[0].queue outgoingPacketLengths:histogram:sumweights 0
scalar Mrp4.node3.eth[0].queue outgoingPacketLengths:histogram:mean -nan
scalar Mrp4.node3.eth[0].queue outgoingPacketLengths:histogram:stddev nan
scalar Mrp4.node3.eth[0].queue outgoingPacketLengths:histogram:min nan
scalar Mrp4.node3.eth[0].queue outgoingPacketLengths:histogram:max nan
scalar Mrp4.node3.eth[0].queue outgoingPacketLengths:histogram:numbins 1
scalar Mrp4.node3.eth[0].queue outgoingPacketLengths:histogram:rangemin 0
scalar Mrp4.node3.eth[0].queue outgoingPacketLengths:histogram:rangemax 1
scalar Mrp4.node3.eth[0].queue outgoingPacketLengths:histogram:underflows 0
scalar Mrp4.node3.eth[0].queue outgoingPacketLengths:histogram:overflows 0
scalar Mrp4.node3.eth[0].queue flowQueueingTime:histogram:count 0
scalar Mrp4.node3.eth[0].queue flowQueueingTime:histogram:sumweights 0
scalar Mrp4.node3.eth[0].queue flowQueueingTime:histogram:mean -nan
scalar Mrp4.node3.eth[0].queue flowQueueingTime:histogram:stddev nan
scalar Mrp4.node3.eth[0].queue flowQueueingTime:histogram:min nan
scalar Mrp4.node3.eth[0].queue flowQueueingTime:histogram:max nan
scalar Mrp4.node3.eth[0].queue flowQueueingTime:histogram:numbins 1
scalar Mrp4.node3.eth[0].queue flowQueueingTime:histogram:rangemin 0
scalar Mrp4.node3.eth[0].queue flowQueueingTime:histogram:rangemax 1
scalar Mrp4.node3.eth[0].queue flowQueueingTime:histogram:underflows 0
scalar Mrp4.node3.eth[0].queue flowQueueingTime:histogram:overflows 0
scalar Mrp4.node3.eth[0].queue incomingPacketLengths:histogram:count 0
scalar Mrp4.node3.eth[0].queue incomingPacketLengths:histogram:sumweights 0
scalar Mrp4.node3.eth[0].queue incomingPacketLengths:histogram:mean -nan
scalar Mrp4.node3.eth[0].queue incomingPacketLengths:histogram:stddev nan
scalar Mrp4.node3.eth[0].queue incomingPacketLengths:histogram:min nan
scalar Mrp4.node3.eth[0].queue incomingPacketLengths:histogram:max nan
scalar Mrp4.node3.eth[0].queue incomingPacketLengths:histogram:numbins 1
scalar Mrp4.node3.eth[0].queue incomingPacketLengths:histogram:rangemin 0
scalar Mrp4.node3.eth[0].queue incomingPacketLengths:histogram:rangemax 1
scalar Mrp4.node3.eth[0].queue incomingPacketLengths:histogram:underflows 0
scalar Mrp4.node3.eth[0].queue incomingPacketLengths:histogram:overflows 0
scalar Mrp4.node3.eth[0].mac throughput:histogram:count 30
scalar Mrp4.node3.eth[0].mac throughput:histogram:sumweights 30
scalar Mrp4.node3.eth[0].mac throughput:histogram:mean 0
scalar Mrp4.node3.eth[0].mac throughput:histogram:stddev 0
scalar Mrp4.node3.eth[0].mac throughput:histogram:min 0
scalar Mrp4.node3.eth[0].mac throughput:histogram:max 0
scalar Mrp4.node3.eth[0].mac throughput:histogram:numbins 50
scalar Mrp4.node3.eth[0].mac throughput:histogram:rangemin -0.5
scalar Mrp4.node3.eth[0].mac throughput:histogram:rangemax 0.5
scalar Mrp4.node3.eth[0].mac throughput:histogram:underflows 0
scalar Mrp4.node3.eth[0].mac throughput:histogram:overflows 0
scalar Mrp4.node3.eth[0].mac utilization:histogram:count 30
scalar Mrp4.node3.eth[0].mac utilization:histogram:sumweights 30
scalar Mrp4.node3.eth[0].mac utilization:histogram:mean 0
scalar Mrp4.node3.eth[0].mac utilization:histogram:stddev 0
scalar Mrp4.node3.eth[0].mac utilization:histogram:min 0
scalar Mrp4.node3.eth[0].mac utilization:histogram:max 0
scalar Mrp4.node3.eth[0].mac utilization:histogram:numbins 50
scalar Mrp4.node3.eth[0].mac utilization:histogram:rangemin -0.5
scalar Mrp4.node3.eth[0].mac utilization:histogram:rangemax 0.5
scalar Mrp4.node3.eth[0].mac utilization:histogram:underflows 0
scalar Mrp4.node3.eth[0].mac utilization:histogram:overflows 0
scalar Mrp4.node3.eth[1].queue queueingTime:histogram:count 0
scalar Mrp4.node3.eth[1].queue queueingTime:histogram:sumweights 0
scalar Mrp4.node3.eth[1].queue queueingTime:histogram:mean -nan
scalar Mrp4.node3.eth[1].queue queueingTime:histogram:stddev nan
scalar Mrp4.node3.eth[1].queue queueingTime:histogram:min nan
scalar Mrp4.node3.eth[1].queue queueingTime:histogram:max nan
scalar Mrp4.node3.eth[1].queue queueingTime:histogram:numbins 1
scalar Mrp4.node3.eth[1].queue queueingTime:histogram:rangemin 0
scalar Mrp4.node3.eth[1].queue queueingTime:histogram:rangemax 1
scalar Mrp4.node3.eth[1].queue queueingTime:histogram:underflows 0
scalar Mrp4.node3.eth[1].queue queueingTime:histogram:overflows 0
scalar Mrp4.node3.eth[1].queue outgoingPacketLengths:histogram:count 0
scalar Mrp4.node3.eth[1].queue outgoingPacketLengths:histogram:sumweights 0
scalar Mrp4.node3.eth[1].queue outgoingPacketLengths:histogram:mean -nan
scalar Mrp4.node3.eth[1].queue outgoingPacketLengths:histogram:stddev nan
scalar Mrp4.node3.eth[1].queue outgoingPacketLengths:histogram:min nan
scalar Mrp4.node3.eth[1].queue outgoingPacketLengths:histogram:max nan
scalar Mrp4.node3.eth[1].queue outgoingPacketLengths:histogram:numbins 1
scalar Mrp4.node3.eth[1].queue outgoingPacketLengths:histogram:rangemin 0
scalar Mrp4.node3.eth[1].queue outgoingPacketLengths:histogram:rangemax 1
scalar Mrp4.node3.eth[1].queue outgoingPacketLengths:histogram:underflows 0
scalar Mrp4.node3.eth[1].queue outgoingPacketLengths:histogram:overflows 0
scalar Mrp4.node3.eth[1].queue flowQueueingTime:histogram:count 0
scalar Mrp4.node3.eth[1].queue flowQueueingTime:histogram:sumweights 0
scalar Mrp4.node3.eth[1].queue flowQueueingTime:histogram:mean -nan
scalar Mrp4.node3.eth[1].queue flowQueueingTime:histogram:stddev nan
scalar Mrp4.node3.eth[1].queue flowQueueingTime:histogram:min nan
scalar Mrp4.node3.eth[1].queue flowQueueingTime:histogram:max nan
scalar Mrp4.node3.eth[1].queue flowQueueingTime:histogram:numbins 1
scalar Mrp4.node3.eth[1].queue flowQueueingTime:histogram:rangemin 0
scalar Mrp4.node3.eth[1].queue flowQueueingTime:histogram:rangemax 1
scalar Mrp4.node3.eth[1].queue flowQueueingTime:histogram:underflows 0
scalar Mrp4.node3.eth[1].queue flowQueueingTime:histogram:overflows 0
scalar Mrp4.node3.eth[1].queue incomingPacketLengths:histogram:count 0
scalar Mrp4.node3.eth[1].queue incomingPacketLengths:histogram:sumweights 0
scalar Mrp4.node3.eth[1].queue incomingPacketLengths:histogram:mean -nan
scalar Mrp4.node3.eth[1].queue incomingPacketLengths:histogram:stddev nan
scalar Mrp4.node3.eth[1].queue incomingPacketLengths:histogram:min nan
scalar Mrp4.node3.eth[1].queue incomingPacketLengths:histogram:max nan
scalar Mrp4.node3.eth[1].queue incomingPacketLengths:histogram:numbins 1
scalar Mrp4.node3.eth[1].queue incomingPacketLengths:histogram:rangemin 0
scalar Mrp4.node3.eth[1].queue incomingPacketLengths:histogram:rangemax 1
scalar Mrp4.node3.eth[1].queue incomingPacketLengths:histogram:underflows 0
scalar Mrp4.node3.eth[1].queue incomingPacketLengths:histogram:overflows 0
scalar Mrp4.node3.eth[1].mac throughput:histogram:count 30
scalar Mrp4.node3.eth[1].mac throughput:histogram:sumweights 30
scalar Mrp4.node3.eth[1].mac throughput:histogram:mean 0
scalar Mrp4.node3.eth[1].mac throughput:histogram:stddev 0
scalar Mrp4.node3.eth[1].mac throughput:histogram:min 0
scalar Mrp4.node3.eth[1].mac throughput:histogram:max 0
scalar Mrp4.node3.eth[1].mac throughput:histogram:numbins 50
scalar Mrp4.node3.eth[1].mac throughput:histogram:rangemin -0.5
scalar Mrp4.node3.eth[1].mac throughput:histogram:rangemax 0.5
scalar Mrp4.node3.eth[1].mac throughput:histogram:underflows 0
scalar Mrp4.node3.eth[1].mac throughput:histogram:overflows 0
scalar Mrp4.node3.eth[1].mac utilization:histogram:count 30
scalar Mrp4.node3.eth[1].mac utilization:histogram:sumweights 30
scalar Mrp4.node3.eth[1].mac utilization:histogram:mean 0
scalar Mrp4.node3.eth[1].mac utilization:histogram:stddev 0
scalar Mrp4.node3.eth[1].mac utilization:histogram:min 0
scalar Mrp4.node3.eth[1].mac utilization:histogram:max 0
scalar Mrp4.node3.eth[1].mac utilization:histogram:numbins 50
scalar Mrp4.node3.eth[1].mac utilization:histogram:rangemin -0.5
scalar Mrp4.node3.eth[1].mac utilization:histogram:rangemax 0.5
scalar Mrp4.node3.eth[1].mac utilization:histogram:underflows 0
scalar Mrp4.node3.eth[1].mac utilization:histogram:overflows 0
statistic Mrp4.node0.eth[0].queue queueingTime:histogram
field count 0
field mean -nan
field stddev nan
field min nan
field max nan
field sum 0
field sqrsum 0
bin	-inf	0
bin	0	0
bin	1	0
statistic Mrp4.node0.eth[0].queue outgoingPacketLengths:histogram
field count 0
field mean -nan
field stddev nan
field min nan
field max nan
field sum 0
field sqrsum 0
bin	-inf	0
bin	0	0
bin	1	0
statistic Mrp4.node0.eth[0].queue flowQueueingTime:histogram
field count 0
field mean -nan
field stddev nan
field min nan
field max nan
field sum 0
field sqrsum 0
bin	-inf	0
bin	0	0
bin	1	0
statistic Mrp4.node0.eth[0].queue incomingPacketLengths:histogram
field count 0
field mean -nan
field stddev nan
field min nan
field max nan
field sum 0
field sqrsum 0
bin	-inf	0
bin	0	0
bin	1	0
statistic Mrp4.node0.eth[0].mac throughput:histogram
field count 30
field mean 0
field stddev 0
field min 0
field max 0
field sum 0
field sqrsum 0
bin	-inf	0
bin	-0.5	0
bin	-0.48	0
bin	-0.46	0
bin	-0.44	0
bin	-0.42	0
bin	-0.4	0
bin	-0.38	0
bin	-0.36	0
bin	-0.34	0
bin	-0.32	0
bin	-0.3	0
bin	-0.28	0
bin	-0.26	0
bin	-0.24	0
bin	-0.22	0
bin	-0.2	0
bin	-0.18	0
bin	-0.16	0
bin	-0.14	0
bin	-0.12	0
bin	-0.1	0
bin	-0.08	0
bin	-0.06	0
bin	-0.04	0
bin	-0.02	0
bin	0	30
bin	0.02	0
bin	0.04	0
bin	0.06	0
bin	0.08	0
bin	0.1	0
bin	0.12	0
bin	0.14	0
bin	0.16	0
bin	0.18	0
bin	0.2	0
bin	0.22	0
bin	0.24	0
bin	0.26	0
bin	0.28	0
bin	0.3	0
bin	0.32	0
bin	0.34	0
bin	0.36	0
bin	0.38	0
bin	0.4	0
bin	0.42	0
bin	0.44	0
bin	0.46	0
bin	0.48	0
bin	0.5	0
statistic Mrp4.node0.eth[0].mac utilization:histogram
field count 30
field mean 0
field stddev 0
field min 0
field max 0
field sum 0
field sqrsum 0
bin	-inf	0
bin	-0.5	0
bin	-0.48	0
bin	-0.46	0
bin	-0.44	0
bin	-0.42	0
bin	-0.4	0
bin	-0.38	0
bin	-0.36	0
bin	-0.34	0
bin	-0.32	0
bin	-0.3	0
bin	-0.28	0
bin	-0.26	0
bin	-0.24	0
bin	-0.22	0
bin	-0.2	0
bin	-0.18	0
bin	-0.16	0
bin	-0.14	0
bin	-0.12	0
bin	-0.1	0
bin	-0.08	0
bin	-0.06	0
bin	-0.04	0
bin	-0.02	0
bin	0	30
bin	0.02	0
bin	0.04	0
bin	0.06	0
bin	0.08	0
bin	0.1	0
bin	0.12	0
bin	0.14	0
bin	0.16	0
bin	0.18	0
bin	0.2	0
bin	0.22	0
bin	0.24	0
bin	0.26	0
bin	0.28	0
bin	0.3	0
bin	0.32	0
bin	0.34	0
bin	0.36	0
bin	0.38	0
bin	0.4	0
bin	0.42	0
bin	0.44	0
bin	0.46	0
bin	0.48	0
bin	0.5	0
statistic Mrp4.node0.eth[1].queue queueingTime:histogram
field count 0
field mean -nan
field stddev nan
field min nan
field max nan
field sum 0
field sqrsum 0
bin	-inf	0
bin	0	0
bin	1	0
statistic Mrp4.node0.eth[1].queue outgoingPacketLengths:histogram
field count 0
field mean -nan
field stddev nan
field min nan
field max nan
field sum 0
field sqrsum 0
bin	-inf	0
bin	0	0
bin	1	0
statistic Mrp4.node0.eth[1].queue flowQueueingTime:histogram
field count 0
field mean -nan
field stddev nan
field min nan
field max nan
field sum 0
field sqrsum 0
bin	-inf	0
bin	0	0
bin	1	0
statistic Mrp4.node0.eth[1].queue incomingPacketLengths:histogram
field count 0
field mean -nan
field stddev nan
field min nan
field max nan
field sum 0
field sqrsum 0
bin	-inf	0
bin	0	0
bin	1	0
statistic Mrp4.node0.eth[1].mac throughput:histogram
field count 30
field mean 0
field stddev 0
field min 0
field max 0
field sum 0
field sqrsum 0
bin	-inf	0
bin	-0.5	0
bin	-0.48	0
bin	-0.46	0
bin	-0.44	0
bin	-0.42	0
bin	-0.4	0
bin	-0.38	0
bin	-0.36	0
bin	-0.34	0
bin	-0.32	0
bin	-0.3	0
bin	-0.28	0
bin	-0.26	0
bin	-0.24	0
bin	-0.22	0
bin	-0.2	0
bin	-0.18	0
bin	-0.16	0
bin	-0.14	0
bin	-0.12	0
bin	-0.1	0
bin	-0.08	0
bin	-0.06	0
bin	-0.04	0
bin	-0.02	0
bin	0	30
bin	0.02	0
bin	0.04	0
bin	0.06	0
bin	0.08	0
bin	0.1	0
bin	0.12	0
bin	0.14	0
bin	0.16	0
bin	0.18	0
bin	0.2	0
bin	0.22	0
bin	0.24	0
bin	0.26	0
bin	0.28	0
bin	0.3	0
bin	0.32	0
bin	0.34	0
bin	0.36	0
bin	0.38	0
bin	0.4	0
bin	0.42	0
bin	0.44	0
bin	0.46	0
bin	0.48	0
bin	0.5	0
statistic Mrp4.node0.eth[1].mac utilization:histogram
field count 30
field mean 0
field stddev 0
field min 0
field max 0
field sum 0
field sqrsum 0
bin	-inf	0
bin	-0.5	0
bin	-0.48	0
bin	-0.46	0
bin	-0.44	0
bin	-0.42	0
bin	-0.4	0
bin	-0.38	0
bin	-0.36	0
bin	-0.34	0
bin	-0.32	0
bin	-0.3	0
bin	-0.28	0
bin	-0.26	0
bin	-0.24	0
bin	-0.22	0
bin	-0.2	0
bin	-0.18	0
bin	-0.16	0
bin	-0.14	0
bin	-0.12	0
bin	-0.1	0
bin	-0.08	0
bin	-0.06	0
bin	-0.04	0
bin	-0.02	0
bin	0	30
bin	0.02	0
bin	0.04	0
bin	0.06	0
bin	0.08	0
bin	0.1	0
bin	0.12	0
bin	0.14	0
bin	0.16	0
bin	0.18	0
bin	0.2	0
bin	0.22	0
bin	0.24	0
bin	0.26	0
bin	0.28	0
bin	0.3	0
bin	0.32	0
bin	0.34	0
bin	0.36	0
bin	0.38	0
bin	0.4	0
bin	0.42	0
bin	0.44	0
bin	0.46	0
bin	0.48	0
bin	0.5	0
statistic Mrp4.node1.eth[0].queue queueingTime:histogram
field count 0
field mean -nan
field stddev nan
field min nan
field max nan
field sum 0
field sqrsum 0
bin	-inf	0
bin	0	0
bin	1	0
statistic Mrp4.node1.eth[0].queue outgoingPacketLengths:histogram
field count 0
field mean -nan
field stddev nan
field min nan
field max nan
field sum 0
field sqrsum 0
bin	-inf	0
bin	0	0
bin	1	0
statistic Mrp4.node1.eth[0].queue flowQueueingTime:histogram
field count 0
field mean -nan
field stddev nan
field min nan
field max nan
field sum 0
field sqrsum 0
bin	-inf	0
bin	0	0
bin	1	0
statistic Mrp4.node1.eth[0].queue incomingPacketLengths:histogram
field count 0
field mean -nan
field stddev nan
field min nan
field max nan
field sum 0
field sqrsum 0
bin	-inf	0
bin	0	0
bin	1	0
statistic Mrp4.node1.eth[0].mac throughput:histogram
field count 30
field mean 0
field stddev 0
field min 0
field max 0
field sum 0
field sqrsum 0
bin	-inf	0
bin	-0.5	0
bin	-0.48	0
bin	-0.46	0
bin	-0.44	0
bin	-0.42	0
bin	-0.4	0
bin	-0.38	0
bin	-0.36	0
bin	-0.34	0
bin	-0.32	0
bin	-0.3	0
bin	-0.28	0
bin	-0.26	0
bin	-0.24	0
bin	-0.22	0
bin	-0.2	0
bin	-0.18	0
bin	-0.16	0
bin	-0.14	0
bin	-0.12	0
bin	-0.1	0
bin	-0.08	0
bin	-0.06	0
bin	-0.04	0
bin	-0.02	0
bin	0	30
bin	0.02	0
bin	0.04	0
bin	0.06	0
bin	0.08	0
bin	0.1	0
bin	0.12	0
bin	0.14	0
bin	0.16	0
bin	0.18	0
bin	0.2	0
bin	0.22	0
bin	0.24	0
bin	0.26	0
bin	0.28	0
bin	0.3	0
bin	0.32	0
bin	0.34	0
bin	0.36	0
bin	0.38	0
bin	0.4	0
bin	0.42	0
bin	0.44	0
bin	0.46	0
bin	0.48	0
bin	0.5	0
statistic Mrp4.node1.eth[0].mac utilization:histogram
field count 30
field mean 0
field stddev 0
field min 0
field max 0
field sum 0
field sqrsum 0
bin	-inf	0
bin	-0.5	0
bin	-0.48	0
bin	-0.46	0
bin	-0.44	0
bin	-0.42	0
bin	-0.4	0
bin	-0.38	0
bin	-0.36	0
bin	-0.34	0
bin	-0.32	0
bin	-0.3	0
bin	-0.28	0
bin	-0.26	0
bin	-0.24	0
bin	-0.22	0
bin	-0.2	0
bin	-0.18	0
bin	-0.16	0
bin	-0.14	0
bin	-0.12	0
bin	-0.1	0
bin	-0.08	0
bin	-0.06	0
bin	-0.04	0
bin	-0.02	0
bin	0	30
bin	0.02	0
bin	0.04	0
bin	0.06	0
bin	0.08	0
bin	0.1	0
bin	0.12	0
bin	0.14	0
bin	0.16	0
bin	0.18	0
bin	0.2	0
bin	0.22	0
bin	0.24	0
bin	0.26	0
bin	0.28	0
bin	0.3	0
bin	0.32	0
bin	0.34	0
bin	0.36	0
bin	0.38	0
bin	0.4	0
bin	0.42	0
bin	0.44	0
bin	0.46	0
bin	0.48	0
bin	0.5	0
statistic Mrp4.node1.eth[1].queue queueingTime:histogram
field count 0
field mean -nan
field stddev nan
field min nan
field max nan
field sum 0
field sqrsum 0
bin	-inf	0
bin	0	0
bin	1	0
statistic Mrp4.node1.eth[1].queue outgoingPacketLengths:histogram
field count 0
field mean -nan
field stddev nan
field min nan
field max nan
field sum 0
field sqrsum 0
bin	-inf	0
bin	0	0
bin	1	0
statistic Mrp4.node1.eth[1].queue flowQueueingTime:histogram
field count 0
field mean -nan
field stddev nan
field min nan
field max nan
field sum 0
field sqrsum 0
bin	-inf	0
bin	0	0
bin	1	0
statistic Mrp4.node1.eth[1].queue incomingPacketLengths:histogram
field count 0
field mean -nan
field stddev nan
field min nan
field max nan
field sum 0
field sqrsum 0
bin	-inf	0
bin	0	0
bin	1	0
statistic Mrp4.node1.eth[1].mac throughput:histogram
field count 30
field mean 0
field stddev 0
field min 0
field max 0
field sum 0
field sqrsum 0
bin	-inf	0
bin	-0.5	0
bin	-0.48	0
bin	-0.46	0
bin	-0.44	0
bin	-0.42	0
bin	-0.4	0
bin	-0.38	0
bin	-0.36	0
bin	-0.34	0
bin	-0.32	0
bin	-0.3	0
bin	-0.28	0
bin	-0.26	0
bin	-0.24	0
bin	-0.22	0
bin	-0.2	0
bin	-0.18	0
bin	-0.16	0
bin	-0.14	0
bin	-0.12	0
bin	-0.1	0
bin	-0.08	0
bin	-0.06	0
bin	-0.04	0
bin	-0.02	0
bin	0	30
bin	0.02	0
bin	0.04	0
bin	0.06	0
bin	0.08	0
bin	0.1	0
bin	0.12	0
bin	0.14	0
bin	0.16	0
bin	0.18	0
bin	0.2	0
bin	0.22	0
bin	0.24	0
bin	0.26	0
bin	0.28	0
bin	0.3	0
bin	0.32	0
bin	0.34	0
bin	0.36	0
bin	0.38	0
bin	0.4	0
bin	0.42	0
bin	0.44	0
bin	0.46	0
bin	0.48	0
bin	0.5	0
statistic Mrp4.node1.eth[1].mac utilization:histogram
field count 30
field mean 0
field stddev 0
field min 0
field max 0
field sum 0
field sqrsum 0
bin	-inf	0
bin	-0.5	0
bin	-0.48	0
bin	-0.46	0
bin	-0.44	0
bin	-0.42	0
bin	-0.4	0
bin	-0.38	0
bin	-0.36	0
bin	-0.34	0
bin	-0.32	0
bin	-0.3	0
bin	-0.28	0
bin	-0.26	0
bin	-0.24	0
bin	-0.22	0
bin	-0.2	0
bin	-0.18	0
bin	-0.16	0
bin	-0.14	0
bin	-0.12	0
bin	-0.1	0
bin	-0.08	0
bin	-0.06	0
bin	-0.04	0
bin	-0.02	0
bin	0	30
bin	0.02	0
bin	0.04	0
bin	0.06	0
bin	0.08	0
bin	0.1	0
bin	0.12	0
bin	0.14	0
bin	0.16	0
bin	0.18	0
bin	0.2	0
bin	0.22	0
bin	0.24	0
bin	0.26	0
bin	0.28	0
bin	0.3	0
bin	0.32	0
bin	0.34	0
bin	0.36	0
bin	0.38	0
bin	0.4	0
bin	0.42	0
bin	0.44	0
bin	0.46	0
bin	0.48	0
bin	0.5	0
statistic Mrp4.node2.eth[0].queue queueingTime:histogram
field count 0
field mean -nan
field stddev nan
field min nan
field max nan
field sum 0
field sqrsum 0
bin	-inf	0
bin	0	0
bin	1	0
statistic Mrp4.node2.eth[0].queue outgoingPacketLengths:histogram
field count 0
field mean -nan
field stddev nan
field min nan
field max nan
field sum 0
field sqrsum 0
bin	-inf	0
bin	0	0
bin	1	0
statistic Mrp4.node2.eth[0].queue flowQueueingTime:histogram
field count 0
field mean -nan
field stddev nan
field min nan
field max nan
field sum 0
field sqrsum 0
bin	-inf	0
bin	0	0
bin	1	0
statistic Mrp4.node2.eth[0].queue incomingPacketLengths:histogram
field count 0
field mean -nan
field stddev nan
field min nan
field max nan
field sum 0
field sqrsum 0
bin	-inf	0
bin	0	0
bin	1	0
statistic Mrp4.node2.eth[0].mac throughput:histogram
field count 30
field mean 0
field stddev 0
field min 0
field max 0
field sum 0
field sqrsum 0
bin	-inf	0
bin	-0.5	0
bin	-0.48	0
bin	-0.46	0
bin	-0.44	0
bin	-0.42	0
bin	-0.4	0
bin	-0.38	0
bin	-0.36	0
bin	-0.34	0
bin	-0.32	0
bin	-0.3	0
bin	-0.28	0
bin	-0.26	0
bin	-0.24	0
bin	-0.22	0
bin	-0.2	0
bin	-0.18	0
bin	-0.16	0
bin	-0.14	0
bin	-0.12	0
bin	-0.1	0
bin	-0.08	0
bin	-0.06	0
bin	-0.04	0
bin	-0.02	0
bin	0	30
bin	0.02	0
bin	0.04	0
bin	0.06	0
bin	0.08	0
bin	0.1	0
bin	0.12	0
bin	0.14	0
bin	0.16	0
bin	0.18	0
bin	0.2	0
bin	0.22	0
bin	0.24	0
bin	0.26	0
bin	0.28	0
bin	0.3	0
bin	0.32	0
bin	0.34	0
bin	0.36	0
bin	0.38	0
bin	0.4	0
bin	0.42	0
bin	0.44	0
bin	0.46	0
bin	0.48	0
bin	0.5	0
statistic Mrp4.node2.eth[0].mac utilization:histogram
field count 30
field mean 0
field stddev 0
field min 0
field max 0
field sum 0
field sqrsum 0
bin	-inf	0
bin	-0.5	0
bin	-0.48	0
bin	-0.46	0
bin	-0.44	0
bin	-0.42	0
bin	-0.4	0
bin	-0.38	0
bin	-0.36	0
bin	-0.34	0
bin	-0.32	0
bin	-0.3	0
bin	-0.28	0
bin	-0.26	0
bin	-0.24	0
bin	-0.22	0
bin	-0.2	0
bin	-0.18	0
bin	-0.16	0
bin	-0.14	0
bin	-0.12	0
bin	-0.1	0
bin	-0.08	0
bin	-0.06	0
bin	-0.04	0
bin	-0.02	0
bin	0	30
bin	0.02	0
bin	0.04	0
bin	0.06	0
bin	0.08	0
bin	0.1	0
bin	0.12	0
bin	0.14	0
bin	0.16	0
bin	0.18	0
bin	0.2	0
bin	0.22	0
bin	0.24	0
bin	0.26	0
bin	0.28	0
bin	0.3	0
bin	0.32	0
bin	0.34	0
bin	0.36	0
bin	0.38	0
bin	0.4	0
bin	0.42	0
bin	0.44	0
bin	0.46	0
bin	0.48	0
bin	0.5	0
statistic Mrp4.node2.eth[1].queue queueingTime:histogram
field count 0
field mean -nan
field stddev nan
field min nan
field max nan
field sum 0
field sqrsum 0
bin	-inf	0
bin	0	0
bin	1	0
statistic Mrp4.node2.eth[1].queue outgoingPacketLengths:histogram
field count 0
field mean -nan
field stddev nan
field min nan
field max nan
field sum 0
field sqrsum 0
bin	-inf	0
bin	0	0
bin	1	0
statistic Mrp4.node2.eth[1].queue flowQueueingTime:histogram
field count 0
field mean -nan
field stddev nan
field min nan
field max nan
field sum 0
field sqrsum 0
bin	-inf	0
bin	0	0
bin	1	0
statistic Mrp4.node2.eth[1].queue incomingPacketLengths:histogram
field count 0
field mean -nan
field stddev nan
field min nan
field max nan
field sum 0
field sqrsum 0
bin	-inf	0
bin	0	0
bin	1	0
statistic Mrp4.node2.eth[1].mac throughput:histogram
field count 30
field mean 0
field stddev 0
field min 0
field max 0
field sum 0
field sqrsum 0
bin	-inf	0
bin	-0.5	0
bin	-0.48	0
bin	-0.46	0
bin	-0.44	0
bin	-0.42	0
bin	-0.4	0
bin	-0.38	0
bin	-0.36	0
bin	-0.34	0
bin	-0.32	0
bin	-0.3	0
bin	-0.28	0
bin	-0.26	0
bin	-0.24	0
bin	-0.22	0
bin	-0.2	0
bin	-0.18	0
bin	-0.16	0
bin	-0.14	0
bin	-0.12	0
bin	-0.1	0
bin	-0.08	0
bin	-0.06	0
bin	-0.04	0
bin	-0.02	0
bin	0	30
bin	0.02	0
bin	0.04	0
bin	0.06	0
bin	0.08	0
bin	0.1	0
bin	0.12	0
bin	0.14	0
bin	0.16	0
bin	0.18	0
bin	0.2	0
bin	0.22	0
bin	0.24	0
bin	0.26	0
bin	0.28	0
bin	0.3	0
bin	0.32	0
bin	0.34	0
bin	0.36	0
bin	0.38	0
bin	0.4	0
bin	0.42	0
bin	0.44	0
bin	0.46	0
bin	0.48	0
bin	0.5	0
statistic Mrp4.node2.eth[1].mac utilization:histogram
field count 30
field mean 0
field stddev 0
field min 0
field max 0
field sum 0
field sqrsum 0
bin	-inf	0
bin	-0.5	0
bin	-0.48	0
bin	-0.46	0
bin	-0.44	0
bin	-0.42	0
bin	-0.4	0
bin	-0.38	0
bin	-0.36	0
bin	-0.34	0
bin	-0.32	0
bin	-0.3	0
bin	-0.28	0
bin	-0.26	0
bin	-0.24	0
bin	-0.22	0
bin	-0.2	0
bin	-0.18	0
bin	-0.16	0
bin	-0.14	0
bin	-0.12	0
bin	-0.1	0
bin	-0.08	0
bin	-0.06	0
bin	-0.04	0
bin	-0.02	0
bin	0	30
bin	0.02	0
bin	0.04	0
bin	0.06	0
bin	0.08	0
bin	0.1	0
bin	0.12	0
bin	0.14	0
bin	0.16	0
bin	0.18	0
bin	0.2	0
bin	0.22	0
bin	0.24	0
bin	0.26	0
bin	0.28	0
bin	0.3	0
bin	0.32	0
bin	0.34	0
bin	0.36	0
bin	0.38	0
bin	0.4	0
bin	0.42	0
bin	0.44	0
bin	0.46	0
bin	0.48	0
bin	0.5	0
statistic Mrp4.node3.eth[0].queue queueingTime:histogram
field count 0
field mean -nan
field stddev nan
field min nan
field max nan
field sum 0
field sqrsum 0
bin	-inf	0
bin	0	0
bin	1	0
statistic Mrp4.node3.eth[0].queue outgoingPacketLengths:histogram
field count 0
field mean -nan
field stddev nan
field min nan
field max nan
field sum 0
field sqrsum 0
bin	-inf	0
bin	0	0
bin	1	0
statistic Mrp4.node3.eth[0].queue flowQueueingTime:histogram
field count 0
field mean -nan
field stddev nan
field min nan
field max nan
field sum 0
field sqrsum 0
bin	-inf	0
bin	0	0
bin	1	0
statistic Mrp4.node3.eth[0].queue incomingPacketLengths:histogram
field count 0
field mean -nan
field stddev nan
field min nan
field max nan
field sum 0
field sqrsum 0
bin	-inf	0
bin	0	0
bin	1	0
statistic Mrp4.node3.eth[0].mac throughput:histogram
field count 30
field mean 0
field stddev 0
field min 0
field max 0
field sum 0
field sqrsum 0
bin	-inf	0
bin	-0.5	0
bin	-0.48	0
bin	-0.46	0
bin	-0.44	0
bin	-0.42	0
bin	-0.4	0
bin	-0.38	0
bin	-0.36	0
bin	-0.34	0
bin	-0.32	0
bin	-0.3	0
bin	-0.28	0
bin	-0.26	0
bin	-0.24	0
bin	-0.22	0
bin	-0.2	0
bin	-0.18	0
bin	-0.16	0
bin	-0.14	0
bin	-0.12	0
bin	-0.1	0
bin	-0.08	0
bin	-0.06	0
bin	-0.04	0
bin	-0.02	0
bin	0	30
bin	0.02	0
bin	0.04	0
bin	0.06	0
bin	0.08	0
bin	0.1	0
bin	0.12	0
bin	0.14	0
bin	0.16	0
bin	0.18	0
bin	0.2	0
bin	0.22	0
bin	0.24	0
bin	0.26	0
bin	0.28	0
bin	0.3	0
bin	0.32	0
bin	0.34	0
bin	0.36	0
bin	0.38	0
bin	0.4	0
bin	0.42	0
bin	0.44	0
bin	0.46	0
bin	0.48	0
bin	0.5	0
statistic Mrp4.node3.eth[0].mac utilization:histogram
field count 30
field mean 0
field stddev 0
field min 0
field max 0
field sum 0
field sqrsum 0
bin	-inf	0
bin	-0.5	0
bin	-0.48	0
bin	-0.46	0
bin	-0.44	0
bin	-0.42	0
bin	-0.4	0
bin	-0.38	0
bin	-0.36	0
bin	-0.34	0
bin	-0.32	0
bin	-0.3	0
bin	-0.28	0
bin	-0.26	0
bin	-0.24	0
bin	-0.22	0
bin	-0.2	0
bin	-0.18	0
bin	-0.16	0
bin	-0.14	0
bin	-0.12	0
bin	-0.1	0
bin	-0.08	0
bin	-0.06	0
bin	-0.04	0
bin	-0.02	0
bin	0	30
bin	0.02	0
bin	0.04	0
bin	0.06	0
bin	0.08	0
bin	0.1	0
bin	0.12	0
bin	0.14	0
bin	0.16	0
bin	0.18	0
bin	0.2	0
bin	0.22	0
bin	0.24	0
bin	0.26	0
bin	0.28	0
bin	0.3	0
bin	0.32	0
bin	0.34	0
bin	0.36	0
bin	0.38	0
bin	0.4	0
bin	0.42	0
bin	0.44	0
bin	0.46	0
bin	0.48	0
bin	0.5	0
statistic Mrp4.node3.eth[1].queue queueingTime:histogram
field count 0
field mean -nan
field stddev nan
field min nan
field max nan
field sum 0
field sqrsum 0
bin	-inf	0
bin	0	0
bin	1	0
statistic Mrp4.node3.eth[1].queue outgoingPacketLengths:histogram
field count 0
field mean -nan
field stddev nan
field min nan
field max nan
field sum 0
field sqrsum 0
bin	-inf	0
bin	0	0
bin	1	0
statistic Mrp4.node3.eth[1].queue flowQueueingTime:histogram
field count 0
field mean -nan
field stddev nan
field min nan
field max nan
field sum 0
field sqrsum 0
bin	-inf	0
bin	0	0
bin	1	0
statistic Mrp4.node3.eth[1].queue incomingPacketLengths:histogram
field count 0
field mean -nan
field stddev nan
field min nan
field max nan
field sum 0
field sqrsum 0
bin	-inf	0
bin	0	0
bin	1	0
statistic Mrp4.node3.eth[1].mac throughput:histogram
field count 30
field mean 0
field stddev 0
field min 0
field max 0
field sum 0
field sqrsum 0
bin	-inf	0
bin	-0.5	0
bin	-0.48	0
bin	-0.46	0
bin	-0.44	0
bin	-0.42	0
bin	-0.4	0
bin	-0.38	0
bin	-0.36	0
bin	-0.34	0
bin	-0.32	0
bin	-0.3	0
bin	-0.28	0
bin	-0.26	0
bin	-0.24	0
bin	-0.22	0
bin	-0.2	0
bin	-0.18	0
bin	-0.16	0
bin	-0.14	0
bin	-0.12	0
bin	-0.1	0
bin	-0.08	0
bin	-0.06	0
bin	-0.04	0
bin	-0.02	0
bin	0	30
bin	0.02	0
bin	0.04	0
bin	0.06	0
bin	0.08	0
bin	0.1	0
bin	0.12	0
bin	0.14	0
bin	0.16	0
bin	0.18	0
bin	0.2	0
bin	0.22	0
bin	0.24	0
bin	0.26	0
bin	0.28	0
bin	0.3	0
bin	0.32	0
bin	0.34	0
bin	0.36	0
bin	0.38	0
bin	0.4	0
bin	0.42	0
bin	0.44	0
bin	0.46	0
bin	0.48	0
bin	0.5	0
statistic Mrp4.node3.eth[1].mac utilization:histogram
field count 30
field mean 0
field stddev 0
field min 0
field max 0
field sum 0
field sqrsum 0
bin	-inf	0
bin	-0.5	0
bin	-0.48	0
bin	-0.46	0
bin	-0.44	0
bin	-0.42	0
bin	-0.4	0
bin	-0.38	0
bin	-0.36	0
bin	-0.34	0
bin	-0.32	0
bin	-0.3	0
bin	-0.28	0
bin	-0.26	0
bin	-0.24	0
bin	-0.22	0
bin	-0.2	0
bin	-0.18	0
bin	-0.16	0
bin	-0.14	0
bin	-0.12	0
bin	-0.1	0
bin	-0.08	0
bin	-0.06	0
bin	-0.04	0
bin	-0.02	0
bin	0	30
bin	0.02	0
bin	0.04	0
bin	0.06	0
bin	0.08	0
bin	0.1	0
bin	0.12	0
bin	0.14	0
bin	0.16	0
bin	0.18	0
bin	0.2	0
bin	0.22	0
bin	0.24	0
bin	0.26	0
bin	0.28	0
bin	0.3	0
bin	0.32	0
bin	0.34	0
bin	0.36	0
bin	0.38	0
bin	0.4	0
bin	0.42	0
bin	0.44	0
bin	0.46	0
bin	0.48	0
bin	0.5	0
scalar Mrp4.node0.mrp ringState:vector:count 0
scalar Mrp4.node0.mrp ringState:vector:sum 0
[...]
scalar Mrp4.node3.eth[0].mac packetReceivedFromUpper:vector(packetBytes):count 0
scalar Mrp4.node3.eth[0].mac packetReceivedFromUpper:vector(packetBytes):sum 0
scalar Mrp4.node3.eth[0].mac packetReceivedFromUpper:vector(packetBytes):sumweights 0
scalar Mrp4.node3.eth[0].mac packetReceivedFromUpper:vector(packetBytes):mean -nan
scalar Mrp4.node3.eth[0].mac packetReceivedFromUpper:vector(packetBytes):stddev nan
scalar Mrp4.node3.eth[0].mac packetReceivedFromUpper:vector(packetBytes):min inf
scalar Mrp4.node3.eth[0].mac packetReceivedFromUpper:vector(packetBytes):max -inf
scalar Mrp4.node3.eth[0].mac packetReceivedFromUpper:vector(packetBytes):starttime nan
scalar Mrp4.node3.eth[0].mac packetReceivedFromUpper:vector(packetBytes):endtime nan
scalar Mrp4.node3.eth[0].mac packetDropIncorrectlyReceived:vector(packetBytes):count 0
scalar Mrp4.node3.eth[0].mac packetDropIncorrectlyReceived:vector(packetBytes):sum 0
scalar Mrp4.node3.eth[0].mac packetDropIncorrectlyReceived:vector(packetBytes):sumweights 0
scalar Mrp4.node3.eth[0].mac packetDropIncorrectlyReceived:vector(packetBytes):mean -nan
scalar Mrp4.node3.eth[0].mac packetDropIncorrectlyReceived:vector(packetBytes):stddev nan
scalar Mrp4.node3.eth[0].mac packetDropIncorrectlyReceived:vector(packetBytes):min inf
scalar Mrp4.node3.eth[0].mac packetDropIncorrectlyReceived:vector(packetBytes):max -inf
scalar Mrp4.node3.eth[0].mac packetDropIncorrectlyReceived:vector(packetBytes):starttime nan
scalar Mrp4.node3.eth[0].mac packetDropIncorrectlyReceived:vector(packetBytes):endtime nan
scalar Mrp4.node3.eth[0].mac packetDropInterfaceDown:vector(packetBytes):count 0
scalar Mrp4.node3.eth[0].mac packetDropInterfaceDown:vector(packetBytes):sum 0
scalar Mrp4.node3.eth[0].mac packetDropInterfaceDown:vector(packetBytes):sumweights 0
scalar Mrp4.node3.eth[0].mac packetDropInterfaceDown:vector(packetBytes):mean -nan
scalar Mrp4.node3.eth[0].mac packetDropInterfaceDown:vector(packetBytes):stddev nan
scalar Mrp4.node3.eth[0].mac packetDropInterfaceDown:vector(packetBytes):min inf
scalar Mrp4.node3.eth[0].mac packetDropInterfaceDown:vector(packetBytes):max -inf
scalar Mrp4.node3.eth[0].mac packetDropInterfaceDown:vector(packetBytes):starttime nan
scalar Mrp4.node3.eth[0].mac packetDropInterfaceDown:vector(packetBytes):endtime nan
scalar Mrp4.node3.eth[0].mac packetDropNotAddressedToUs:vector(packetBytes):count 0
scalar Mrp4.node3.eth[0].mac packetDropNotAddressedToUs:vector(packetBytes):sum 0
scalar Mrp4.node3.eth[0].mac packetDropNotAddressedToUs:vector(packetBytes):sumweights 0
scalar Mrp4.node3.eth[0].mac packetDropNotAddressedToUs:vector(packetBytes):mean -nan
scalar Mrp4.node3.eth[0].mac packetDropNotAddressedToUs:vector(packetBytes):stddev nan
scalar Mrp4.node3.eth[0].mac packetDropNotAddressedToUs:vector(packetBytes):min inf
scalar Mrp4.node3.eth[0].mac packetDropNotAddressedToUs:vector(packetBytes):max -inf
scalar Mrp4.node3.eth[0].mac packetDropNotAddressedToUs:vector(packetBytes):starttime nan
scalar Mrp4.node3.eth[0].mac packetDropNotAddressedToUs:vector(packetBytes):endtime nan
scalar Mrp4.node3.eth[0] packetDropInterfaceDown:vector(packetBytes):count 0
scalar Mrp4.node3.eth[0] packetDropInterfaceDown:vector(packetBytes):sum 0
scalar Mrp4.node3.eth[0] packetDropInterfaceDown:vector(packetBytes):sumweights 0
scalar Mrp4.node3.eth[0] packetDropInterfaceDown:vector(packetBytes):mean -nan
scalar Mrp4.node3.eth[0] packetDropInterfaceDown:vector(packetBytes):stddev nan
scalar Mrp4.node3.eth[0] packetDropInterfaceDown:vector(packetBytes):min inf
scalar Mrp4.node3.eth[0] packetDropInterfaceDown:vector(packetBytes):max -inf
scalar Mrp4.node3.eth[0] packetDropInterfaceDown:vector(packetBytes):starttime nan
scalar Mrp4.node3.eth[0] packetDropInterfaceDown:vector(packetBytes):endtime nan
scalar Mrp4.node3.eth[0] packetDropNoCarrier:vector(packetBytes):count 0
scalar Mrp4.node3.eth[0] packetDropNoCarrier:vector(packetBytes):sum 0
scalar Mrp4.node3.eth[0] packetDropNoCarrier:vector(packetBytes):sumweights 0
scalar Mrp4.node3.eth[0] packetDropNoCarrier:vector(packetBytes):mean -nan
scalar Mrp4.node3.eth[0] packetDropNoCarrier:vector(packetBytes):stddev nan
scalar Mrp4.node3.eth[0] packetDropNoCarrier:vector(packetBytes):min inf
scalar Mrp4.node3.eth[0] packetDropNoCarrier:vector(packetBytes):max -inf
scalar Mrp4.node3.eth[0] packetDropNoCarrier:vector(packetBytes):starttime nan
scalar Mrp4.node3.eth[0] packetDropNoCarrier:vector(packetBytes):endtime nan
scalar Mrp4.node3.eth[1].queue queueLength:vector:count 5
scalar Mrp4.node3.eth[1].queue queueLength:vector:sum 0
scalar Mrp4.node3.eth[1].queue queueLength:vector:sumweights 5
scalar Mrp4.node3.eth[1].queue queueLength:vector:mean 0
scalar Mrp4.node3.eth[1].queue queueLength:vector:stddev 0
scalar Mrp4.node3.eth[1].queue queueLength:vector:min 0
scalar Mrp4.node3.eth[1].queue queueLength:vector:max 0
scalar Mrp4.node3.eth[1].queue queueLength:vector:starttime 0
scalar Mrp4.node3.eth[1].queue queueLength:vector:endtime 0
scalar Mrp4.node3.eth[1].queue queueBitLength:vector:count 5
scalar Mrp4.node3.eth[1].queue queueBitLength:vector:sum 0
scalar Mrp4.node3.eth[1].queue queueBitLength:vector:sumweights 5
scalar Mrp4.node3.eth[1].queue queueBitLength:vector:mean 0
scalar Mrp4.node3.eth[1].queue queueBitLength:vector:stddev 0
scalar Mrp4.node3.eth[1].queue queueBitLength:vector:min 0
scalar Mrp4.node3.eth[1].queue queueBitLength:vector:max 0
scalar Mrp4.node3.eth[1].queue queueBitLength:vector:starttime 0
scalar Mrp4.node3.eth[1].queue queueBitLength:vector:endtime 0
scalar Mrp4.node3.eth[1].queue queueingTime:vector:count 0
scalar Mrp4.node3.eth[1].queue queueingTime:vector:sum 0
scalar Mrp4.node3.eth[1].queue queueingTime:vector:sumweights 0
scalar Mrp4.node3.eth[1].queue queueingTime:vector:mean -nan
scalar Mrp4.node3.eth[1].queue queueingTime:vector:stddev nan
scalar Mrp4.node3.eth[1].queue queueingTime:vector:min inf
scalar Mrp4.node3.eth[1].queue queueingTime:vector:max -inf
scalar Mrp4.node3.eth[1].queue queueingTime:vector:starttime nan
scalar Mrp4.node3.eth[1].queue queueingTime:vector:endtime nan
scalar Mrp4.node3.eth[1].queue incomingPacketLengths:vector:count 0
scalar Mrp4.node3.eth[1].queue incomingPacketLengths:vector:sum 0
scalar Mrp4.node3.eth[1].queue incomingPacketLengths:vector:sumweights 0
scalar Mrp4.node3.eth[1].queue incomingPacketLengths:vector:mean -nan
scalar Mrp4.node3.eth[1].queue incomingPacketLengths:vector:stddev nan
scalar Mrp4.node3.eth[1].queue incomingPacketLengths:vector:min inf
scalar Mrp4.node3.eth[1].queue incomingPacketLengths:vector:max -inf
scalar Mrp4.node3.eth[1].queue incomingPacketLengths:vector:starttime nan
scalar Mrp4.node3.eth[1].queue incomingPacketLengths:vector:endtime nan
scalar Mrp4.node3.eth[1].queue incomingDataRate:vector:count 30
scalar Mrp4.node3.eth[1].queue incomingDataRate:vector:sum 0
scalar Mrp4.node3.eth[1].queue incomingDataRate:vector:sumweights 30
scalar Mrp4.node3.eth[1].queue incomingDataRate:vector:mean 0
scalar Mrp4.node3.eth[1].queue incomingDataRate:vector:stddev 0
scalar Mrp4.node3.eth[1].queue incomingDataRate:vector:min 0
scalar Mrp4.node3.eth[1].queue incomingDataRate:vector:max 0
scalar Mrp4.node3.eth[1].queue incomingDataRate:vector:starttime 0.1
scalar Mrp4.node3.eth[1].queue incomingDataRate:vector:endtime 3
scalar Mrp4.node3.eth[1].queue outgoingPacketLengths:vector:count 0
scalar Mrp4.node3.eth[1].queue outgoingPacketLengths:vector:sum 0
scalar Mrp4.node3.eth[1].queue outgoingPacketLengths:vector:sumweights 0
scalar Mrp4.node3.eth[1].queue outgoingPacketLengths:vector:mean -nan
scalar Mrp4.node3.eth[1].queue outgoingPacketLengths:vector:stddev nan
scalar Mrp4.node3.eth[1].queue outgoingPacketLengths:vector:min inf
scalar Mrp4.node3.eth[1].queue outgoingPacketLengths:vector:max -inf
scalar Mrp4.node3.eth[1].queue outgoingPacketLengths:vector:starttime nan
scalar Mrp4.node3.eth[1].queue outgoingPacketLengths:vector:endtime nan
scalar Mrp4.node3.eth[1].queue outgoingDataRate:vector:count 30
scalar Mrp4.node3.eth[1].queue outgoingDataRate:vector:sum 0
scalar Mrp4.node3.eth[1].queue outgoingDataRate:vector:sumweights 30
scalar Mrp4.node3.eth[1].queue outgoingDataRate:vector:mean 0
scalar Mrp4.node3.eth[1].queue outgoingDataRate:vector:stddev 0
scalar Mrp4.node3.eth[1].queue outgoingDataRate:vector:min 0
scalar Mrp4.node3.eth[1].queue outgoingDataRate:vector:max 0
scalar Mrp4.node3.eth[1].queue outgoingDataRate:vector:starttime 0.1
scalar Mrp4.node3.eth[1].queue outgoingDataRate:vector:endtime 3
scalar Mrp4.node3.eth[1].queue droppedPacketLengthsQueueOverflow:vector:count 0
scalar Mrp4.node3.eth[1].queue droppedPacketLengthsQueueOverflow:vector:sum 0
scalar Mrp4.node3.eth[1].queue droppedPacketLengthsQueueOverflow:vector:sumweights 0
scalar Mrp4.node3.eth[1].queue droppedPacketLengthsQueueOverflow:vector:mean -nan
scalar Mrp4.node3.eth[1].queue droppedPacketLengthsQueueOverflow:vector:stddev nan
scalar Mrp4.node3.eth[1].queue droppedPacketLengthsQueueOverflow:vector:min inf
scalar Mrp4.node3.eth[1].queue droppedPacketLengthsQueueOverflow:vector:max -inf
scalar Mrp4.node3.eth[1].queue droppedPacketLengthsQueueOverflow:vector:starttime nan
scalar Mrp4.node3.eth[1].queue droppedPacketLengthsQueueOverflow:vector:endtime nan
scalar Mrp4.node3.eth[1].queue flowQueueingTime:vector:count 0
scalar Mrp4.node3.eth[1].queue flowQueueingTime:vector:sum 0
scalar Mrp4.node3.eth[1].queue flowQueueingTime:vector:sumweights 0
scalar Mrp4.node3.eth[1].queue flowQueueingTime:vector:mean -nan
scalar Mrp4.node3.eth[1].queue flowQueueingTime:vector:stddev nan
scalar Mrp4.node3.eth[1].queue flowQueueingTime:vector:min inf
scalar Mrp4.node3.eth[1].queue flowQueueingTime:vector:max -inf
scalar Mrp4.node3.eth[1].queue flowQueueingTime:vector:starttime nan
scalar Mrp4.node3.eth[1].queue flowQueueingTime:vector:endtime nan
scalar Mrp4.node3.eth[1].queue flowIncomingDataRate:vector:count 30
scalar Mrp4.node3.eth[1].queue flowIncomingDataRate:vector:sum 0
scalar Mrp4.node3.eth[1].queue flowIncomingDataRate:vector:sumweights 30
scalar Mrp4.node3.eth[1].queue flowIncomingDataRate:vector:mean 0
scalar Mrp4.node3.eth[1].queue flowIncomingDataRate:vector:stddev 0
scalar Mrp4.node3.eth[1].queue flowIncomingDataRate:vector:min 0
scalar Mrp4.node3.eth[1].queue flowIncomingDataRate:vector:max 0
scalar Mrp4.node3.eth[1].queue flowIncomingDataRate:vector:starttime 0.1
scalar Mrp4.node3.eth[1].queue flowIncomingDataRate:vector:endtime 3
scalar Mrp4.node3.eth[1].queue flowOutgoingDataRate:vector:count 30
scalar Mrp4.node3.eth[1].queue flowOutgoingDataRate:vector:sum 0
scalar Mrp4.node3.eth[1].queue flowOutgoingDataRate:vector:sumweights 30
scalar Mrp4.node3.eth[1].queue flowOutgoingDataRate:vector:mean 0
scalar Mrp4.node3.eth[1].queue flowOutgoingDataRate:vector:stddev 0
scalar Mrp4.node3.eth[1].queue flowOutgoingDataRate:vector:min 0
scalar Mrp4.node3.eth[1].queue flowOutgoingDataRate:vector:max 0
scalar Mrp4.node3.eth[1].queue flowOutgoingDataRate:vector:starttime 0.1
scalar Mrp4.node3.eth[1].queue flowOutgoingDataRate:vector:endtime 3
scalar Mrp4.node3.eth[1].mac transmitting:vector:count 2
scalar Mrp4.node3.eth[1].mac transmitting:vector:sum 0
scalar Mrp4.node3.eth[1].mac transmitting:vector:sumweights 2
scalar Mrp4.node3.eth[1].mac transmitting:vector:mean 0
scalar Mrp4.node3.eth[1].mac transmitting:vector:stddev 0
scalar Mrp4.node3.eth[1].mac transmitting:vector:min 0
scalar Mrp4.node3.eth[1].mac transmitting:vector:max 0
scalar Mrp4.node3.eth[1].mac transmitting:vector:starttime 0
scalar Mrp4.node3.eth[1].mac transmitting:vector:endtime 0
scalar Mrp4.node3.eth[1].mac throughput:vector:count 30
scalar Mrp4.node3.eth[1].mac throughput:vector:sum 0
scalar Mrp4.node3.eth[1].mac throughput:vector:sumweights 30
scalar Mrp4.node3.eth[1].mac throughput:vector:mean 0
scalar Mrp4.node3.eth[1].mac throughput:vector:stddev 0
scalar Mrp4.node3.eth[1].mac throughput:vector:min 0
scalar Mrp4.node3.eth[1].mac throughput:vector:max 0
scalar Mrp4.node3.eth[1].mac throughput:vector:starttime 0.1
scalar Mrp4.node3.eth[1].mac throughput:vector:endtime 3
scalar Mrp4.node3.eth[1].mac utilization:vector:count 30
scalar Mrp4.node3.eth[1].mac utilization:vector:sum 0
scalar Mrp4.node3.eth[1].mac utilization:vector:sumweights 30
scalar Mrp4.node3.eth[1].mac utilization:vector:mean 0
scalar Mrp4.node3.eth[1].mac utilization:vector:stddev 0
scalar Mrp4.node3.eth[1].mac utilization:vector:min 0
scalar Mrp4.node3.eth[1].mac utilization:vector:max 0
scalar Mrp4.node3.eth[1].mac utilization:vector:starttime 0.1
scalar Mrp4.node3.eth[1].mac utilization:vector:endtime 3
scalar Mrp4.node3.eth[1].mac txPk:vector(packetBytes):count 0
scalar Mrp4.node3.eth[1].mac txPk:vector(packetBytes):sum 0
scalar Mrp4.node3.eth[1].mac txPk:vector(packetBytes):sumweights 0
scalar Mrp4.node3.eth[1].mac txPk:vector(packetBytes):mean -nan
scalar Mrp4.node3.eth[1].mac txPk:vector(packetBytes):stddev nan
scalar Mrp4.node3.eth[1].mac txPk:vector(packetBytes):min inf
scalar Mrp4.node3.eth[1].mac txPk:vector(packetBytes):max -inf
scalar Mrp4.node3.eth[1].mac txPk:vector(packetBytes):starttime nan
scalar Mrp4.node3.eth[1].mac txPk:vector(packetBytes):endtime nan
scalar Mrp4.node3.eth[1].mac rxPkOk:vector(packetBytes):count 0
scalar Mrp4.node3.eth[1].mac rxPkOk:vector(packetBytes):sum 0
scalar Mrp4.node3.eth[1].mac rxPkOk:vector(packetBytes):sumweights 0
scalar Mrp4.node3.eth[1].mac rxPkOk:vector(packetBytes):mean -nan
scalar Mrp4.node3.eth[1].mac rxPkOk:vector(packetBytes):stddev nan
scalar Mrp4.node3.eth[1].mac rxPkOk:vector(packetBytes):min inf
scalar Mrp4.node3.eth[1].mac rxPkOk:vector(packetBytes):max -inf
scalar Mrp4.node3.eth[1].mac rxPkOk:vector(packetBytes):starttime nan
scalar Mrp4.node3.eth[1].mac rxPkOk:vector(packetBytes):endtime nan
scalar Mrp4.node3.eth[1].mac passedUpPk:vector(packetBytes):count 0
scalar Mrp4.node3.eth[1].mac passedUpPk:vector(packetBytes):sum 0
scalar Mrp4.node3.eth[1].mac passedUpPk:vector(packetBytes):sumweights 0
scalar Mrp4.node3.eth[1].mac passedUpPk:vector(packetBytes):mean -nan
scalar Mrp4.node3.eth[1].mac passedUpPk:vector(packetBytes):stddev nan
scalar Mrp4.node3.eth[1].mac passedUpPk:vector(packetBytes):min inf
scalar Mrp4.node3.eth[1].mac passedUpPk:vector(packetBytes):max -inf
scalar Mrp4.node3.eth[1].mac passedUpPk:vector(packetBytes):starttime nan
scalar Mrp4.node3.eth[1].mac passedUpPk:vector(packetBytes):endtime nan
scalar Mrp4.node3.eth[1].mac txPausePkUnits:vector:count 0
scalar Mrp4.node3.eth[1].mac txPausePkUnits:vector:sum 0
scalar Mrp4.node3.eth[1].mac txPausePkUnits:vector:sumweights 0
scalar Mrp4.node3.eth[1].mac txPausePkUnits:vector:mean -nan
scalar Mrp4.node3.eth[1].mac txPausePkUnits:vector:stddev nan
scalar Mrp4.node3.eth[1].mac txPausePkUnits:vector:min inf
scalar Mrp4.node3.eth[1].mac txPausePkUnits:vector:max -inf
scalar Mrp4.node3.eth[1].mac txPausePkUnits:vector:starttime nan
scalar Mrp4.node3.eth[1].mac txPausePkUnits:vector:endtime nan
scalar Mrp4.node3.eth[1].mac rxPausePkUnits:vector:count 0
scalar Mrp4.node3.eth[1].mac rxPausePkUnits:vector:sum 0
scalar Mrp4.node3.eth[1].mac rxPausePkUnits:vector:sumweights 0
scalar Mrp4.node3.eth[1].mac rxPausePkUnits:vector:mean -nan
scalar Mrp4.node3.eth[1].mac rxPausePkUnits:vector:stddev nan
scalar Mrp4.node3.eth[1].mac rxPausePkUnits:vector:min inf
scalar Mrp4.node3.eth[1].mac rxPausePkUnits:vector:max -inf
scalar Mrp4.node3.eth[1].mac rxPausePkUnits:vector:starttime nan
scalar Mrp4.node3.eth[1].mac rxPausePkUnits:vector:endtime nan
scalar Mrp4.node3.eth[1].mac packetReceivedFromUpper:vector(packetBytes):count 0
scalar Mrp4.node3.eth[1].mac packetReceivedFromUpper:vector(packetBytes):sum 0
scalar Mrp4.node3.eth[1].mac packetReceivedFromUpper:vector(packetBytes):sumweights 0
scalar Mrp4.node3.eth[1].mac packetReceivedFromUpper:vector(packetBytes):mean -nan
scalar Mrp4.node3.eth[1].mac packetReceivedFromUpper:vector(packetBytes):stddev nan
scalar Mrp4.node3.eth[1].mac packetReceivedFromUpper:vector(packetBytes):min inf
scalar Mrp4.node3.eth[1].mac packetReceivedFromUpper:vector(packetBytes):max -inf
scalar Mrp4.node3.eth[1].mac packetReceivedFromUpper:vector(packetBytes):starttime nan
scalar Mrp4.node3.eth[1].mac packetReceivedFromUpper:vector(packetBytes):endtime nan
scalar Mrp4.node3.eth[1].mac packetDropIncorrectlyReceived:vector(packetBytes):count 0
scalar Mrp4.node3.eth[1].mac packetDropIncorrectlyReceived:vector(packetBytes):sum 0
scalar Mrp4.node3.eth[1].mac packetDropIncorrectlyReceived:vector(packetBytes):sumweights 0
scalar Mrp4.node3.eth[1].mac packetDropIncorrectlyReceived:vector(packetBytes):mean -nan
scalar Mrp4.node3.eth[1].mac packetDropIncorrectlyReceived:vector(packetBytes):stddev nan
scalar Mrp4.node3.eth[1].mac packetDropIncorrectlyReceived:vector(packetBytes):min inf
scalar Mrp4.node3.eth[1].mac packetDropIncorrectlyReceived:vector(packetBytes):max -inf
scalar Mrp4.node3.eth[1].mac packetDropIncorrectlyReceived:vector(packetBytes):starttime nan
scalar Mrp4.node3.eth[1].mac packetDropIncorrectlyReceived:vector(packetBytes):endtime nan
scalar Mrp4.node3.eth[1].mac packetDropInterfaceDown:vector(packetBytes):count 0
scalar Mrp4.node3.eth[1].mac packetDropInterfaceDown:vector(packetBytes):sum 0
scalar Mrp4.node3.eth[1].mac packetDropInterfaceDown:vector(packetBytes):sumweights 0
scalar Mrp4.node3.eth[1].mac packetDropInterfaceDown:vector(packetBytes):mean -nan
scalar Mrp4.node3.eth[1].mac packetDropInterfaceDown:vector(packetBytes):stddev nan
scalar Mrp4.node3.eth[1].mac packetDropInterfaceDown:vector(packetBytes):min inf
scalar Mrp4.node3.eth[1].mac packetDropInterfaceDown:vector(packetBytes):max -inf
scalar Mrp4.node3.eth[1].mac packetDropInterfaceDown:vector(packetBytes):starttime nan
scalar Mrp4.node3.eth[1].mac packetDropInterfaceDown:vector(packetBytes):endtime nan
scalar Mrp4.node3.eth[1].mac packetDropNotAddressedToUs:vector(packetBytes):count 0
scalar Mrp4.node3.eth[1].mac packetDropNotAddressedToUs:vector(packetBytes):sum 0
scalar Mrp4.node3.eth[1].mac packetDropNotAddressedToUs:vector(packetBytes):sumweights 0
scalar Mrp4.node3.eth[1].mac packetDropNotAddressedToUs:vector(packetBytes):mean -nan
scalar Mrp4.node3.eth[1].mac packetDropNotAddressedToUs:vector(packetBytes):stddev nan
scalar Mrp4.node3.eth[1].mac packetDropNotAddressedToUs:vector(packetBytes):min inf
scalar Mrp4.node3.eth[1].mac packetDropNotAddressedToUs:vector(packetBytes):max -inf
scalar Mrp4.node3.eth[1].mac packetDropNotAddressedToUs:vector(packetBytes):starttime nan
scalar Mrp4.node3.eth[1].mac packetDropNotAddressedToUs:vector(packetBytes):endtime nan
scalar Mrp4.node3.eth[1] packetDropInterfaceDown:vector(packetBytes):count 0
scalar Mrp4.node3.eth[1] packetDropInterfaceDown:vector(packetBytes):sum 0
scalar Mrp4.node3.eth[1] packetDropInterfaceDown:vector(packetBytes):sumweights 0
scalar Mrp4.node3.eth[1] packetDropInterfaceDown:vector(packetBytes):mean -nan
scalar Mrp4.node3.eth[1] packetDropInterfaceDown:vector(packetBytes):stddev nan
scalar Mrp4.node3.eth[1] packetDropInterfaceDown:vector(packetBytes):min inf
scalar Mrp4.node3.eth[1] packetDropInterfaceDown:vector(packetBytes):max -inf
scalar Mrp4.node3.eth[1] packetDropInterfaceDown:vector(packetBytes):starttime nan
scalar Mrp4.node3.eth[1] packetDropInterfaceDown:vector(packetBytes):endtime nan
scalar Mrp4.node3.eth[1] packetDropNoCarrier:vector(packetBytes):count 0
scalar Mrp4.node3.eth[1] packetDropNoCarrier:vector(packetBytes):sum 0
scalar Mrp4.node3.eth[1] packetDropNoCarrier:vector(packetBytes):sumweights 0
scalar Mrp4.node3.eth[1] packetDropNoCarrier:vector(packetBytes):mean -nan
scalar Mrp4.node3.eth[1] packetDropNoCarrier:vector(packetBytes):stddev nan
scalar Mrp4.node3.eth[1] packetDropNoCarrier:vector(packetBytes):min inf
scalar Mrp4.node3.eth[1] packetDropNoCarrier:vector(packetBytes):max -inf
scalar Mrp4.node3.eth[1] packetDropNoCarrier:vector(packetBytes):starttime nan
scalar Mrp4.node3.eth[1] packetDropNoCarrier:vector(packetBytes):endtime nan

