version 3
run Step8B-0-20250108-11:39:01-15155
attr configname Step8B
attr datetime 20250108-11:39:01
attr datetimef 20250108-113901
attr experiment Step8B
attr inifile omnetpp.ini
attr iterationvars ""
attr iterationvarsd ""
attr iterationvarsf ""
attr measurement ""
attr network ConfiguratorC
attr processid 15155
attr repetition 0
attr replication #0
attr resultdir results
attr runnumber 0
attr seedset 0
config **.param-recording false
config image-path /home/levy/workspace/inet/images
config output-scalar-file results/omnetpp.ini-Step8B-#0.sca
config output-vector-file results/omnetpp.ini-Step8B-#0.vec
config sim-time-limit 100s
config sim-time-limit 100s
config extends Step8A
config description "Mixed wired/wireless network configuration - using SSID"
config *.configurator.config "xmldoc(\"step8b.xml\")"
config *.area1AP.wlan[*].mgmt.ssid "\"area1\""
config *.area3AP.wlan[*].mgmt.ssid "\"area3\""
config *.area1lan3*.wlan[*].agent.defaultSsid "\"area1\""
config *.area3lan3*.wlan[*].agent.defaultSsid "\"area3\""
config sim-time-limit 100s
config network ConfiguratorC
config description "Mixed wired/wireless network configuration - using <wireless> attribute"
config *.configurator.config "xmldoc(\"step8a.xml\")"
config *.area1lan3host2.numApps 1
config *.area1lan3host2.app[0].typename PingApp
config *.area1lan3host2.app[*].destAddr "\"area3lan3host2\""
config *.*.wlan[*].bitrate 54Mbps
config *.visualizer.routingTableVisualizer.displayRoutingTables true
config *.visualizer.routingTableVisualizer.destinationFilter "\"area3lan3*\""
config *.visualizer.routingTableVisualizer.lineShift 0
config description (abstract)
config *.configurator.dumpAddresses true
config *.configurator.dumpTopology true
config *.configurator.dumpLinks true
config *.configurator.dumpRoutes true
config *.*.ipv4.arp.typename GlobalArp
config *.*.ipv4.routingTable.netmaskRoutes "\"\""
config *.visualizer.interfaceTableVisualizer.displayInterfaceTables true
config *.visualizer.interfaceTableVisualizer.nodeFilter "\"not (*switch* or *Switch* or *AP*)\""

scalar ConfiguratorC.area1lan1host0.ethernet pauseSent:count 0
scalar ConfiguratorC.area1lan1host0.ethernet pauseSent:sum 0
scalar ConfiguratorC.area1lan1host0.ethernet decapPk:count 0
scalar ConfiguratorC.area1lan1host0.ethernet decapPk:sum(packetBytes) 0
scalar ConfiguratorC.area1lan1host0.ethernet encapPk:count 0
scalar ConfiguratorC.area1lan1host0.ethernet encapPk:sum(packetBytes) 0
scalar ConfiguratorC.area1lan1host0.lo[0].lo rcvdPkFromHl:count 0
scalar ConfiguratorC.area1lan1host0.lo[0].lo rcvdPkFromHl:sum(packetBytes) 0
scalar ConfiguratorC.area1lan1host0.lo[0].lo passedUpPk:count 0
scalar ConfiguratorC.area1lan1host0.lo[0].lo passedUpPk:sum(packetBytes) 0
scalar ConfiguratorC.area1lan1host0.lo[0] packetDropInterfaceDown:count 0
scalar ConfiguratorC.area1lan1host0.lo[0] packetDropInterfaceDown:sum(packetBytes) 0
scalar ConfiguratorC.area1lan1host0.lo[0] packetDropNoCarrier:count 0
scalar ConfiguratorC.area1lan1host0.lo[0] packetDropNoCarrier:sum(packetBytes) 0
scalar ConfiguratorC.area1lan1host0.eth[0].queue queueLength:last 0
scalar ConfiguratorC.area1lan1host0.eth[0].queue queueLength:max 0
scalar ConfiguratorC.area1lan1host0.eth[0].queue queueLength:timeavg 0
scalar ConfiguratorC.area1lan1host0.eth[0].queue queueBitLength:last 0
scalar ConfiguratorC.area1lan1host0.eth[0].queue queueBitLength:max 0
scalar ConfiguratorC.area1lan1host0.eth[0].queue queueBitLength:timeavg 0
scalar ConfiguratorC.area1lan1host0.eth[0].queue outgoingPackets:count 0
scalar ConfiguratorC.area1lan1host0.eth[0].queue outgoingPacketLengths:sum 0
scalar ConfiguratorC.area1lan1host0.eth[0].queue incomingPackets:count 0
scalar ConfiguratorC.area1lan1host0.eth[0].queue incomingPacketLengths:sum 0
scalar ConfiguratorC.area1lan1host0.eth[0].queue droppedPacketsQueueOverflow:count 0
scalar ConfiguratorC.area1lan1host0.eth[0].queue droppedPacketLengthsQueueOverflow:sum 0
scalar ConfiguratorC.area1lan1host0.eth[0].mac "simulated time" 100
scalar ConfiguratorC.area1lan1host0.eth[0].mac full-duplex 1
scalar ConfiguratorC.area1lan1host0.eth[0].mac "frames/sec sent" 0
scalar ConfiguratorC.area1lan1host0.eth[0].mac "frames/sec rcvd" 0
scalar ConfiguratorC.area1lan1host0.eth[0].mac "bits/sec sent" 0
scalar ConfiguratorC.area1lan1host0.eth[0].mac "bits/sec rcvd" 0
scalar ConfiguratorC.area1lan1host0.eth[0].mac "rx channel idle (%)" 100
scalar ConfiguratorC.area1lan1host0.eth[0].mac "rx channel utilization (%)" 0
scalar ConfiguratorC.area1lan1host0.eth[0].mac rxPausePkUnits:count 0
scalar ConfiguratorC.area1lan1host0.eth[0].mac rxPausePkUnits:sum 0
scalar ConfiguratorC.area1lan1host0.eth[0].mac txPausePkUnits:count 0
scalar ConfiguratorC.area1lan1host0.eth[0].mac txPausePkUnits:sum 0
scalar ConfiguratorC.area1lan1host0.eth[0].mac rxPkOk:count 0
scalar ConfiguratorC.area1lan1host0.eth[0].mac rxPkOk:sum(packetBytes) 0
scalar ConfiguratorC.area1lan1host0.eth[0].mac txPk:count 0
scalar ConfiguratorC.area1lan1host0.eth[0].mac txPk:sum(packetBytes) 0
scalar ConfiguratorC.area1lan1host0.eth[0].mac packetReceivedFromUpper:count 0
scalar ConfiguratorC.area1lan1host0.eth[0].mac packetReceivedFromUpper:sum(packetBytes) 0
scalar ConfiguratorC.area1lan1host0.eth[0].mac passedUpPk:count 0
scalar ConfiguratorC.area1lan1host0.eth[0].mac passedUpPk:sum(packetBytes) 0
scalar ConfiguratorC.area1lan1host0.eth[0].mac packetDropIncorrectlyReceived:count 0
scalar ConfiguratorC.area1lan1host0.eth[0].mac packetDropIncorrectlyReceived:sum(packetBytes) 0
scalar ConfiguratorC.area1lan1host0.eth[0].mac packetDropInterfaceDown:count 0
scalar ConfiguratorC.area1lan1host0.eth[0].mac packetDropInterfaceDown:sum(packetBytes) 0
scalar ConfiguratorC.area1lan1host0.eth[0].mac packetDropNotAddressedToUs:count 0
scalar ConfiguratorC.area1lan1host0.eth[0].mac packetDropNotAddressedToUs:sum(packetBytes) 0
scalar ConfiguratorC.area1lan1host0.eth[0] packetDropInterfaceDown:count 0
scalar ConfiguratorC.area1lan1host0.eth[0] packetDropInterfaceDown:sum(packetBytes) 0
scalar ConfiguratorC.area1lan1host0.eth[0] packetDropNoCarrier:count 0
scalar ConfiguratorC.area1lan1host0.eth[0] packetDropNoCarrier:sum(packetBytes) 0
scalar ConfiguratorC.area1lan1host0.ipv4.ip packetDropAddressResolutionFailed:count 0
scalar ConfiguratorC.area1lan1host0.ipv4.ip packetDropAddressResolutionFailed:sum(packetBytes) 0
scalar ConfiguratorC.area1lan1host0.ipv4.ip packetDropHopLimitReached:count 0
scalar ConfiguratorC.area1lan1host0.ipv4.ip packetDropHopLimitReached:sum(packetBytes) 0
scalar ConfiguratorC.area1lan1host0.ipv4.ip packetDropForwardingDisabled:count 0
scalar ConfiguratorC.area1lan1host0.ipv4.ip packetDropForwardingDisabled:sum(packetBytes) 0
scalar ConfiguratorC.area1lan1host0.ipv4.ip packetDropLifetimeExpired:count 0
scalar ConfiguratorC.area1lan1host0.ipv4.ip packetDropLifetimeExpired:sum(packetBytes) 0
scalar ConfiguratorC.area1lan1host0.ipv4.ip packetDropNoInterfaceFound:count 0
scalar ConfiguratorC.area1lan1host0.ipv4.ip packetDropNoInterfaceFound:sum(packetBytes) 0
scalar ConfiguratorC.area1lan1host0.ipv4.ip packetDropNoRouteFound:count 0
scalar ConfiguratorC.area1lan1host0.ipv4.ip packetDropNoRouteFound:sum(packetBytes) 0
scalar ConfiguratorC.area1lan1host0.ipv4.ip packetDropUndefined:count 0
scalar ConfiguratorC.area1lan1host0.ipv4.ip packetDropUndefined:sum(packetBytes) 0
scalar ConfiguratorC.area1lan1host0.udp packetReceived:count 0
scalar ConfiguratorC.area1lan1host0.udp packetReceived:sum(packetBytes) 0
scalar ConfiguratorC.area1lan1host0.udp packetSent:count 0
scalar ConfiguratorC.area1lan1host0.udp packetSent:sum(packetBytes) 0
scalar ConfiguratorC.area1lan1host0.udp passedUpPk:count 0
scalar ConfiguratorC.area1lan1host0.udp droppedPkWrongPort:count 0
scalar ConfiguratorC.area1lan1host0.udp droppedPkBadChecksum:count 0
scalar ConfiguratorC.area1lan1host1.ethernet pauseSent:count 0
scalar ConfiguratorC.area1lan1host1.ethernet pauseSent:sum 0
scalar ConfiguratorC.area1lan1host1.ethernet decapPk:count 0
scalar ConfiguratorC.area1lan1host1.ethernet decapPk:sum(packetBytes) 0
scalar ConfiguratorC.area1lan1host1.ethernet encapPk:count 0
scalar ConfiguratorC.area1lan1host1.ethernet encapPk:sum(packetBytes) 0
scalar ConfiguratorC.area1lan1host1.lo[0].lo rcvdPkFromHl:count 0
scalar ConfiguratorC.area1lan1host1.lo[0].lo rcvdPkFromHl:sum(packetBytes) 0
scalar ConfiguratorC.area1lan1host1.lo[0].lo passedUpPk:count 0
scalar ConfiguratorC.area1lan1host1.lo[0].lo passedUpPk:sum(packetBytes) 0
scalar ConfiguratorC.area1lan1host1.lo[0] packetDropInterfaceDown:count 0
scalar ConfiguratorC.area1lan1host1.lo[0] packetDropInterfaceDown:sum(packetBytes) 0
scalar ConfiguratorC.area1lan1host1.lo[0] packetDropNoCarrier:count 0
scalar ConfiguratorC.area1lan1host1.lo[0] packetDropNoCarrier:sum(packetBytes) 0
scalar ConfiguratorC.area1lan1host1.eth[0].queue queueLength:last 0
scalar ConfiguratorC.area1lan1host1.eth[0].queue queueLength:max 0
scalar ConfiguratorC.area1lan1host1.eth[0].queue queueLength:timeavg 0
scalar ConfiguratorC.area1lan1host1.eth[0].queue queueBitLength:last 0
scalar ConfiguratorC.area1lan1host1.eth[0].queue queueBitLength:max 0
scalar ConfiguratorC.area1lan1host1.eth[0].queue queueBitLength:timeavg 0
scalar ConfiguratorC.area1lan1host1.eth[0].queue outgoingPackets:count 0
scalar ConfiguratorC.area1lan1host1.eth[0].queue outgoingPacketLengths:sum 0
scalar ConfiguratorC.area1lan1host1.eth[0].queue incomingPackets:count 0
scalar ConfiguratorC.area1lan1host1.eth[0].queue incomingPacketLengths:sum 0
scalar ConfiguratorC.area1lan1host1.eth[0].queue droppedPacketsQueueOverflow:count 0
scalar ConfiguratorC.area1lan1host1.eth[0].queue droppedPacketLengthsQueueOverflow:sum 0
scalar ConfiguratorC.area1lan1host1.eth[0].mac "simulated time" 100
scalar ConfiguratorC.area1lan1host1.eth[0].mac full-duplex 1
scalar ConfiguratorC.area1lan1host1.eth[0].mac "frames/sec sent" 0
scalar ConfiguratorC.area1lan1host1.eth[0].mac "frames/sec rcvd" 0
scalar ConfiguratorC.area1lan1host1.eth[0].mac "bits/sec sent" 0
scalar ConfiguratorC.area1lan1host1.eth[0].mac "bits/sec rcvd" 0
scalar ConfiguratorC.area1lan1host1.eth[0].mac "rx channel idle (%)" 100
scalar ConfiguratorC.area1lan1host1.eth[0].mac "rx channel utilization (%)" 0
scalar ConfiguratorC.area1lan1host1.eth[0].mac rxPausePkUnits:count 0
scalar ConfiguratorC.area1lan1host1.eth[0].mac rxPausePkUnits:sum 0
scalar ConfiguratorC.area1lan1host1.eth[0].mac txPausePkUnits:count 0
scalar ConfiguratorC.area1lan1host1.eth[0].mac txPausePkUnits:sum 0
scalar ConfiguratorC.area1lan1host1.eth[0].mac rxPkOk:count 0
scalar ConfiguratorC.area1lan1host1.eth[0].mac rxPkOk:sum(packetBytes) 0
scalar ConfiguratorC.area1lan1host1.eth[0].mac txPk:count 0
scalar ConfiguratorC.area1lan1host1.eth[0].mac txPk:sum(packetBytes) 0
scalar ConfiguratorC.area1lan1host1.eth[0].mac packetReceivedFromUpper:count 0
scalar ConfiguratorC.area1lan1host1.eth[0].mac packetReceivedFromUpper:sum(packetBytes) 0
scalar ConfiguratorC.area1lan1host1.eth[0].mac passedUpPk:count 0
scalar ConfiguratorC.area1lan1host1.eth[0].mac passedUpPk:sum(packetBytes) 0
scalar ConfiguratorC.area1lan1host1.eth[0].mac packetDropIncorrectlyReceived:count 0
scalar ConfiguratorC.area1lan1host1.eth[0].mac packetDropIncorrectlyReceived:sum(packetBytes) 0
scalar ConfiguratorC.area1lan1host1.eth[0].mac packetDropInterfaceDown:count 0
scalar ConfiguratorC.area1lan1host1.eth[0].mac packetDropInterfaceDown:sum(packetBytes) 0
scalar ConfiguratorC.area1lan1host1.eth[0].mac packetDropNotAddressedToUs:count 0
scalar ConfiguratorC.area1lan1host1.eth[0].mac packetDropNotAddressedToUs:sum(packetBytes) 0
scalar ConfiguratorC.area1lan1host1.eth[0] packetDropInterfaceDown:count 0
scalar ConfiguratorC.area1lan1host1.eth[0] packetDropInterfaceDown:sum(packetBytes) 0
scalar ConfiguratorC.area1lan1host1.eth[0] packetDropNoCarrier:count 0
scalar ConfiguratorC.area1lan1host1.eth[0] packetDropNoCarrier:sum(packetBytes) 0
scalar ConfiguratorC.area1lan1host1.ipv4.ip packetDropAddressResolutionFailed:count 0
scalar ConfiguratorC.area1lan1host1.ipv4.ip packetDropAddressResolutionFailed:sum(packetBytes) 0
scalar ConfiguratorC.area1lan1host1.ipv4.ip packetDropHopLimitReached:count 0
scalar ConfiguratorC.area1lan1host1.ipv4.ip packetDropHopLimitReached:sum(packetBytes) 0
scalar ConfiguratorC.area1lan1host1.ipv4.ip packetDropForwardingDisabled:count 0
scalar ConfiguratorC.area1lan1host1.ipv4.ip packetDropForwardingDisabled:sum(packetBytes) 0
scalar ConfiguratorC.area1lan1host1.ipv4.ip packetDropLifetimeExpired:count 0
scalar ConfiguratorC.area1lan1host1.ipv4.ip packetDropLifetimeExpired:sum(packetBytes) 0
scalar ConfiguratorC.area1lan1host1.ipv4.ip packetDropNoInterfaceFound:count 0
scalar ConfiguratorC.area1lan1host1.ipv4.ip packetDropNoInterfaceFound:sum(packetBytes) 0
scalar ConfiguratorC.area1lan1host1.ipv4.ip packetDropNoRouteFound:count 0
scalar ConfiguratorC.area1lan1host1.ipv4.ip packetDropNoRouteFound:sum(packetBytes) 0
scalar ConfiguratorC.area1lan1host1.ipv4.ip packetDropUndefined:count 0
scalar ConfiguratorC.area1lan1host1.ipv4.ip packetDropUndefined:sum(packetBytes) 0
scalar ConfiguratorC.area1lan1host1.udp packetReceived:count 0
scalar ConfiguratorC.area1lan1host1.udp packetReceived:sum(packetBytes) 0
scalar ConfiguratorC.area1lan1host1.udp packetSent:count 0
scalar ConfiguratorC.area1lan1host1.udp packetSent:sum(packetBytes) 0
scalar ConfiguratorC.area1lan1host1.udp passedUpPk:count 0
scalar ConfiguratorC.area1lan1host1.udp droppedPkWrongPort:count 0
scalar ConfiguratorC.area1lan1host1.udp droppedPkBadChecksum:count 0
scalar ConfiguratorC.area1lan1host2.ethernet pauseSent:count 0
scalar ConfiguratorC.area1lan1host2.ethernet pauseSent:sum 0
scalar ConfiguratorC.area1lan1host2.ethernet decapPk:count 0
scalar ConfiguratorC.area1lan1host2.ethernet decapPk:sum(packetBytes) 0
scalar ConfiguratorC.area1lan1host2.ethernet encapPk:count 0
scalar ConfiguratorC.area1lan1host2.ethernet encapPk:sum(packetBytes) 0
scalar ConfiguratorC.area1lan1host2.lo[0].lo rcvdPkFromHl:count 0
scalar ConfiguratorC.area1lan1host2.lo[0].lo rcvdPkFromHl:sum(packetBytes) 0
scalar ConfiguratorC.area1lan1host2.lo[0].lo passedUpPk:count 0
scalar ConfiguratorC.area1lan1host2.lo[0].lo passedUpPk:sum(packetBytes) 0
scalar ConfiguratorC.area1lan1host2.lo[0] packetDropInterfaceDown:count 0
scalar ConfiguratorC.area1lan1host2.lo[0] packetDropInterfaceDown:sum(packetBytes) 0
scalar ConfiguratorC.area1lan1host2.lo[0] packetDropNoCarrier:count 0
scalar ConfiguratorC.area1lan1host2.lo[0] packetDropNoCarrier:sum(packetBytes) 0
scalar ConfiguratorC.area1lan1host2.eth[0].queue queueLength:last 0
scalar ConfiguratorC.area1lan1host2.eth[0].queue queueLength:max 0
scalar ConfiguratorC.area1lan1host2.eth[0].queue queueLength:timeavg 0
scalar ConfiguratorC.area1lan1host2.eth[0].queue queueBitLength:last 0
scalar ConfiguratorC.area1lan1host2.eth[0].queue queueBitLength:max 0
scalar ConfiguratorC.area1lan1host2.eth[0].queue queueBitLength:timeavg 0
scalar ConfiguratorC.area1lan1host2.eth[0].queue outgoingPackets:count 0
scalar ConfiguratorC.area1lan1host2.eth[0].queue outgoingPacketLengths:sum 0
scalar ConfiguratorC.area1lan1host2.eth[0].queue incomingPackets:count 0
scalar ConfiguratorC.area1lan1host2.eth[0].queue incomingPacketLengths:sum 0
scalar ConfiguratorC.area1lan1host2.eth[0].queue droppedPacketsQueueOverflow:count 0
scalar ConfiguratorC.area1lan1host2.eth[0].queue droppedPacketLengthsQueueOverflow:sum 0
scalar ConfiguratorC.area1lan1host2.eth[0].mac "simulated time" 100
scalar ConfiguratorC.area1lan1host2.eth[0].mac full-duplex 1
scalar ConfiguratorC.area1lan1host2.eth[0].mac "frames/sec sent" 0
scalar ConfiguratorC.area1lan1host2.eth[0].mac "frames/sec rcvd" 0
scalar ConfiguratorC.area1lan1host2.eth[0].mac "bits/sec sent" 0
scalar ConfiguratorC.area1lan1host2.eth[0].mac "bits/sec rcvd" 0
scalar ConfiguratorC.area1lan1host2.eth[0].mac "rx channel idle (%)" 100
scalar ConfiguratorC.area1lan1host2.eth[0].mac "rx channel utilization (%)" 0
scalar ConfiguratorC.area1lan1host2.eth[0].mac rxPausePkUnits:count 0
scalar ConfiguratorC.area1lan1host2.eth[0].mac rxPausePkUnits:sum 0
scalar ConfiguratorC.area1lan1host2.eth[0].mac txPausePkUnits:count 0
scalar ConfiguratorC.area1lan1host2.eth[0].mac txPausePkUnits:sum 0
scalar ConfiguratorC.area1lan1host2.eth[0].mac rxPkOk:count 0
scalar ConfiguratorC.area1lan1host2.eth[0].mac rxPkOk:sum(packetBytes) 0
scalar ConfiguratorC.area1lan1host2.eth[0].mac txPk:count 0
scalar ConfiguratorC.area1lan1host2.eth[0].mac txPk:sum(packetBytes) 0
scalar ConfiguratorC.area1lan1host2.eth[0].mac packetReceivedFromUpper:count 0
scalar ConfiguratorC.area1lan1host2.eth[0].mac packetReceivedFromUpper:sum(packetBytes) 0
scalar ConfiguratorC.area1lan1host2.eth[0].mac passedUpPk:count 0
scalar ConfiguratorC.area1lan1host2.eth[0].mac passedUpPk:sum(packetBytes) 0
scalar ConfiguratorC.area1lan1host2.eth[0].mac packetDropIncorrectlyReceived:count 0
scalar ConfiguratorC.area1lan1host2.eth[0].mac packetDropIncorrectlyReceived:sum(packetBytes) 0
scalar ConfiguratorC.area1lan1host2.eth[0].mac packetDropInterfaceDown:count 0
scalar ConfiguratorC.area1lan1host2.eth[0].mac packetDropInterfaceDown:sum(packetBytes) 0
scalar ConfiguratorC.area1lan1host2.eth[0].mac packetDropNotAddressedToUs:count 0
scalar ConfiguratorC.area1lan1host2.eth[0].mac packetDropNotAddressedToUs:sum(packetBytes) 0
scalar ConfiguratorC.area1lan1host2.eth[0] packetDropInterfaceDown:count 0
scalar ConfiguratorC.area1lan1host2.eth[0] packetDropInterfaceDown:sum(packetBytes) 0
scalar ConfiguratorC.area1lan1host2.eth[0] packetDropNoCarrier:count 0
scalar ConfiguratorC.area1lan1host2.eth[0] packetDropNoCarrier:sum(packetBytes) 0
scalar ConfiguratorC.area1lan1host2.ipv4.ip packetDropAddressResolutionFailed:count 0
scalar ConfiguratorC.area1lan1host2.ipv4.ip packetDropAddressResolutionFailed:sum(packetBytes) 0
scalar ConfiguratorC.area1lan1host2.ipv4.ip packetDropHopLimitReached:count 0
scalar ConfiguratorC.area1lan1host2.ipv4.ip packetDropHopLimitReached:sum(packetBytes) 0
scalar ConfiguratorC.area1lan1host2.ipv4.ip packetDropForwardingDisabled:count 0
scalar ConfiguratorC.area1lan1host2.ipv4.ip packetDropForwardingDisabled:sum(packetBytes) 0
scalar ConfiguratorC.area1lan1host2.ipv4.ip packetDropLifetimeExpired:count 0
scalar ConfiguratorC.area1lan1host2.ipv4.ip packetDropLifetimeExpired:sum(packetBytes) 0
scalar ConfiguratorC.area1lan1host2.ipv4.ip packetDropNoInterfaceFound:count 0
scalar ConfiguratorC.area1lan1host2.ipv4.ip packetDropNoInterfaceFound:sum(packetBytes) 0
scalar ConfiguratorC.area1lan1host2.ipv4.ip packetDropNoRouteFound:count 0
scalar ConfiguratorC.area1lan1host2.ipv4.ip packetDropNoRouteFound:sum(packetBytes) 0
scalar ConfiguratorC.area1lan1host2.ipv4.ip packetDropUndefined:count 0
scalar ConfiguratorC.area1lan1host2.ipv4.ip packetDropUndefined:sum(packetBytes) 0
scalar ConfiguratorC.area1lan1host2.udp packetReceived:count 0
scalar ConfiguratorC.area1lan1host2.udp packetReceived:sum(packetBytes) 0
scalar ConfiguratorC.area1lan1host2.udp packetSent:count 0
scalar ConfiguratorC.area1lan1host2.udp packetSent:sum(packetBytes) 0
scalar ConfiguratorC.area1lan1host2.udp passedUpPk:count 0
scalar ConfiguratorC.area1lan1host2.udp droppedPkWrongPort:count 0
scalar ConfiguratorC.area1lan1host2.udp droppedPkBadChecksum:count 0
scalar ConfiguratorC.area1switch1.bridging "processed frames" 0
scalar ConfiguratorC.area1switch1.bridging "discarded frames" 0
scalar ConfiguratorC.area1switch1.bridging "number of received BPDUs from STP module" 0
scalar ConfiguratorC.area1switch1.bridging "number of received frames from network (including BPDUs)" 0
scalar ConfiguratorC.area1switch1.bridging "number of dropped frames (including BPDUs)" 0
scalar ConfiguratorC.area1switch1.bridging "number of delivered BPDUs to the STP module" 0
scalar ConfiguratorC.area1switch1.bridging "number of dispatched BPDU frames to the network" 0
scalar ConfiguratorC.area1switch1.bridging "number of dispatched non-BDPU frames to the network" 0
scalar ConfiguratorC.area1switch1.bridging packetDropped:count 0
scalar ConfiguratorC.area1switch1.bridging packetDropped:sum(packetBytes) 0
scalar ConfiguratorC.area1switch1.ethernet pauseSent:count 0
scalar ConfiguratorC.area1switch1.ethernet pauseSent:sum 0
scalar ConfiguratorC.area1switch1.ethernet decapPk:count 0
scalar ConfiguratorC.area1switch1.ethernet decapPk:sum(packetBytes) 0
scalar ConfiguratorC.area1switch1.ethernet encapPk:count 0
scalar ConfiguratorC.area1switch1.ethernet encapPk:sum(packetBytes) 0
scalar ConfiguratorC.area1switch1.eth[0].queue queueLength:last 0
scalar ConfiguratorC.area1switch1.eth[0].queue queueLength:max 0
scalar ConfiguratorC.area1switch1.eth[0].queue queueLength:timeavg 0
scalar ConfiguratorC.area1switch1.eth[0].queue queueBitLength:last 0
scalar ConfiguratorC.area1switch1.eth[0].queue queueBitLength:max 0
scalar ConfiguratorC.area1switch1.eth[0].queue queueBitLength:timeavg 0
scalar ConfiguratorC.area1switch1.eth[0].queue outgoingPackets:count 0
scalar ConfiguratorC.area1switch1.eth[0].queue outgoingPacketLengths:sum 0
scalar ConfiguratorC.area1switch1.eth[0].queue incomingPackets:count 0
scalar ConfiguratorC.area1switch1.eth[0].queue incomingPacketLengths:sum 0
scalar ConfiguratorC.area1switch1.eth[0].queue droppedPacketsQueueOverflow:count 0
scalar ConfiguratorC.area1switch1.eth[0].queue droppedPacketLengthsQueueOverflow:sum 0
scalar ConfiguratorC.area1switch1.eth[0].mac "simulated time" 100
scalar ConfiguratorC.area1switch1.eth[0].mac full-duplex 1
scalar ConfiguratorC.area1switch1.eth[0].mac "frames/sec sent" 0
scalar ConfiguratorC.area1switch1.eth[0].mac "frames/sec rcvd" 0
scalar ConfiguratorC.area1switch1.eth[0].mac "bits/sec sent" 0
scalar ConfiguratorC.area1switch1.eth[0].mac "bits/sec rcvd" 0
scalar ConfiguratorC.area1switch1.eth[0].mac "rx channel idle (%)" 100
scalar ConfiguratorC.area1switch1.eth[0].mac "rx channel utilization (%)" 0
scalar ConfiguratorC.area1switch1.eth[0].mac rxPausePkUnits:count 0
scalar ConfiguratorC.area1switch1.eth[0].mac rxPausePkUnits:sum 0
scalar ConfiguratorC.area1switch1.eth[0].mac txPausePkUnits:count 0
scalar ConfiguratorC.area1switch1.eth[0].mac txPausePkUnits:sum 0
scalar ConfiguratorC.area1switch1.eth[0].mac rxPkOk:count 0
scalar ConfiguratorC.area1switch1.eth[0].mac rxPkOk:sum(packetBytes) 0
scalar ConfiguratorC.area1switch1.eth[0].mac txPk:count 0
scalar ConfiguratorC.area1switch1.eth[0].mac txPk:sum(packetBytes) 0
scalar ConfiguratorC.area1switch1.eth[0].mac packetReceivedFromUpper:count 0
scalar ConfiguratorC.area1switch1.eth[0].mac packetReceivedFromUpper:sum(packetBytes) 0
scalar ConfiguratorC.area1switch1.eth[0].mac passedUpPk:count 0
scalar ConfiguratorC.area1switch1.eth[0].mac passedUpPk:sum(packetBytes) 0
scalar ConfiguratorC.area1switch1.eth[0].mac packetDropIncorrectlyReceived:count 0
scalar ConfiguratorC.area1switch1.eth[0].mac packetDropIncorrectlyReceived:sum(packetBytes) 0
scalar ConfiguratorC.area1switch1.eth[0].mac packetDropInterfaceDown:count 0
scalar ConfiguratorC.area1switch1.eth[0].mac packetDropInterfaceDown:sum(packetBytes) 0
scalar ConfiguratorC.area1switch1.eth[0].mac packetDropNotAddressedToUs:count 0
scalar ConfiguratorC.area1switch1.eth[0].mac packetDropNotAddressedToUs:sum(packetBytes) 0
scalar ConfiguratorC.area1switch1.eth[0] packetDropInterfaceDown:count 0
scalar ConfiguratorC.area1switch1.eth[0] packetDropInterfaceDown:sum(packetBytes) 0
scalar ConfiguratorC.area1switch1.eth[0] packetDropNoCarrier:count 0
scalar ConfiguratorC.area1switch1.eth[0] packetDropNoCarrier:sum(packetBytes) 0
scalar ConfiguratorC.area1switch1.eth[1].queue queueLength:last 0
scalar ConfiguratorC.area1switch1.eth[1].queue queueLength:max 0
scalar ConfiguratorC.area1switch1.eth[1].queue queueLength:timeavg 0
scalar ConfiguratorC.area1switch1.eth[1].queue queueBitLength:last 0
scalar ConfiguratorC.area1switch1.eth[1].queue queueBitLength:max 0
scalar ConfiguratorC.area1switch1.eth[1].queue queueBitLength:timeavg 0
scalar ConfiguratorC.area1switch1.eth[1].queue outgoingPackets:count 0
scalar ConfiguratorC.area1switch1.eth[1].queue outgoingPacketLengths:sum 0
scalar ConfiguratorC.area1switch1.eth[1].queue incomingPackets:count 0
scalar ConfiguratorC.area1switch1.eth[1].queue incomingPacketLengths:sum 0
scalar ConfiguratorC.area1switch1.eth[1].queue droppedPacketsQueueOverflow:count 0
scalar ConfiguratorC.area1switch1.eth[1].queue droppedPacketLengthsQueueOverflow:sum 0
scalar ConfiguratorC.area1switch1.eth[1].mac "simulated time" 100
scalar ConfiguratorC.area1switch1.eth[1].mac full-duplex 1
scalar ConfiguratorC.area1switch1.eth[1].mac "frames/sec sent" 0
scalar ConfiguratorC.area1switch1.eth[1].mac "frames/sec rcvd" 0
scalar ConfiguratorC.area1switch1.eth[1].mac "bits/sec sent" 0
scalar ConfiguratorC.area1switch1.eth[1].mac "bits/sec rcvd" 0
scalar ConfiguratorC.area1switch1.eth[1].mac "rx channel idle (%)" 100
scalar ConfiguratorC.area1switch1.eth[1].mac "rx channel utilization (%)" 0
scalar ConfiguratorC.area1switch1.eth[1].mac rxPausePkUnits:count 0
scalar ConfiguratorC.area1switch1.eth[1].mac rxPausePkUnits:sum 0
scalar ConfiguratorC.area1switch1.eth[1].mac txPausePkUnits:count 0
scalar ConfiguratorC.area1switch1.eth[1].mac txPausePkUnits:sum 0
scalar ConfiguratorC.area1switch1.eth[1].mac rxPkOk:count 0
scalar ConfiguratorC.area1switch1.eth[1].mac rxPkOk:sum(packetBytes) 0
scalar ConfiguratorC.area1switch1.eth[1].mac txPk:count 0
scalar ConfiguratorC.area1switch1.eth[1].mac txPk:sum(packetBytes) 0
scalar ConfiguratorC.area1switch1.eth[1].mac packetReceivedFromUpper:count 0
scalar ConfiguratorC.area1switch1.eth[1].mac packetReceivedFromUpper:sum(packetBytes) 0
scalar ConfiguratorC.area1switch1.eth[1].mac passedUpPk:count 0
scalar ConfiguratorC.area1switch1.eth[1].mac passedUpPk:sum(packetBytes) 0
scalar ConfiguratorC.area1switch1.eth[1].mac packetDropIncorrectlyReceived:count 0
scalar ConfiguratorC.area1switch1.eth[1].mac packetDropIncorrectlyReceived:sum(packetBytes) 0
scalar ConfiguratorC.area1switch1.eth[1].mac packetDropInterfaceDown:count 0
scalar ConfiguratorC.area1switch1.eth[1].mac packetDropInterfaceDown:sum(packetBytes) 0
scalar ConfiguratorC.area1switch1.eth[1].mac packetDropNotAddressedToUs:count 0
scalar ConfiguratorC.area1switch1.eth[1].mac packetDropNotAddressedToUs:sum(packetBytes) 0
scalar ConfiguratorC.area1switch1.eth[1] packetDropInterfaceDown:count 0
scalar ConfiguratorC.area1switch1.eth[1] packetDropInterfaceDown:sum(packetBytes) 0
scalar ConfiguratorC.area1switch1.eth[1] packetDropNoCarrier:count 0
scalar ConfiguratorC.area1switch1.eth[1] packetDropNoCarrier:sum(packetBytes) 0
scalar ConfiguratorC.area1switch1.eth[2].queue queueLength:last 0
scalar ConfiguratorC.area1switch1.eth[2].queue queueLength:max 0
scalar ConfiguratorC.area1switch1.eth[2].queue queueLength:timeavg 0
scalar ConfiguratorC.area1switch1.eth[2].queue queueBitLength:last 0
scalar ConfiguratorC.area1switch1.eth[2].queue queueBitLength:max 0
scalar ConfiguratorC.area1switch1.eth[2].queue queueBitLength:timeavg 0
scalar ConfiguratorC.area1switch1.eth[2].queue outgoingPackets:count 0
scalar ConfiguratorC.area1switch1.eth[2].queue outgoingPacketLengths:sum 0
scalar ConfiguratorC.area1switch1.eth[2].queue incomingPackets:count 0
scalar ConfiguratorC.area1switch1.eth[2].queue incomingPacketLengths:sum 0
scalar ConfiguratorC.area1switch1.eth[2].queue droppedPacketsQueueOverflow:count 0
scalar ConfiguratorC.area1switch1.eth[2].queue droppedPacketLengthsQueueOverflow:sum 0
scalar ConfiguratorC.area1switch1.eth[2].mac "simulated time" 100
scalar ConfiguratorC.area1switch1.eth[2].mac full-duplex 1
scalar ConfiguratorC.area1switch1.eth[2].mac "frames/sec sent" 0
scalar ConfiguratorC.area1switch1.eth[2].mac "frames/sec rcvd" 0
scalar ConfiguratorC.area1switch1.eth[2].mac "bits/sec sent" 0
scalar ConfiguratorC.area1switch1.eth[2].mac "bits/sec rcvd" 0
scalar ConfiguratorC.area1switch1.eth[2].mac "rx channel idle (%)" 100
scalar ConfiguratorC.area1switch1.eth[2].mac "rx channel utilization (%)" 0
scalar ConfiguratorC.area1switch1.eth[2].mac rxPausePkUnits:count 0
scalar ConfiguratorC.area1switch1.eth[2].mac rxPausePkUnits:sum 0
scalar ConfiguratorC.area1switch1.eth[2].mac txPausePkUnits:count 0
scalar ConfiguratorC.area1switch1.eth[2].mac txPausePkUnits:sum 0
scalar ConfiguratorC.area1switch1.eth[2].mac rxPkOk:count 0
scalar ConfiguratorC.area1switch1.eth[2].mac rxPkOk:sum(packetBytes) 0
scalar ConfiguratorC.area1switch1.eth[2].mac txPk:count 0
scalar ConfiguratorC.area1switch1.eth[2].mac txPk:sum(packetBytes) 0
scalar ConfiguratorC.area1switch1.eth[2].mac packetReceivedFromUpper:count 0
scalar ConfiguratorC.area1switch1.eth[2].mac packetReceivedFromUpper:sum(packetBytes) 0
scalar ConfiguratorC.area1switch1.eth[2].mac passedUpPk:count 0
scalar ConfiguratorC.area1switch1.eth[2].mac passedUpPk:sum(packetBytes) 0
scalar ConfiguratorC.area1switch1.eth[2].mac packetDropIncorrectlyReceived:count 0
scalar ConfiguratorC.area1switch1.eth[2].mac packetDropIncorrectlyReceived:sum(packetBytes) 0
scalar ConfiguratorC.area1switch1.eth[2].mac packetDropInterfaceDown:count 0
scalar ConfiguratorC.area1switch1.eth[2].mac packetDropInterfaceDown:sum(packetBytes) 0
scalar ConfiguratorC.area1switch1.eth[2].mac packetDropNotAddressedToUs:count 0
scalar ConfiguratorC.area1switch1.eth[2].mac packetDropNotAddressedToUs:sum(packetBytes) 0
scalar ConfiguratorC.area1switch1.eth[2] packetDropInterfaceDown:count 0
scalar ConfiguratorC.area1switch1.eth[2] packetDropInterfaceDown:sum(packetBytes) 0
scalar ConfiguratorC.area1switch1.eth[2] packetDropNoCarrier:count 0
scalar ConfiguratorC.area1switch1.eth[2] packetDropNoCarrier:sum(packetBytes) 0
scalar ConfiguratorC.area1switch1.eth[3].queue queueLength:last 0
scalar ConfiguratorC.area1switch1.eth[3].queue queueLength:max 0
scalar ConfiguratorC.area1switch1.eth[3].queue queueLength:timeavg 0
scalar ConfiguratorC.area1switch1.eth[3].queue queueBitLength:last 0
scalar ConfiguratorC.area1switch1.eth[3].queue queueBitLength:max 0
scalar ConfiguratorC.area1switch1.eth[3].queue queueBitLength:timeavg 0
scalar ConfiguratorC.area1switch1.eth[3].queue outgoingPackets:count 0
scalar ConfiguratorC.area1switch1.eth[3].queue outgoingPacketLengths:sum 0
scalar ConfiguratorC.area1switch1.eth[3].queue incomingPackets:count 0
scalar ConfiguratorC.area1switch1.eth[3].queue incomingPacketLengths:sum 0
scalar ConfiguratorC.area1switch1.eth[3].queue droppedPacketsQueueOverflow:count 0
scalar ConfiguratorC.area1switch1.eth[3].queue droppedPacketLengthsQueueOverflow:sum 0
scalar ConfiguratorC.area1switch1.eth[3].mac "simulated time" 100
scalar ConfiguratorC.area1switch1.eth[3].mac full-duplex 1
scalar ConfiguratorC.area1switch1.eth[3].mac "frames/sec sent" 0
scalar ConfiguratorC.area1switch1.eth[3].mac "frames/sec rcvd" 0
scalar ConfiguratorC.area1switch1.eth[3].mac "bits/sec sent" 0
scalar ConfiguratorC.area1switch1.eth[3].mac "bits/sec rcvd" 0
scalar ConfiguratorC.area1switch1.eth[3].mac "rx channel idle (%)" 100
scalar ConfiguratorC.area1switch1.eth[3].mac "rx channel utilization (%)" 0
scalar ConfiguratorC.area1switch1.eth[3].mac rxPausePkUnits:count 0
scalar ConfiguratorC.area1switch1.eth[3].mac rxPausePkUnits:sum 0
scalar ConfiguratorC.area1switch1.eth[3].mac txPausePkUnits:count 0
scalar ConfiguratorC.area1switch1.eth[3].mac txPausePkUnits:sum 0
scalar ConfiguratorC.area1switch1.eth[3].mac rxPkOk:count 0
scalar ConfiguratorC.area1switch1.eth[3].mac rxPkOk:sum(packetBytes) 0
scalar ConfiguratorC.area1switch1.eth[3].mac txPk:count 0
scalar ConfiguratorC.area1switch1.eth[3].mac txPk:sum(packetBytes) 0
scalar ConfiguratorC.area1switch1.eth[3].mac packetReceivedFromUpper:count 0
scalar ConfiguratorC.area1switch1.eth[3].mac packetReceivedFromUpper:sum(packetBytes) 0
scalar ConfiguratorC.area1switch1.eth[3].mac passedUpPk:count 0
scalar ConfiguratorC.area1switch1.eth[3].mac passedUpPk:sum(packetBytes) 0
scalar ConfiguratorC.area1switch1.eth[3].mac packetDropIncorrectlyReceived:count 0
scalar ConfiguratorC.area1switch1.eth[3].mac packetDropIncorrectlyReceived:sum(packetBytes) 0
scalar ConfiguratorC.area1switch1.eth[3].mac packetDropInterfaceDown:count 0
scalar ConfiguratorC.area1switch1.eth[3].mac packetDropInterfaceDown:sum(packetBytes) 0
scalar ConfiguratorC.area1switch1.eth[3].mac packetDropNotAddressedToUs:count 0
scalar ConfiguratorC.area1switch1.eth[3].mac packetDropNotAddressedToUs:sum(packetBytes) 0
scalar ConfiguratorC.area1switch1.eth[3] packetDropInterfaceDown:count 0
scalar ConfiguratorC.area1switch1.eth[3] packetDropInterfaceDown:sum(packetBytes) 0
scalar ConfiguratorC.area1switch1.eth[3] packetDropNoCarrier:count 0
scalar ConfiguratorC.area1switch1.eth[3] packetDropNoCarrier:sum(packetBytes) 0
scalar ConfiguratorC.area2lan1host1.ethernet pauseSent:count 0
scalar ConfiguratorC.area2lan1host1.ethernet pauseSent:sum 0
scalar ConfiguratorC.area2lan1host1.ethernet decapPk:count 0
scalar ConfiguratorC.area2lan1host1.ethernet decapPk:sum(packetBytes) 0
scalar ConfiguratorC.area2lan1host1.ethernet encapPk:count 0
scalar ConfiguratorC.area2lan1host1.ethernet encapPk:sum(packetBytes) 0
scalar ConfiguratorC.area2lan1host1.lo[0].lo rcvdPkFromHl:count 0
scalar ConfiguratorC.area2lan1host1.lo[0].lo rcvdPkFromHl:sum(packetBytes) 0
scalar ConfiguratorC.area2lan1host1.lo[0].lo passedUpPk:count 0
scalar ConfiguratorC.area2lan1host1.lo[0].lo passedUpPk:sum(packetBytes) 0
scalar ConfiguratorC.area2lan1host1.lo[0] packetDropInterfaceDown:count 0
scalar ConfiguratorC.area2lan1host1.lo[0] packetDropInterfaceDown:sum(packetBytes) 0
scalar ConfiguratorC.area2lan1host1.lo[0] packetDropNoCarrier:count 0
scalar ConfiguratorC.area2lan1host1.lo[0] packetDropNoCarrier:sum(packetBytes) 0
scalar ConfiguratorC.area2lan1host1.eth[0].queue queueLength:last 0
scalar ConfiguratorC.area2lan1host1.eth[0].queue queueLength:max 0
scalar ConfiguratorC.area2lan1host1.eth[0].queue queueLength:timeavg 0
scalar ConfiguratorC.area2lan1host1.eth[0].queue queueBitLength:last 0
scalar ConfiguratorC.area2lan1host1.eth[0].queue queueBitLength:max 0
scalar ConfiguratorC.area2lan1host1.eth[0].queue queueBitLength:timeavg 0
scalar ConfiguratorC.area2lan1host1.eth[0].queue outgoingPackets:count 0
scalar ConfiguratorC.area2lan1host1.eth[0].queue outgoingPacketLengths:sum 0
scalar ConfiguratorC.area2lan1host1.eth[0].queue incomingPackets:count 0
scalar ConfiguratorC.area2lan1host1.eth[0].queue incomingPacketLengths:sum 0
scalar ConfiguratorC.area2lan1host1.eth[0].queue droppedPacketsQueueOverflow:count 0
scalar ConfiguratorC.area2lan1host1.eth[0].queue droppedPacketLengthsQueueOverflow:sum 0
scalar ConfiguratorC.area2lan1host1.eth[0].mac "simulated time" 100
scalar ConfiguratorC.area2lan1host1.eth[0].mac full-duplex 1
scalar ConfiguratorC.area2lan1host1.eth[0].mac "frames/sec sent" 0
scalar ConfiguratorC.area2lan1host1.eth[0].mac "frames/sec rcvd" 0
scalar ConfiguratorC.area2lan1host1.eth[0].mac "bits/sec sent" 0
scalar ConfiguratorC.area2lan1host1.eth[0].mac "bits/sec rcvd" 0
scalar ConfiguratorC.area2lan1host1.eth[0].mac "rx channel idle (%)" 100
scalar ConfiguratorC.area2lan1host1.eth[0].mac "rx channel utilization (%)" 0
scalar ConfiguratorC.area2lan1host1.eth[0].mac rxPausePkUnits:count 0
scalar ConfiguratorC.area2lan1host1.eth[0].mac rxPausePkUnits:sum 0
scalar ConfiguratorC.area2lan1host1.eth[0].mac txPausePkUnits:count 0
scalar ConfiguratorC.area2lan1host1.eth[0].mac txPausePkUnits:sum 0
scalar ConfiguratorC.area2lan1host1.eth[0].mac rxPkOk:count 0
scalar ConfiguratorC.area2lan1host1.eth[0].mac rxPkOk:sum(packetBytes) 0
scalar ConfiguratorC.area2lan1host1.eth[0].mac txPk:count 0
scalar ConfiguratorC.area2lan1host1.eth[0].mac txPk:sum(packetBytes) 0
scalar ConfiguratorC.area2lan1host1.eth[0].mac packetReceivedFromUpper:count 0
scalar ConfiguratorC.area2lan1host1.eth[0].mac packetReceivedFromUpper:sum(packetBytes) 0
scalar ConfiguratorC.area2lan1host1.eth[0].mac passedUpPk:count 0
scalar ConfiguratorC.area2lan1host1.eth[0].mac passedUpPk:sum(packetBytes) 0
scalar ConfiguratorC.area2lan1host1.eth[0].mac packetDropIncorrectlyReceived:count 0
scalar ConfiguratorC.area2lan1host1.eth[0].mac packetDropIncorrectlyReceived:sum(packetBytes) 0
scalar ConfiguratorC.area2lan1host1.eth[0].mac packetDropInterfaceDown:count 0
scalar ConfiguratorC.area2lan1host1.eth[0].mac packetDropInterfaceDown:sum(packetBytes) 0
scalar ConfiguratorC.area2lan1host1.eth[0].mac packetDropNotAddressedToUs:count 0
scalar ConfiguratorC.area2lan1host1.eth[0].mac packetDropNotAddressedToUs:sum(packetBytes) 0
scalar ConfiguratorC.area2lan1host1.eth[0] packetDropInterfaceDown:count 0
scalar ConfiguratorC.area2lan1host1.eth[0] packetDropInterfaceDown:sum(packetBytes) 0
scalar ConfiguratorC.area2lan1host1.eth[0] packetDropNoCarrier:count 0
scalar ConfiguratorC.area2lan1host1.eth[0] packetDropNoCarrier:sum(packetBytes) 0
scalar ConfiguratorC.area2lan1host1.ipv4.ip packetDropAddressResolutionFailed:count 0
scalar ConfiguratorC.area2lan1host1.ipv4.ip packetDropAddressResolutionFailed:sum(packetBytes) 0
scalar ConfiguratorC.area2lan1host1.ipv4.ip packetDropHopLimitReached:count 0
scalar ConfiguratorC.area2lan1host1.ipv4.ip packetDropHopLimitReached:sum(packetBytes) 0
scalar ConfiguratorC.area2lan1host1.ipv4.ip packetDropForwardingDisabled:count 0
scalar ConfiguratorC.area2lan1host1.ipv4.ip packetDropForwardingDisabled:sum(packetBytes) 0
scalar ConfiguratorC.area2lan1host1.ipv4.ip packetDropLifetimeExpired:count 0
scalar ConfiguratorC.area2lan1host1.ipv4.ip packetDropLifetimeExpired:sum(packetBytes) 0
scalar ConfiguratorC.area2lan1host1.ipv4.ip packetDropNoInterfaceFound:count 0
scalar ConfiguratorC.area2lan1host1.ipv4.ip packetDropNoInterfaceFound:sum(packetBytes) 0
scalar ConfiguratorC.area2lan1host1.ipv4.ip packetDropNoRouteFound:count 0
scalar ConfiguratorC.area2lan1host1.ipv4.ip packetDropNoRouteFound:sum(packetBytes) 0
scalar ConfiguratorC.area2lan1host1.ipv4.ip packetDropUndefined:count 0
scalar ConfiguratorC.area2lan1host1.ipv4.ip packetDropUndefined:sum(packetBytes) 0
scalar ConfiguratorC.area2lan1host1.udp packetReceived:count 0
scalar ConfiguratorC.area2lan1host1.udp packetReceived:sum(packetBytes) 0
scalar ConfiguratorC.area2lan1host1.udp packetSent:count 0
scalar ConfiguratorC.area2lan1host1.udp packetSent:sum(packetBytes) 0
scalar ConfiguratorC.area2lan1host1.udp passedUpPk:count 0
scalar ConfiguratorC.area2lan1host1.udp droppedPkWrongPort:count 0
scalar ConfiguratorC.area2lan1host1.udp droppedPkBadChecksum:count 0
scalar ConfiguratorC.area2lan1host2.ethernet pauseSent:count 0
scalar ConfiguratorC.area2lan1host2.ethernet pauseSent:sum 0
scalar ConfiguratorC.area2lan1host2.ethernet decapPk:count 0
scalar ConfiguratorC.area2lan1host2.ethernet decapPk:sum(packetBytes) 0
scalar ConfiguratorC.area2lan1host2.ethernet encapPk:count 0
scalar ConfiguratorC.area2lan1host2.ethernet encapPk:sum(packetBytes) 0
scalar ConfiguratorC.area2lan1host2.lo[0].lo rcvdPkFromHl:count 0
scalar ConfiguratorC.area2lan1host2.lo[0].lo rcvdPkFromHl:sum(packetBytes) 0
scalar ConfiguratorC.area2lan1host2.lo[0].lo passedUpPk:count 0
scalar ConfiguratorC.area2lan1host2.lo[0].lo passedUpPk:sum(packetBytes) 0
scalar ConfiguratorC.area2lan1host2.lo[0] packetDropInterfaceDown:count 0
scalar ConfiguratorC.area2lan1host2.lo[0] packetDropInterfaceDown:sum(packetBytes) 0
scalar ConfiguratorC.area2lan1host2.lo[0] packetDropNoCarrier:count 0
scalar ConfiguratorC.area2lan1host2.lo[0] packetDropNoCarrier:sum(packetBytes) 0
scalar ConfiguratorC.area2lan1host2.eth[0].queue queueLength:last 0
scalar ConfiguratorC.area2lan1host2.eth[0].queue queueLength:max 0
scalar ConfiguratorC.area2lan1host2.eth[0].queue queueLength:timeavg 0
scalar ConfiguratorC.area2lan1host2.eth[0].queue queueBitLength:last 0
scalar ConfiguratorC.area2lan1host2.eth[0].queue queueBitLength:max 0
scalar ConfiguratorC.area2lan1host2.eth[0].queue queueBitLength:timeavg 0
scalar ConfiguratorC.area2lan1host2.eth[0].queue outgoingPackets:count 0
scalar ConfiguratorC.area2lan1host2.eth[0].queue outgoingPacketLengths:sum 0
scalar ConfiguratorC.area2lan1host2.eth[0].queue incomingPackets:count 0
scalar ConfiguratorC.area2lan1host2.eth[0].queue incomingPacketLengths:sum 0
scalar ConfiguratorC.area2lan1host2.eth[0].queue droppedPacketsQueueOverflow:count 0
scalar ConfiguratorC.area2lan1host2.eth[0].queue droppedPacketLengthsQueueOverflow:sum 0
scalar ConfiguratorC.area2lan1host2.eth[0].mac "simulated time" 100
scalar ConfiguratorC.area2lan1host2.eth[0].mac full-duplex 1
scalar ConfiguratorC.area2lan1host2.eth[0].mac "frames/sec sent" 0
scalar ConfiguratorC.area2lan1host2.eth[0].mac "frames/sec rcvd" 0
scalar ConfiguratorC.area2lan1host2.eth[0].mac "bits/sec sent" 0
scalar ConfiguratorC.area2lan1host2.eth[0].mac "bits/sec rcvd" 0
scalar ConfiguratorC.area2lan1host2.eth[0].mac "rx channel idle (%)" 100
scalar ConfiguratorC.area2lan1host2.eth[0].mac "rx channel utilization (%)" 0
scalar ConfiguratorC.area2lan1host2.eth[0].mac rxPausePkUnits:count 0
scalar ConfiguratorC.area2lan1host2.eth[0].mac rxPausePkUnits:sum 0
scalar ConfiguratorC.area2lan1host2.eth[0].mac txPausePkUnits:count 0
scalar ConfiguratorC.area2lan1host2.eth[0].mac txPausePkUnits:sum 0
scalar ConfiguratorC.area2lan1host2.eth[0].mac rxPkOk:count 0
scalar ConfiguratorC.area2lan1host2.eth[0].mac rxPkOk:sum(packetBytes) 0
scalar ConfiguratorC.area2lan1host2.eth[0].mac txPk:count 0
scalar ConfiguratorC.area2lan1host2.eth[0].mac txPk:sum(packetBytes) 0
scalar ConfiguratorC.area2lan1host2.eth[0].mac packetReceivedFromUpper:count 0
scalar ConfiguratorC.area2lan1host2.eth[0].mac packetReceivedFromUpper:sum(packetBytes) 0
scalar ConfiguratorC.area2lan1host2.eth[0].mac passedUpPk:count 0
scalar ConfiguratorC.area2lan1host2.eth[0].mac passedUpPk:sum(packetBytes) 0
scalar ConfiguratorC.area2lan1host2.eth[0].mac packetDropIncorrectlyReceived:count 0
scalar ConfiguratorC.area2lan1host2.eth[0].mac packetDropIncorrectlyReceived:sum(packetBytes) 0
scalar ConfiguratorC.area2lan1host2.eth[0].mac packetDropInterfaceDown:count 0
scalar ConfiguratorC.area2lan1host2.eth[0].mac packetDropInterfaceDown:sum(packetBytes) 0
scalar ConfiguratorC.area2lan1host2.eth[0].mac packetDropNotAddressedToUs:count 0
scalar ConfiguratorC.area2lan1host2.eth[0].mac packetDropNotAddressedToUs:sum(packetBytes) 0
scalar ConfiguratorC.area2lan1host2.eth[0] packetDropInterfaceDown:count 0
scalar ConfiguratorC.area2lan1host2.eth[0] packetDropInterfaceDown:sum(packetBytes) 0
scalar ConfiguratorC.area2lan1host2.eth[0] packetDropNoCarrier:count 0
scalar ConfiguratorC.area2lan1host2.eth[0] packetDropNoCarrier:sum(packetBytes) 0
scalar ConfiguratorC.area2lan1host2.ipv4.ip packetDropAddressResolutionFailed:count 0
scalar ConfiguratorC.area2lan1host2.ipv4.ip packetDropAddressResolutionFailed:sum(packetBytes) 0
scalar ConfiguratorC.area2lan1host2.ipv4.ip packetDropHopLimitReached:count 0
scalar ConfiguratorC.area2lan1host2.ipv4.ip packetDropHopLimitReached:sum(packetBytes) 0
scalar ConfiguratorC.area2lan1host2.ipv4.ip packetDropForwardingDisabled:count 0
scalar ConfiguratorC.area2lan1host2.ipv4.ip packetDropForwardingDisabled:sum(packetBytes) 0
scalar ConfiguratorC.area2lan1host2.ipv4.ip packetDropLifetimeExpired:count 0
scalar ConfiguratorC.area2lan1host2.ipv4.ip packetDropLifetimeExpired:sum(packetBytes) 0
scalar ConfiguratorC.area2lan1host2.ipv4.ip packetDropNoInterfaceFound:count 0
scalar ConfiguratorC.area2lan1host2.ipv4.ip packetDropNoInterfaceFound:sum(packetBytes) 0
scalar ConfiguratorC.area2lan1host2.ipv4.ip packetDropNoRouteFound:count 0
scalar ConfiguratorC.area2lan1host2.ipv4.ip packetDropNoRouteFound:sum(packetBytes) 0
scalar ConfiguratorC.area2lan1host2.ipv4.ip packetDropUndefined:count 0
scalar ConfiguratorC.area2lan1host2.ipv4.ip packetDropUndefined:sum(packetBytes) 0
scalar ConfiguratorC.area2lan1host2.udp packetReceived:count 0
scalar ConfiguratorC.area2lan1host2.udp packetReceived:sum(packetBytes) 0
scalar ConfiguratorC.area2lan1host2.udp packetSent:count 0
scalar ConfiguratorC.area2lan1host2.udp packetSent:sum(packetBytes) 0
scalar ConfiguratorC.area2lan1host2.udp passedUpPk:count 0
scalar ConfiguratorC.area2lan1host2.udp droppedPkWrongPort:count 0
scalar ConfiguratorC.area2lan1host2.udp droppedPkBadChecksum:count 0
scalar ConfiguratorC.area2lan1host3.ethernet pauseSent:count 0
scalar ConfiguratorC.area2lan1host3.ethernet pauseSent:sum 0
scalar ConfiguratorC.area2lan1host3.ethernet decapPk:count 0
scalar ConfiguratorC.area2lan1host3.ethernet decapPk:sum(packetBytes) 0
scalar ConfiguratorC.area2lan1host3.ethernet encapPk:count 0
scalar ConfiguratorC.area2lan1host3.ethernet encapPk:sum(packetBytes) 0
scalar ConfiguratorC.area2lan1host3.lo[0].lo rcvdPkFromHl:count 0
scalar ConfiguratorC.area2lan1host3.lo[0].lo rcvdPkFromHl:sum(packetBytes) 0
scalar ConfiguratorC.area2lan1host3.lo[0].lo passedUpPk:count 0
scalar ConfiguratorC.area2lan1host3.lo[0].lo passedUpPk:sum(packetBytes) 0
scalar ConfiguratorC.area2lan1host3.lo[0] packetDropInterfaceDown:count 0
scalar ConfiguratorC.area2lan1host3.lo[0] packetDropInterfaceDown:sum(packetBytes) 0
scalar ConfiguratorC.area2lan1host3.lo[0] packetDropNoCarrier:count 0
scalar ConfiguratorC.area2lan1host3.lo[0] packetDropNoCarrier:sum(packetBytes) 0
scalar ConfiguratorC.area2lan1host3.eth[0].queue queueLength:last 0
scalar ConfiguratorC.area2lan1host3.eth[0].queue queueLength:max 0
scalar ConfiguratorC.area2lan1host3.eth[0].queue queueLength:timeavg 0
scalar ConfiguratorC.area2lan1host3.eth[0].queue queueBitLength:last 0
scalar ConfiguratorC.area2lan1host3.eth[0].queue queueBitLength:max 0
scalar ConfiguratorC.area2lan1host3.eth[0].queue queueBitLength:timeavg 0
scalar ConfiguratorC.area2lan1host3.eth[0].queue outgoingPackets:count 0
scalar ConfiguratorC.area2lan1host3.eth[0].queue outgoingPacketLengths:sum 0
scalar ConfiguratorC.area2lan1host3.eth[0].queue incomingPackets:count 0
scalar ConfiguratorC.area2lan1host3.eth[0].queue incomingPacketLengths:sum 0
scalar ConfiguratorC.area2lan1host3.eth[0].queue droppedPacketsQueueOverflow:count 0
scalar ConfiguratorC.area2lan1host3.eth[0].queue droppedPacketLengthsQueueOverflow:sum 0
scalar ConfiguratorC.area2lan1host3.eth[0].mac "simulated time" 100
scalar ConfiguratorC.area2lan1host3.eth[0].mac full-duplex 1
scalar ConfiguratorC.area2lan1host3.eth[0].mac "frames/sec sent" 0
scalar ConfiguratorC.area2lan1host3.eth[0].mac "frames/sec rcvd" 0
scalar ConfiguratorC.area2lan1host3.eth[0].mac "bits/sec sent" 0
scalar ConfiguratorC.area2lan1host3.eth[0].mac "bits/sec rcvd" 0
scalar ConfiguratorC.area2lan1host3.eth[0].mac "rx channel idle (%)" 100
scalar ConfiguratorC.area2lan1host3.eth[0].mac "rx channel utilization (%)" 0
scalar ConfiguratorC.area2lan1host3.eth[0].mac rxPausePkUnits:count 0
scalar ConfiguratorC.area2lan1host3.eth[0].mac rxPausePkUnits:sum 0
scalar ConfiguratorC.area2lan1host3.eth[0].mac txPausePkUnits:count 0
scalar ConfiguratorC.area2lan1host3.eth[0].mac txPausePkUnits:sum 0
scalar ConfiguratorC.area2lan1host3.eth[0].mac rxPkOk:count 0
scalar ConfiguratorC.area2lan1host3.eth[0].mac rxPkOk:sum(packetBytes) 0
scalar ConfiguratorC.area2lan1host3.eth[0].mac txPk:count 0
scalar ConfiguratorC.area2lan1host3.eth[0].mac txPk:sum(packetBytes) 0
scalar ConfiguratorC.area2lan1host3.eth[0].mac packetReceivedFromUpper:count 0
scalar ConfiguratorC.area2lan1host3.eth[0].mac packetReceivedFromUpper:sum(packetBytes) 0
scalar ConfiguratorC.area2lan1host3.eth[0].mac passedUpPk:count 0
scalar ConfiguratorC.area2lan1host3.eth[0].mac passedUpPk:sum(packetBytes) 0
scalar ConfiguratorC.area2lan1host3.eth[0].mac packetDropIncorrectlyReceived:count 0
scalar ConfiguratorC.area2lan1host3.eth[0].mac packetDropIncorrectlyReceived:sum(packetBytes) 0
scalar ConfiguratorC.area2lan1host3.eth[0].mac packetDropInterfaceDown:count 0
scalar ConfiguratorC.area2lan1host3.eth[0].mac packetDropInterfaceDown:sum(packetBytes) 0
scalar ConfiguratorC.area2lan1host3.eth[0].mac packetDropNotAddressedToUs:count 0
scalar ConfiguratorC.area2lan1host3.eth[0].mac packetDropNotAddressedToUs:sum(packetBytes) 0
scalar ConfiguratorC.area2lan1host3.eth[0] packetDropInterfaceDown:count 0
scalar ConfiguratorC.area2lan1host3.eth[0] packetDropInterfaceDown:sum(packetBytes) 0
scalar ConfiguratorC.area2lan1host3.eth[0] packetDropNoCarrier:count 0
scalar ConfiguratorC.area2lan1host3.eth[0] packetDropNoCarrier:sum(packetBytes) 0
scalar ConfiguratorC.area2lan1host3.ipv4.ip packetDropAddressResolutionFailed:count 0
scalar ConfiguratorC.area2lan1host3.ipv4.ip packetDropAddressResolutionFailed:sum(packetBytes) 0
scalar ConfiguratorC.area2lan1host3.ipv4.ip packetDropHopLimitReached:count 0
scalar ConfiguratorC.area2lan1host3.ipv4.ip packetDropHopLimitReached:sum(packetBytes) 0
scalar ConfiguratorC.area2lan1host3.ipv4.ip packetDropForwardingDisabled:count 0
scalar ConfiguratorC.area2lan1host3.ipv4.ip packetDropForwardingDisabled:sum(packetBytes) 0
scalar ConfiguratorC.area2lan1host3.ipv4.ip packetDropLifetimeExpired:count 0
scalar ConfiguratorC.area2lan1host3.ipv4.ip packetDropLifetimeExpired:sum(packetBytes) 0
scalar ConfiguratorC.area2lan1host3.ipv4.ip packetDropNoInterfaceFound:count 0
scalar ConfiguratorC.area2lan1host3.ipv4.ip packetDropNoInterfaceFound:sum(packetBytes) 0
scalar ConfiguratorC.area2lan1host3.ipv4.ip packetDropNoRouteFound:count 0
scalar ConfiguratorC.area2lan1host3.ipv4.ip packetDropNoRouteFound:sum(packetBytes) 0
scalar ConfiguratorC.area2lan1host3.ipv4.ip packetDropUndefined:count 0
scalar ConfiguratorC.area2lan1host3.ipv4.ip packetDropUndefined:sum(packetBytes) 0
scalar ConfiguratorC.area2lan1host3.udp packetReceived:count 0
scalar ConfiguratorC.area2lan1host3.udp packetReceived:sum(packetBytes) 0
scalar ConfiguratorC.area2lan1host3.udp packetSent:count 0
scalar ConfiguratorC.area2lan1host3.udp packetSent:sum(packetBytes) 0
scalar ConfiguratorC.area2lan1host3.udp passedUpPk:count 0
scalar ConfiguratorC.area2lan1host3.udp droppedPkWrongPort:count 0
scalar ConfiguratorC.area2lan1host3.udp droppedPkBadChecksum:count 0
scalar ConfiguratorC.area2switch1.bridging "processed frames" 0
scalar ConfiguratorC.area2switch1.bridging "discarded frames" 0
scalar ConfiguratorC.area2switch1.bridging "number of received BPDUs from STP module" 0
scalar ConfiguratorC.area2switch1.bridging "number of received frames from network (including BPDUs)" 0
scalar ConfiguratorC.area2switch1.bridging "number of dropped frames (including BPDUs)" 0
scalar ConfiguratorC.area2switch1.bridging "number of delivered BPDUs to the STP module" 0
scalar ConfiguratorC.area2switch1.bridging "number of dispatched BPDU frames to the network" 0
scalar ConfiguratorC.area2switch1.bridging "number of dispatched non-BDPU frames to the network" 0
scalar ConfiguratorC.area2switch1.bridging packetDropped:count 0
scalar ConfiguratorC.area2switch1.bridging packetDropped:sum(packetBytes) 0
scalar ConfiguratorC.area2switch1.ethernet pauseSent:count 0
scalar ConfiguratorC.area2switch1.ethernet pauseSent:sum 0
scalar ConfiguratorC.area2switch1.ethernet decapPk:count 0
scalar ConfiguratorC.area2switch1.ethernet decapPk:sum(packetBytes) 0
scalar ConfiguratorC.area2switch1.ethernet encapPk:count 0
scalar ConfiguratorC.area2switch1.ethernet encapPk:sum(packetBytes) 0
scalar ConfiguratorC.area2switch1.eth[0].queue queueLength:last 0
scalar ConfiguratorC.area2switch1.eth[0].queue queueLength:max 0
scalar ConfiguratorC.area2switch1.eth[0].queue queueLength:timeavg 0
scalar ConfiguratorC.area2switch1.eth[0].queue queueBitLength:last 0
scalar ConfiguratorC.area2switch1.eth[0].queue queueBitLength:max 0
scalar ConfiguratorC.area2switch1.eth[0].queue queueBitLength:timeavg 0
scalar ConfiguratorC.area2switch1.eth[0].queue outgoingPackets:count 0
scalar ConfiguratorC.area2switch1.eth[0].queue outgoingPacketLengths:sum 0
scalar ConfiguratorC.area2switch1.eth[0].queue incomingPackets:count 0
scalar ConfiguratorC.area2switch1.eth[0].queue incomingPacketLengths:sum 0
scalar ConfiguratorC.area2switch1.eth[0].queue droppedPacketsQueueOverflow:count 0
scalar ConfiguratorC.area2switch1.eth[0].queue droppedPacketLengthsQueueOverflow:sum 0
scalar ConfiguratorC.area2switch1.eth[0].mac "simulated time" 100
scalar ConfiguratorC.area2switch1.eth[0].mac full-duplex 1
scalar ConfiguratorC.area2switch1.eth[0].mac "frames/sec sent" 0
scalar ConfiguratorC.area2switch1.eth[0].mac "frames/sec rcvd" 0
scalar ConfiguratorC.area2switch1.eth[0].mac "bits/sec sent" 0
scalar ConfiguratorC.area2switch1.eth[0].mac "bits/sec rcvd" 0
scalar ConfiguratorC.area2switch1.eth[0].mac "rx channel idle (%)" 100
scalar ConfiguratorC.area2switch1.eth[0].mac "rx channel utilization (%)" 0
scalar ConfiguratorC.area2switch1.eth[0].mac rxPausePkUnits:count 0
scalar ConfiguratorC.area2switch1.eth[0].mac rxPausePkUnits:sum 0
scalar ConfiguratorC.area2switch1.eth[0].mac txPausePkUnits:count 0
scalar ConfiguratorC.area2switch1.eth[0].mac txPausePkUnits:sum 0
scalar ConfiguratorC.area2switch1.eth[0].mac rxPkOk:count 0
scalar ConfiguratorC.area2switch1.eth[0].mac rxPkOk:sum(packetBytes) 0
scalar ConfiguratorC.area2switch1.eth[0].mac txPk:count 0
scalar ConfiguratorC.area2switch1.eth[0].mac txPk:sum(packetBytes) 0
scalar ConfiguratorC.area2switch1.eth[0].mac packetReceivedFromUpper:count 0
scalar ConfiguratorC.area2switch1.eth[0].mac packetReceivedFromUpper:sum(packetBytes) 0
scalar ConfiguratorC.area2switch1.eth[0].mac passedUpPk:count 0
scalar ConfiguratorC.area2switch1.eth[0].mac passedUpPk:sum(packetBytes) 0
scalar ConfiguratorC.area2switch1.eth[0].mac packetDropIncorrectlyReceived:count 0
scalar ConfiguratorC.area2switch1.eth[0].mac packetDropIncorrectlyReceived:sum(packetBytes) 0
scalar ConfiguratorC.area2switch1.eth[0].mac packetDropInterfaceDown:count 0
scalar ConfiguratorC.area2switch1.eth[0].mac packetDropInterfaceDown:sum(packetBytes) 0
scalar ConfiguratorC.area2switch1.eth[0].mac packetDropNotAddressedToUs:count 0
scalar ConfiguratorC.area2switch1.eth[0].mac packetDropNotAddressedToUs:sum(packetBytes) 0
scalar ConfiguratorC.area2switch1.eth[0] packetDropInterfaceDown:count 0
scalar ConfiguratorC.area2switch1.eth[0] packetDropInterfaceDown:sum(packetBytes) 0
scalar ConfiguratorC.area2switch1.eth[0] packetDropNoCarrier:count 0
scalar ConfiguratorC.area2switch1.eth[0] packetDropNoCarrier:sum(packetBytes) 0
scalar ConfiguratorC.area2switch1.eth[1].queue queueLength:last 0
scalar ConfiguratorC.area2switch1.eth[1].queue queueLength:max 0
scalar ConfiguratorC.area2switch1.eth[1].queue queueLength:timeavg 0
scalar ConfiguratorC.area2switch1.eth[1].queue queueBitLength:last 0
scalar ConfiguratorC.area2switch1.eth[1].queue queueBitLength:max 0
scalar ConfiguratorC.area2switch1.eth[1].queue queueBitLength:timeavg 0
scalar ConfiguratorC.area2switch1.eth[1].queue outgoingPackets:count 0
scalar ConfiguratorC.area2switch1.eth[1].queue outgoingPacketLengths:sum 0
scalar ConfiguratorC.area2switch1.eth[1].queue incomingPackets:count 0
scalar ConfiguratorC.area2switch1.eth[1].queue incomingPacketLengths:sum 0
scalar ConfiguratorC.area2switch1.eth[1].queue droppedPacketsQueueOverflow:count 0
scalar ConfiguratorC.area2switch1.eth[1].queue droppedPacketLengthsQueueOverflow:sum 0
scalar ConfiguratorC.area2switch1.eth[1].mac "simulated time" 100
scalar ConfiguratorC.area2switch1.eth[1].mac full-duplex 1
scalar ConfiguratorC.area2switch1.eth[1].mac "frames/sec sent" 0
scalar ConfiguratorC.area2switch1.eth[1].mac "frames/sec rcvd" 0
scalar ConfiguratorC.area2switch1.eth[1].mac "bits/sec sent" 0
scalar ConfiguratorC.area2switch1.eth[1].mac "bits/sec rcvd" 0
scalar ConfiguratorC.area2switch1.eth[1].mac "rx channel idle (%)" 100
scalar ConfiguratorC.area2switch1.eth[1].mac "rx channel utilization (%)" 0
scalar ConfiguratorC.area2switch1.eth[1].mac rxPausePkUnits:count 0
scalar ConfiguratorC.area2switch1.eth[1].mac rxPausePkUnits:sum 0
scalar ConfiguratorC.area2switch1.eth[1].mac txPausePkUnits:count 0
scalar ConfiguratorC.area2switch1.eth[1].mac txPausePkUnits:sum 0
scalar ConfiguratorC.area2switch1.eth[1].mac rxPkOk:count 0
scalar ConfiguratorC.area2switch1.eth[1].mac rxPkOk:sum(packetBytes) 0
scalar ConfiguratorC.area2switch1.eth[1].mac txPk:count 0
scalar ConfiguratorC.area2switch1.eth[1].mac txPk:sum(packetBytes) 0
scalar ConfiguratorC.area2switch1.eth[1].mac packetReceivedFromUpper:count 0
scalar ConfiguratorC.area2switch1.eth[1].mac packetReceivedFromUpper:sum(packetBytes) 0
scalar ConfiguratorC.area2switch1.eth[1].mac passedUpPk:count 0
scalar ConfiguratorC.area2switch1.eth[1].mac passedUpPk:sum(packetBytes) 0
scalar ConfiguratorC.area2switch1.eth[1].mac packetDropIncorrectlyReceived:count 0
scalar ConfiguratorC.area2switch1.eth[1].mac packetDropIncorrectlyReceived:sum(packetBytes) 0
scalar ConfiguratorC.area2switch1.eth[1].mac packetDropInterfaceDown:count 0
scalar ConfiguratorC.area2switch1.eth[1].mac packetDropInterfaceDown:sum(packetBytes) 0
scalar ConfiguratorC.area2switch1.eth[1].mac packetDropNotAddressedToUs:count 0
scalar ConfiguratorC.area2switch1.eth[1].mac packetDropNotAddressedToUs:sum(packetBytes) 0
scalar ConfiguratorC.area2switch1.eth[1] packetDropInterfaceDown:count 0
scalar ConfiguratorC.area2switch1.eth[1] packetDropInterfaceDown:sum(packetBytes) 0
scalar ConfiguratorC.area2switch1.eth[1] packetDropNoCarrier:count 0
scalar ConfiguratorC.area2switch1.eth[1] packetDropNoCarrier:sum(packetBytes) 0
scalar ConfiguratorC.area2switch1.eth[2].queue queueLength:last 0
scalar ConfiguratorC.area2switch1.eth[2].queue queueLength:max 0
scalar ConfiguratorC.area2switch1.eth[2].queue queueLength:timeavg 0
scalar ConfiguratorC.area2switch1.eth[2].queue queueBitLength:last 0
scalar ConfiguratorC.area2switch1.eth[2].queue queueBitLength:max 0
scalar ConfiguratorC.area2switch1.eth[2].queue queueBitLength:timeavg 0
scalar ConfiguratorC.area2switch1.eth[2].queue outgoingPackets:count 0
scalar ConfiguratorC.area2switch1.eth[2].queue outgoingPacketLengths:sum 0
scalar ConfiguratorC.area2switch1.eth[2].queue incomingPackets:count 0
scalar ConfiguratorC.area2switch1.eth[2].queue incomingPacketLengths:sum 0
scalar ConfiguratorC.area2switch1.eth[2].queue droppedPacketsQueueOverflow:count 0
scalar ConfiguratorC.area2switch1.eth[2].queue droppedPacketLengthsQueueOverflow:sum 0
scalar ConfiguratorC.area2switch1.eth[2].mac "simulated time" 100
scalar ConfiguratorC.area2switch1.eth[2].mac full-duplex 1
scalar ConfiguratorC.area2switch1.eth[2].mac "frames/sec sent" 0
scalar ConfiguratorC.area2switch1.eth[2].mac "frames/sec rcvd" 0
scalar ConfiguratorC.area2switch1.eth[2].mac "bits/sec sent" 0
scalar ConfiguratorC.area2switch1.eth[2].mac "bits/sec rcvd" 0
scalar ConfiguratorC.area2switch1.eth[2].mac "rx channel idle (%)" 100
scalar ConfiguratorC.area2switch1.eth[2].mac "rx channel utilization (%)" 0
scalar ConfiguratorC.area2switch1.eth[2].mac rxPausePkUnits:count 0
scalar ConfiguratorC.area2switch1.eth[2].mac rxPausePkUnits:sum 0
scalar ConfiguratorC.area2switch1.eth[2].mac txPausePkUnits:count 0
scalar ConfiguratorC.area2switch1.eth[2].mac txPausePkUnits:sum 0
scalar ConfiguratorC.area2switch1.eth[2].mac rxPkOk:count 0
scalar ConfiguratorC.area2switch1.eth[2].mac rxPkOk:sum(packetBytes) 0
scalar ConfiguratorC.area2switch1.eth[2].mac txPk:count 0
scalar ConfiguratorC.area2switch1.eth[2].mac txPk:sum(packetBytes) 0
scalar ConfiguratorC.area2switch1.eth[2].mac packetReceivedFromUpper:count 0
scalar ConfiguratorC.area2switch1.eth[2].mac packetReceivedFromUpper:sum(packetBytes) 0
scalar ConfiguratorC.area2switch1.eth[2].mac passedUpPk:count 0
scalar ConfiguratorC.area2switch1.eth[2].mac passedUpPk:sum(packetBytes) 0
scalar ConfiguratorC.area2switch1.eth[2].mac packetDropIncorrectlyReceived:count 0
scalar ConfiguratorC.area2switch1.eth[2].mac packetDropIncorrectlyReceived:sum(packetBytes) 0
scalar ConfiguratorC.area2switch1.eth[2].mac packetDropInterfaceDown:count 0
scalar ConfiguratorC.area2switch1.eth[2].mac packetDropInterfaceDown:sum(packetBytes) 0
scalar ConfiguratorC.area2switch1.eth[2].mac packetDropNotAddressedToUs:count 0
scalar ConfiguratorC.area2switch1.eth[2].mac packetDropNotAddressedToUs:sum(packetBytes) 0
scalar ConfiguratorC.area2switch1.eth[2] packetDropInterfaceDown:count 0
scalar ConfiguratorC.area2switch1.eth[2] packetDropInterfaceDown:sum(packetBytes) 0
scalar ConfiguratorC.area2switch1.eth[2] packetDropNoCarrier:count 0
scalar ConfiguratorC.area2switch1.eth[2] packetDropNoCarrier:sum(packetBytes) 0
scalar ConfiguratorC.area2switch1.eth[3].queue queueLength:last 0
scalar ConfiguratorC.area2switch1.eth[3].queue queueLength:max 0
scalar ConfiguratorC.area2switch1.eth[3].queue queueLength:timeavg 0
scalar ConfiguratorC.area2switch1.eth[3].queue queueBitLength:last 0
scalar ConfiguratorC.area2switch1.eth[3].queue queueBitLength:max 0
scalar ConfiguratorC.area2switch1.eth[3].queue queueBitLength:timeavg 0
scalar ConfiguratorC.area2switch1.eth[3].queue outgoingPackets:count 0
scalar ConfiguratorC.area2switch1.eth[3].queue outgoingPacketLengths:sum 0
scalar ConfiguratorC.area2switch1.eth[3].queue incomingPackets:count 0
scalar ConfiguratorC.area2switch1.eth[3].queue incomingPacketLengths:sum 0
scalar ConfiguratorC.area2switch1.eth[3].queue droppedPacketsQueueOverflow:count 0
scalar ConfiguratorC.area2switch1.eth[3].queue droppedPacketLengthsQueueOverflow:sum 0
scalar ConfiguratorC.area2switch1.eth[3].mac "simulated time" 100
scalar ConfiguratorC.area2switch1.eth[3].mac full-duplex 1
scalar ConfiguratorC.area2switch1.eth[3].mac "frames/sec sent" 0
scalar ConfiguratorC.area2switch1.eth[3].mac "frames/sec rcvd" 0
scalar ConfiguratorC.area2switch1.eth[3].mac "bits/sec sent" 0
scalar ConfiguratorC.area2switch1.eth[3].mac "bits/sec rcvd" 0
scalar ConfiguratorC.area2switch1.eth[3].mac "rx channel idle (%)" 100
scalar ConfiguratorC.area2switch1.eth[3].mac "rx channel utilization (%)" 0
scalar ConfiguratorC.area2switch1.eth[3].mac rxPausePkUnits:count 0
scalar ConfiguratorC.area2switch1.eth[3].mac rxPausePkUnits:sum 0
scalar ConfiguratorC.area2switch1.eth[3].mac txPausePkUnits:count 0
scalar ConfiguratorC.area2switch1.eth[3].mac txPausePkUnits:sum 0
scalar ConfiguratorC.area2switch1.eth[3].mac rxPkOk:count 0
scalar ConfiguratorC.area2switch1.eth[3].mac rxPkOk:sum(packetBytes) 0
scalar ConfiguratorC.area2switch1.eth[3].mac txPk:count 0
scalar ConfiguratorC.area2switch1.eth[3].mac txPk:sum(packetBytes) 0
scalar ConfiguratorC.area2switch1.eth[3].mac packetReceivedFromUpper:count 0
scalar ConfiguratorC.area2switch1.eth[3].mac packetReceivedFromUpper:sum(packetBytes) 0
scalar ConfiguratorC.area2switch1.eth[3].mac passedUpPk:count 0
scalar ConfiguratorC.area2switch1.eth[3].mac passedUpPk:sum(packetBytes) 0
scalar ConfiguratorC.area2switch1.eth[3].mac packetDropIncorrectlyReceived:count 0
scalar ConfiguratorC.area2switch1.eth[3].mac packetDropIncorrectlyReceived:sum(packetBytes) 0
scalar ConfiguratorC.area2switch1.eth[3].mac packetDropInterfaceDown:count 0
scalar ConfiguratorC.area2switch1.eth[3].mac packetDropInterfaceDown:sum(packetBytes) 0
scalar ConfiguratorC.area2switch1.eth[3].mac packetDropNotAddressedToUs:count 0
scalar ConfiguratorC.area2switch1.eth[3].mac packetDropNotAddressedToUs:sum(packetBytes) 0
scalar ConfiguratorC.area2switch1.eth[3] packetDropInterfaceDown:count 0
scalar ConfiguratorC.area2switch1.eth[3] packetDropInterfaceDown:sum(packetBytes) 0
scalar ConfiguratorC.area2switch1.eth[3] packetDropNoCarrier:count 0
scalar ConfiguratorC.area2switch1.eth[3] packetDropNoCarrier:sum(packetBytes) 0
scalar ConfiguratorC.area3lan1host1.ethernet pauseSent:count 0
scalar ConfiguratorC.area3lan1host1.ethernet pauseSent:sum 0
scalar ConfiguratorC.area3lan1host1.ethernet decapPk:count 0
scalar ConfiguratorC.area3lan1host1.ethernet decapPk:sum(packetBytes) 0
scalar ConfiguratorC.area3lan1host1.ethernet encapPk:count 0
scalar ConfiguratorC.area3lan1host1.ethernet encapPk:sum(packetBytes) 0
scalar ConfiguratorC.area3lan1host1.lo[0].lo rcvdPkFromHl:count 0
scalar ConfiguratorC.area3lan1host1.lo[0].lo rcvdPkFromHl:sum(packetBytes) 0
scalar ConfiguratorC.area3lan1host1.lo[0].lo passedUpPk:count 0
scalar ConfiguratorC.area3lan1host1.lo[0].lo passedUpPk:sum(packetBytes) 0
scalar ConfiguratorC.area3lan1host1.lo[0] packetDropInterfaceDown:count 0
scalar ConfiguratorC.area3lan1host1.lo[0] packetDropInterfaceDown:sum(packetBytes) 0
scalar ConfiguratorC.area3lan1host1.lo[0] packetDropNoCarrier:count 0
scalar ConfiguratorC.area3lan1host1.lo[0] packetDropNoCarrier:sum(packetBytes) 0
scalar ConfiguratorC.area3lan1host1.eth[0].queue queueLength:last 0
scalar ConfiguratorC.area3lan1host1.eth[0].queue queueLength:max 0
scalar ConfiguratorC.area3lan1host1.eth[0].queue queueLength:timeavg 0
scalar ConfiguratorC.area3lan1host1.eth[0].queue queueBitLength:last 0
scalar ConfiguratorC.area3lan1host1.eth[0].queue queueBitLength:max 0
scalar ConfiguratorC.area3lan1host1.eth[0].queue queueBitLength:timeavg 0
scalar ConfiguratorC.area3lan1host1.eth[0].queue outgoingPackets:count 0
scalar ConfiguratorC.area3lan1host1.eth[0].queue outgoingPacketLengths:sum 0
scalar ConfiguratorC.area3lan1host1.eth[0].queue incomingPackets:count 0
scalar ConfiguratorC.area3lan1host1.eth[0].queue incomingPacketLengths:sum 0
scalar ConfiguratorC.area3lan1host1.eth[0].queue droppedPacketsQueueOverflow:count 0
scalar ConfiguratorC.area3lan1host1.eth[0].queue droppedPacketLengthsQueueOverflow:sum 0
scalar ConfiguratorC.area3lan1host1.eth[0].mac "simulated time" 100
scalar ConfiguratorC.area3lan1host1.eth[0].mac full-duplex 1
scalar ConfiguratorC.area3lan1host1.eth[0].mac "frames/sec sent" 0
scalar ConfiguratorC.area3lan1host1.eth[0].mac "frames/sec rcvd" 0
scalar ConfiguratorC.area3lan1host1.eth[0].mac "bits/sec sent" 0
scalar ConfiguratorC.area3lan1host1.eth[0].mac "bits/sec rcvd" 0
scalar ConfiguratorC.area3lan1host1.eth[0].mac "rx channel idle (%)" 100
scalar ConfiguratorC.area3lan1host1.eth[0].mac "rx channel utilization (%)" 0
scalar ConfiguratorC.area3lan1host1.eth[0].mac rxPausePkUnits:count 0
scalar ConfiguratorC.area3lan1host1.eth[0].mac rxPausePkUnits:sum 0
scalar ConfiguratorC.area3lan1host1.eth[0].mac txPausePkUnits:count 0
scalar ConfiguratorC.area3lan1host1.eth[0].mac txPausePkUnits:sum 0
scalar ConfiguratorC.area3lan1host1.eth[0].mac rxPkOk:count 0
scalar ConfiguratorC.area3lan1host1.eth[0].mac rxPkOk:sum(packetBytes) 0
scalar ConfiguratorC.area3lan1host1.eth[0].mac txPk:count 0
scalar ConfiguratorC.area3lan1host1.eth[0].mac txPk:sum(packetBytes) 0
scalar ConfiguratorC.area3lan1host1.eth[0].mac packetReceivedFromUpper:count 0
scalar ConfiguratorC.area3lan1host1.eth[0].mac packetReceivedFromUpper:sum(packetBytes) 0
scalar ConfiguratorC.area3lan1host1.eth[0].mac passedUpPk:count 0
scalar ConfiguratorC.area3lan1host1.eth[0].mac passedUpPk:sum(packetBytes) 0
scalar ConfiguratorC.area3lan1host1.eth[0].mac packetDropIncorrectlyReceived:count 0
scalar ConfiguratorC.area3lan1host1.eth[0].mac packetDropIncorrectlyReceived:sum(packetBytes) 0
scalar ConfiguratorC.area3lan1host1.eth[0].mac packetDropInterfaceDown:count 0
scalar ConfiguratorC.area3lan1host1.eth[0].mac packetDropInterfaceDown:sum(packetBytes) 0
scalar ConfiguratorC.area3lan1host1.eth[0].mac packetDropNotAddressedToUs:count 0
scalar ConfiguratorC.area3lan1host1.eth[0].mac packetDropNotAddressedToUs:sum(packetBytes) 0
scalar ConfiguratorC.area3lan1host1.eth[0] packetDropInterfaceDown:count 0
scalar ConfiguratorC.area3lan1host1.eth[0] packetDropInterfaceDown:sum(packetBytes) 0
scalar ConfiguratorC.area3lan1host1.eth[0] packetDropNoCarrier:count 0
scalar ConfiguratorC.area3lan1host1.eth[0] packetDropNoCarrier:sum(packetBytes) 0
scalar ConfiguratorC.area3lan1host1.ipv4.ip packetDropAddressResolutionFailed:count 0
scalar ConfiguratorC.area3lan1host1.ipv4.ip packetDropAddressResolutionFailed:sum(packetBytes) 0
scalar ConfiguratorC.area3lan1host1.ipv4.ip packetDropHopLimitReached:count 0
scalar ConfiguratorC.area3lan1host1.ipv4.ip packetDropHopLimitReached:sum(packetBytes) 0
scalar ConfiguratorC.area3lan1host1.ipv4.ip packetDropForwardingDisabled:count 0
scalar ConfiguratorC.area3lan1host1.ipv4.ip packetDropForwardingDisabled:sum(packetBytes) 0
scalar ConfiguratorC.area3lan1host1.ipv4.ip packetDropLifetimeExpired:count 0
scalar ConfiguratorC.area3lan1host1.ipv4.ip packetDropLifetimeExpired:sum(packetBytes) 0
scalar ConfiguratorC.area3lan1host1.ipv4.ip packetDropNoInterfaceFound:count 0
scalar ConfiguratorC.area3lan1host1.ipv4.ip packetDropNoInterfaceFound:sum(packetBytes) 0
scalar ConfiguratorC.area3lan1host1.ipv4.ip packetDropNoRouteFound:count 0
scalar ConfiguratorC.area3lan1host1.ipv4.ip packetDropNoRouteFound:sum(packetBytes) 0
scalar ConfiguratorC.area3lan1host1.ipv4.ip packetDropUndefined:count 0
scalar ConfiguratorC.area3lan1host1.ipv4.ip packetDropUndefined:sum(packetBytes) 0
scalar ConfiguratorC.area3lan1host1.udp packetReceived:count 0
scalar ConfiguratorC.area3lan1host1.udp packetReceived:sum(packetBytes) 0
scalar ConfiguratorC.area3lan1host1.udp packetSent:count 0
scalar ConfiguratorC.area3lan1host1.udp packetSent:sum(packetBytes) 0
scalar ConfiguratorC.area3lan1host1.udp passedUpPk:count 0
scalar ConfiguratorC.area3lan1host1.udp droppedPkWrongPort:count 0
scalar ConfiguratorC.area3lan1host1.udp droppedPkBadChecksum:count 0
scalar ConfiguratorC.area3lan1host2.ethernet pauseSent:count 0
scalar ConfiguratorC.area3lan1host2.ethernet pauseSent:sum 0
scalar ConfiguratorC.area3lan1host2.ethernet decapPk:count 0
scalar ConfiguratorC.area3lan1host2.ethernet decapPk:sum(packetBytes) 0
scalar ConfiguratorC.area3lan1host2.ethernet encapPk:count 0
scalar ConfiguratorC.area3lan1host2.ethernet encapPk:sum(packetBytes) 0
scalar ConfiguratorC.area3lan1host2.lo[0].lo rcvdPkFromHl:count 0
scalar ConfiguratorC.area3lan1host2.lo[0].lo rcvdPkFromHl:sum(packetBytes) 0
scalar ConfiguratorC.area3lan1host2.lo[0].lo passedUpPk:count 0
scalar ConfiguratorC.area3lan1host2.lo[0].lo passedUpPk:sum(packetBytes) 0
scalar ConfiguratorC.area3lan1host2.lo[0] packetDropInterfaceDown:count 0
scalar ConfiguratorC.area3lan1host2.lo[0] packetDropInterfaceDown:sum(packetBytes) 0
scalar ConfiguratorC.area3lan1host2.lo[0] packetDropNoCarrier:count 0
scalar ConfiguratorC.area3lan1host2.lo[0] packetDropNoCarrier:sum(packetBytes) 0
scalar ConfiguratorC.area3lan1host2.eth[0].queue queueLength:last 0
scalar ConfiguratorC.area3lan1host2.eth[0].queue queueLength:max 0
scalar ConfiguratorC.area3lan1host2.eth[0].queue queueLength:timeavg 0
scalar ConfiguratorC.area3lan1host2.eth[0].queue queueBitLength:last 0
scalar ConfiguratorC.area3lan1host2.eth[0].queue queueBitLength:max 0
scalar ConfiguratorC.area3lan1host2.eth[0].queue queueBitLength:timeavg 0
scalar ConfiguratorC.area3lan1host2.eth[0].queue outgoingPackets:count 0
scalar ConfiguratorC.area3lan1host2.eth[0].queue outgoingPacketLengths:sum 0
scalar ConfiguratorC.area3lan1host2.eth[0].queue incomingPackets:count 0
scalar ConfiguratorC.area3lan1host2.eth[0].queue incomingPacketLengths:sum 0
scalar ConfiguratorC.area3lan1host2.eth[0].queue droppedPacketsQueueOverflow:count 0
scalar ConfiguratorC.area3lan1host2.eth[0].queue droppedPacketLengthsQueueOverflow:sum 0
scalar ConfiguratorC.area3lan1host2.eth[0].mac "simulated time" 100
scalar ConfiguratorC.area3lan1host2.eth[0].mac full-duplex 1
scalar ConfiguratorC.area3lan1host2.eth[0].mac "frames/sec sent" 0
scalar ConfiguratorC.area3lan1host2.eth[0].mac "frames/sec rcvd" 0
scalar ConfiguratorC.area3lan1host2.eth[0].mac "bits/sec sent" 0
scalar ConfiguratorC.area3lan1host2.eth[0].mac "bits/sec rcvd" 0
scalar ConfiguratorC.area3lan1host2.eth[0].mac "rx channel idle (%)" 100
scalar ConfiguratorC.area3lan1host2.eth[0].mac "rx channel utilization (%)" 0
scalar ConfiguratorC.area3lan1host2.eth[0].mac rxPausePkUnits:count 0
scalar ConfiguratorC.area3lan1host2.eth[0].mac rxPausePkUnits:sum 0
scalar ConfiguratorC.area3lan1host2.eth[0].mac txPausePkUnits:count 0
scalar ConfiguratorC.area3lan1host2.eth[0].mac txPausePkUnits:sum 0
scalar ConfiguratorC.area3lan1host2.eth[0].mac rxPkOk:count 0
scalar ConfiguratorC.area3lan1host2.eth[0].mac rxPkOk:sum(packetBytes) 0
scalar ConfiguratorC.area3lan1host2.eth[0].mac txPk:count 0
scalar ConfiguratorC.area3lan1host2.eth[0].mac txPk:sum(packetBytes) 0
scalar ConfiguratorC.area3lan1host2.eth[0].mac packetReceivedFromUpper:count 0
scalar ConfiguratorC.area3lan1host2.eth[0].mac packetReceivedFromUpper:sum(packetBytes) 0
scalar ConfiguratorC.area3lan1host2.eth[0].mac passedUpPk:count 0
scalar ConfiguratorC.area3lan1host2.eth[0].mac passedUpPk:sum(packetBytes) 0
scalar ConfiguratorC.area3lan1host2.eth[0].mac packetDropIncorrectlyReceived:count 0
scalar ConfiguratorC.area3lan1host2.eth[0].mac packetDropIncorrectlyReceived:sum(packetBytes) 0
scalar ConfiguratorC.area3lan1host2.eth[0].mac packetDropInterfaceDown:count 0
scalar ConfiguratorC.area3lan1host2.eth[0].mac packetDropInterfaceDown:sum(packetBytes) 0
scalar ConfiguratorC.area3lan1host2.eth[0].mac packetDropNotAddressedToUs:count 0
scalar ConfiguratorC.area3lan1host2.eth[0].mac packetDropNotAddressedToUs:sum(packetBytes) 0
scalar ConfiguratorC.area3lan1host2.eth[0] packetDropInterfaceDown:count 0
scalar ConfiguratorC.area3lan1host2.eth[0] packetDropInterfaceDown:sum(packetBytes) 0
scalar ConfiguratorC.area3lan1host2.eth[0] packetDropNoCarrier:count 0
scalar ConfiguratorC.area3lan1host2.eth[0] packetDropNoCarrier:sum(packetBytes) 0
scalar ConfiguratorC.area3lan1host2.ipv4.ip packetDropAddressResolutionFailed:count 0
scalar ConfiguratorC.area3lan1host2.ipv4.ip packetDropAddressResolutionFailed:sum(packetBytes) 0
scalar ConfiguratorC.area3lan1host2.ipv4.ip packetDropHopLimitReached:count 0
scalar ConfiguratorC.area3lan1host2.ipv4.ip packetDropHopLimitReached:sum(packetBytes) 0
scalar ConfiguratorC.area3lan1host2.ipv4.ip packetDropForwardingDisabled:count 0
scalar ConfiguratorC.area3lan1host2.ipv4.ip packetDropForwardingDisabled:sum(packetBytes) 0
scalar ConfiguratorC.area3lan1host2.ipv4.ip packetDropLifetimeExpired:count 0
scalar ConfiguratorC.area3lan1host2.ipv4.ip packetDropLifetimeExpired:sum(packetBytes) 0
scalar ConfiguratorC.area3lan1host2.ipv4.ip packetDropNoInterfaceFound:count 0
scalar ConfiguratorC.area3lan1host2.ipv4.ip packetDropNoInterfaceFound:sum(packetBytes) 0
scalar ConfiguratorC.area3lan1host2.ipv4.ip packetDropNoRouteFound:count 0
scalar ConfiguratorC.area3lan1host2.ipv4.ip packetDropNoRouteFound:sum(packetBytes) 0
scalar ConfiguratorC.area3lan1host2.ipv4.ip packetDropUndefined:count 0
scalar ConfiguratorC.area3lan1host2.ipv4.ip packetDropUndefined:sum(packetBytes) 0
scalar ConfiguratorC.area3lan1host2.udp packetReceived:count 0
scalar ConfiguratorC.area3lan1host2.udp packetReceived:sum(packetBytes) 0
scalar ConfiguratorC.area3lan1host2.udp packetSent:count 0
scalar ConfiguratorC.area3lan1host2.udp packetSent:sum(packetBytes) 0
scalar ConfiguratorC.area3lan1host2.udp passedUpPk:count 0
scalar ConfiguratorC.area3lan1host2.udp droppedPkWrongPort:count 0
scalar ConfiguratorC.area3lan1host2.udp droppedPkBadChecksum:count 0
scalar ConfiguratorC.area3lan1host3.ethernet pauseSent:count 0
scalar ConfiguratorC.area3lan1host3.ethernet pauseSent:sum 0
scalar ConfiguratorC.area3lan1host3.ethernet decapPk:count 0
scalar ConfiguratorC.area3lan1host3.ethernet decapPk:sum(packetBytes) 0
scalar ConfiguratorC.area3lan1host3.ethernet encapPk:count 0
scalar ConfiguratorC.area3lan1host3.ethernet encapPk:sum(packetBytes) 0
scalar ConfiguratorC.area3lan1host3.lo[0].lo rcvdPkFromHl:count 0
scalar ConfiguratorC.area3lan1host3.lo[0].lo rcvdPkFromHl:sum(packetBytes) 0
scalar ConfiguratorC.area3lan1host3.lo[0].lo passedUpPk:count 0
scalar ConfiguratorC.area3lan1host3.lo[0].lo passedUpPk:sum(packetBytes) 0
scalar ConfiguratorC.area3lan1host3.lo[0] packetDropInterfaceDown:count 0
scalar ConfiguratorC.area3lan1host3.lo[0] packetDropInterfaceDown:sum(packetBytes) 0
scalar ConfiguratorC.area3lan1host3.lo[0] packetDropNoCarrier:count 0
scalar ConfiguratorC.area3lan1host3.lo[0] packetDropNoCarrier:sum(packetBytes) 0
scalar ConfiguratorC.area3lan1host3.eth[0].queue queueLength:last 0
scalar ConfiguratorC.area3lan1host3.eth[0].queue queueLength:max 0
scalar ConfiguratorC.area3lan1host3.eth[0].queue queueLength:timeavg 0
scalar ConfiguratorC.area3lan1host3.eth[0].queue queueBitLength:last 0
scalar ConfiguratorC.area3lan1host3.eth[0].queue queueBitLength:max 0
scalar ConfiguratorC.area3lan1host3.eth[0].queue queueBitLength:timeavg 0
scalar ConfiguratorC.area3lan1host3.eth[0].queue outgoingPackets:count 0
scalar ConfiguratorC.area3lan1host3.eth[0].queue outgoingPacketLengths:sum 0
scalar ConfiguratorC.area3lan1host3.eth[0].queue incomingPackets:count 0
scalar ConfiguratorC.area3lan1host3.eth[0].queue incomingPacketLengths:sum 0
scalar ConfiguratorC.area3lan1host3.eth[0].queue droppedPacketsQueueOverflow:count 0
scalar ConfiguratorC.area3lan1host3.eth[0].queue droppedPacketLengthsQueueOverflow:sum 0
scalar ConfiguratorC.area3lan1host3.eth[0].mac "simulated time" 100
scalar ConfiguratorC.area3lan1host3.eth[0].mac full-duplex 1
scalar ConfiguratorC.area3lan1host3.eth[0].mac "frames/sec sent" 0
scalar ConfiguratorC.area3lan1host3.eth[0].mac "frames/sec rcvd" 0
scalar ConfiguratorC.area3lan1host3.eth[0].mac "bits/sec sent" 0
scalar ConfiguratorC.area3lan1host3.eth[0].mac "bits/sec rcvd" 0
scalar ConfiguratorC.area3lan1host3.eth[0].mac "rx channel idle (%)" 100
scalar ConfiguratorC.area3lan1host3.eth[0].mac "rx channel utilization (%)" 0
scalar ConfiguratorC.area3lan1host3.eth[0].mac rxPausePkUnits:count 0
scalar ConfiguratorC.area3lan1host3.eth[0].mac rxPausePkUnits:sum 0
scalar ConfiguratorC.area3lan1host3.eth[0].mac txPausePkUnits:count 0
scalar ConfiguratorC.area3lan1host3.eth[0].mac txPausePkUnits:sum 0
scalar ConfiguratorC.area3lan1host3.eth[0].mac rxPkOk:count 0
scalar ConfiguratorC.area3lan1host3.eth[0].mac rxPkOk:sum(packetBytes) 0
scalar ConfiguratorC.area3lan1host3.eth[0].mac txPk:count 0
scalar ConfiguratorC.area3lan1host3.eth[0].mac txPk:sum(packetBytes) 0
scalar ConfiguratorC.area3lan1host3.eth[0].mac packetReceivedFromUpper:count 0
scalar ConfiguratorC.area3lan1host3.eth[0].mac packetReceivedFromUpper:sum(packetBytes) 0
scalar ConfiguratorC.area3lan1host3.eth[0].mac passedUpPk:count 0
scalar ConfiguratorC.area3lan1host3.eth[0].mac passedUpPk:sum(packetBytes) 0
scalar ConfiguratorC.area3lan1host3.eth[0].mac packetDropIncorrectlyReceived:count 0
scalar ConfiguratorC.area3lan1host3.eth[0].mac packetDropIncorrectlyReceived:sum(packetBytes) 0
scalar ConfiguratorC.area3lan1host3.eth[0].mac packetDropInterfaceDown:count 0
scalar ConfiguratorC.area3lan1host3.eth[0].mac packetDropInterfaceDown:sum(packetBytes) 0
scalar ConfiguratorC.area3lan1host3.eth[0].mac packetDropNotAddressedToUs:count 0
scalar ConfiguratorC.area3lan1host3.eth[0].mac packetDropNotAddressedToUs:sum(packetBytes) 0
scalar ConfiguratorC.area3lan1host3.eth[0] packetDropInterfaceDown:count 0
scalar ConfiguratorC.area3lan1host3.eth[0] packetDropInterfaceDown:sum(packetBytes) 0
scalar ConfiguratorC.area3lan1host3.eth[0] packetDropNoCarrier:count 0
scalar ConfiguratorC.area3lan1host3.eth[0] packetDropNoCarrier:sum(packetBytes) 0
scalar ConfiguratorC.area3lan1host3.ipv4.ip packetDropAddressResolutionFailed:count 0
scalar ConfiguratorC.area3lan1host3.ipv4.ip packetDropAddressResolutionFailed:sum(packetBytes) 0
scalar ConfiguratorC.area3lan1host3.ipv4.ip packetDropHopLimitReached:count 0
scalar ConfiguratorC.area3lan1host3.ipv4.ip packetDropHopLimitReached:sum(packetBytes) 0
scalar ConfiguratorC.area3lan1host3.ipv4.ip packetDropForwardingDisabled:count 0
scalar ConfiguratorC.area3lan1host3.ipv4.ip packetDropForwardingDisabled:sum(packetBytes) 0
scalar ConfiguratorC.area3lan1host3.ipv4.ip packetDropLifetimeExpired:count 0
scalar ConfiguratorC.area3lan1host3.ipv4.ip packetDropLifetimeExpired:sum(packetBytes) 0
scalar ConfiguratorC.area3lan1host3.ipv4.ip packetDropNoInterfaceFound:count 0
scalar ConfiguratorC.area3lan1host3.ipv4.ip packetDropNoInterfaceFound:sum(packetBytes) 0
scalar ConfiguratorC.area3lan1host3.ipv4.ip packetDropNoRouteFound:count 0
[...]
scalar ConfiguratorC.area3lan3host3.wlan[0].mac packetDropIncorrectlyReceived:vector(packetBytes):stddev nan
scalar ConfiguratorC.area3lan3host3.wlan[0].mac packetDropIncorrectlyReceived:vector(packetBytes):min inf
scalar ConfiguratorC.area3lan3host3.wlan[0].mac packetDropIncorrectlyReceived:vector(packetBytes):max -inf
scalar ConfiguratorC.area3lan3host3.wlan[0].mac packetDropIncorrectlyReceived:vector(packetBytes):starttime nan
scalar ConfiguratorC.area3lan3host3.wlan[0].mac packetDropIncorrectlyReceived:vector(packetBytes):endtime nan
scalar ConfiguratorC.area3lan3host3.wlan[0].mac packetDropNotAddressedToUs:vector(packetBytes):count 424
scalar ConfiguratorC.area3lan3host3.wlan[0].mac packetDropNotAddressedToUs:vector(packetBytes):sum 27274
scalar ConfiguratorC.area3lan3host3.wlan[0].mac packetDropNotAddressedToUs:vector(packetBytes):sumweights 424
scalar ConfiguratorC.area3lan3host3.wlan[0].mac packetDropNotAddressedToUs:vector(packetBytes):mean 64.325471698113
scalar ConfiguratorC.area3lan3host3.wlan[0].mac packetDropNotAddressedToUs:vector(packetBytes):stddev 52.379527087718
scalar ConfiguratorC.area3lan3host3.wlan[0].mac packetDropNotAddressedToUs:vector(packetBytes):min 14
scalar ConfiguratorC.area3lan3host3.wlan[0].mac packetDropNotAddressedToUs:vector(packetBytes):max 120
scalar ConfiguratorC.area3lan3host3.wlan[0].mac packetDropNotAddressedToUs:vector(packetBytes):starttime 0.12175115659
scalar ConfiguratorC.area3lan3host3.wlan[0].mac packetDropNotAddressedToUs:vector(packetBytes):endtime 99.438540540881
scalar ConfiguratorC.area3lan3host3.wlan[0].mac packetDropQueueOverflow:vector(packetBytes):count 0
scalar ConfiguratorC.area3lan3host3.wlan[0].mac packetDropQueueOverflow:vector(packetBytes):sum 0
scalar ConfiguratorC.area3lan3host3.wlan[0].mac packetDropQueueOverflow:vector(packetBytes):sumweights 0
scalar ConfiguratorC.area3lan3host3.wlan[0].mac packetDropQueueOverflow:vector(packetBytes):mean -nan
scalar ConfiguratorC.area3lan3host3.wlan[0].mac packetDropQueueOverflow:vector(packetBytes):stddev nan
scalar ConfiguratorC.area3lan3host3.wlan[0].mac packetDropQueueOverflow:vector(packetBytes):min inf
scalar ConfiguratorC.area3lan3host3.wlan[0].mac packetDropQueueOverflow:vector(packetBytes):max -inf
scalar ConfiguratorC.area3lan3host3.wlan[0].mac packetDropQueueOverflow:vector(packetBytes):starttime nan
scalar ConfiguratorC.area3lan3host3.wlan[0].mac packetDropQueueOverflow:vector(packetBytes):endtime nan
scalar ConfiguratorC.area3lan3host3.wlan[0].mac packetDropRetryLimitReached:vector(packetBytes):count 0
scalar ConfiguratorC.area3lan3host3.wlan[0].mac packetDropRetryLimitReached:vector(packetBytes):sum 0
scalar ConfiguratorC.area3lan3host3.wlan[0].mac packetDropRetryLimitReached:vector(packetBytes):sumweights 0
scalar ConfiguratorC.area3lan3host3.wlan[0].mac packetDropRetryLimitReached:vector(packetBytes):mean -nan
scalar ConfiguratorC.area3lan3host3.wlan[0].mac packetDropRetryLimitReached:vector(packetBytes):stddev nan
scalar ConfiguratorC.area3lan3host3.wlan[0].mac packetDropRetryLimitReached:vector(packetBytes):min inf
scalar ConfiguratorC.area3lan3host3.wlan[0].mac packetDropRetryLimitReached:vector(packetBytes):max -inf
scalar ConfiguratorC.area3lan3host3.wlan[0].mac packetDropRetryLimitReached:vector(packetBytes):starttime nan
scalar ConfiguratorC.area3lan3host3.wlan[0].mac packetDropRetryLimitReached:vector(packetBytes):endtime nan
scalar ConfiguratorC.area3lan3host3.wlan[0].mac packetDropDuplicateDetected:vector(packetBytes):count 0
scalar ConfiguratorC.area3lan3host3.wlan[0].mac packetDropDuplicateDetected:vector(packetBytes):sum 0
scalar ConfiguratorC.area3lan3host3.wlan[0].mac packetDropDuplicateDetected:vector(packetBytes):sumweights 0
scalar ConfiguratorC.area3lan3host3.wlan[0].mac packetDropDuplicateDetected:vector(packetBytes):mean -nan
scalar ConfiguratorC.area3lan3host3.wlan[0].mac packetDropDuplicateDetected:vector(packetBytes):stddev nan
scalar ConfiguratorC.area3lan3host3.wlan[0].mac packetDropDuplicateDetected:vector(packetBytes):min inf
scalar ConfiguratorC.area3lan3host3.wlan[0].mac packetDropDuplicateDetected:vector(packetBytes):max -inf
scalar ConfiguratorC.area3lan3host3.wlan[0].mac packetDropDuplicateDetected:vector(packetBytes):starttime nan
scalar ConfiguratorC.area3lan3host3.wlan[0].mac packetDropDuplicateDetected:vector(packetBytes):endtime nan
scalar ConfiguratorC.area3lan3host3.wlan[0].mac packetDropOther:vector(packetBytes):count 0
scalar ConfiguratorC.area3lan3host3.wlan[0].mac packetDropOther:vector(packetBytes):sum 0
scalar ConfiguratorC.area3lan3host3.wlan[0].mac packetDropOther:vector(packetBytes):sumweights 0
scalar ConfiguratorC.area3lan3host3.wlan[0].mac packetDropOther:vector(packetBytes):mean -nan
scalar ConfiguratorC.area3lan3host3.wlan[0].mac packetDropOther:vector(packetBytes):stddev nan
scalar ConfiguratorC.area3lan3host3.wlan[0].mac packetDropOther:vector(packetBytes):min inf
scalar ConfiguratorC.area3lan3host3.wlan[0].mac packetDropOther:vector(packetBytes):max -inf
scalar ConfiguratorC.area3lan3host3.wlan[0].mac packetDropOther:vector(packetBytes):starttime nan
scalar ConfiguratorC.area3lan3host3.wlan[0].mac packetDropOther:vector(packetBytes):endtime nan
scalar ConfiguratorC.area3lan3host3.wlan[0].radio radioMode:vector:count 19
scalar ConfiguratorC.area3lan3host3.wlan[0].radio radioMode:vector:sum 42
scalar ConfiguratorC.area3lan3host3.wlan[0].radio radioMode:vector:sumweights 19
scalar ConfiguratorC.area3lan3host3.wlan[0].radio radioMode:vector:mean 2.2105263157895
scalar ConfiguratorC.area3lan3host3.wlan[0].radio radioMode:vector:stddev 0.91766293548225
scalar ConfiguratorC.area3lan3host3.wlan[0].radio radioMode:vector:min 0
scalar ConfiguratorC.area3lan3host3.wlan[0].radio radioMode:vector:max 3
scalar ConfiguratorC.area3lan3host3.wlan[0].radio radioMode:vector:starttime 0
scalar ConfiguratorC.area3lan3host3.wlan[0].radio radioMode:vector:endtime 0.429110243966
scalar ConfiguratorC.area3lan3host3.wlan[0].radio receptionState:vector:count 2883
scalar ConfiguratorC.area3lan3host3.wlan[0].radio receptionState:vector:sum 5741
scalar ConfiguratorC.area3lan3host3.wlan[0].radio receptionState:vector:sumweights 2883
scalar ConfiguratorC.area3lan3host3.wlan[0].radio receptionState:vector:mean 1.9913284772806
scalar ConfiguratorC.area3lan3host3.wlan[0].radio receptionState:vector:stddev 1.0042904511035
scalar ConfiguratorC.area3lan3host3.wlan[0].radio receptionState:vector:min 0
scalar ConfiguratorC.area3lan3host3.wlan[0].radio receptionState:vector:max 3
scalar ConfiguratorC.area3lan3host3.wlan[0].radio receptionState:vector:starttime 0
scalar ConfiguratorC.area3lan3host3.wlan[0].radio receptionState:vector:endtime 99.902068749058
scalar ConfiguratorC.area3lan3host3.wlan[0].radio transmissionState:vector:count 32
scalar ConfiguratorC.area3lan3host3.wlan[0].radio transmissionState:vector:sum 32
scalar ConfiguratorC.area3lan3host3.wlan[0].radio transmissionState:vector:sumweights 32
scalar ConfiguratorC.area3lan3host3.wlan[0].radio transmissionState:vector:mean 1
scalar ConfiguratorC.area3lan3host3.wlan[0].radio transmissionState:vector:stddev 0.7184212081071
scalar ConfiguratorC.area3lan3host3.wlan[0].radio transmissionState:vector:min 0
scalar ConfiguratorC.area3lan3host3.wlan[0].radio transmissionState:vector:max 2
scalar ConfiguratorC.area3lan3host3.wlan[0].radio transmissionState:vector:starttime 0.12613878909
scalar ConfiguratorC.area3lan3host3.wlan[0].radio transmissionState:vector:endtime 0.429110243966
scalar ConfiguratorC.area3lan3host3.wlan[0].radio radioChannel:vector:count 4
scalar ConfiguratorC.area3lan3host3.wlan[0].radio radioChannel:vector:sum 0
scalar ConfiguratorC.area3lan3host3.wlan[0].radio radioChannel:vector:sumweights 4
scalar ConfiguratorC.area3lan3host3.wlan[0].radio radioChannel:vector:mean 0
scalar ConfiguratorC.area3lan3host3.wlan[0].radio radioChannel:vector:stddev 0
scalar ConfiguratorC.area3lan3host3.wlan[0].radio radioChannel:vector:min 0
scalar ConfiguratorC.area3lan3host3.wlan[0].radio radioChannel:vector:max 0
scalar ConfiguratorC.area3lan3host3.wlan[0].radio radioChannel:vector:starttime 0
scalar ConfiguratorC.area3lan3host3.wlan[0].radio radioChannel:vector:endtime 0.427772425674
scalar ConfiguratorC.area3lan3host3.wlan[0] packetDropInterfaceDown:vector(packetBytes):count 0
scalar ConfiguratorC.area3lan3host3.wlan[0] packetDropInterfaceDown:vector(packetBytes):sum 0
scalar ConfiguratorC.area3lan3host3.wlan[0] packetDropInterfaceDown:vector(packetBytes):sumweights 0
scalar ConfiguratorC.area3lan3host3.wlan[0] packetDropInterfaceDown:vector(packetBytes):mean -nan
scalar ConfiguratorC.area3lan3host3.wlan[0] packetDropInterfaceDown:vector(packetBytes):stddev nan
scalar ConfiguratorC.area3lan3host3.wlan[0] packetDropInterfaceDown:vector(packetBytes):min inf
scalar ConfiguratorC.area3lan3host3.wlan[0] packetDropInterfaceDown:vector(packetBytes):max -inf
scalar ConfiguratorC.area3lan3host3.wlan[0] packetDropInterfaceDown:vector(packetBytes):starttime nan
scalar ConfiguratorC.area3lan3host3.wlan[0] packetDropInterfaceDown:vector(packetBytes):endtime nan
scalar ConfiguratorC.area3lan3host3.wlan[0] packetDropNoCarrier:vector(packetBytes):count 0
scalar ConfiguratorC.area3lan3host3.wlan[0] packetDropNoCarrier:vector(packetBytes):sum 0
scalar ConfiguratorC.area3lan3host3.wlan[0] packetDropNoCarrier:vector(packetBytes):sumweights 0
scalar ConfiguratorC.area3lan3host3.wlan[0] packetDropNoCarrier:vector(packetBytes):mean -nan
scalar ConfiguratorC.area3lan3host3.wlan[0] packetDropNoCarrier:vector(packetBytes):stddev nan
scalar ConfiguratorC.area3lan3host3.wlan[0] packetDropNoCarrier:vector(packetBytes):min inf
scalar ConfiguratorC.area3lan3host3.wlan[0] packetDropNoCarrier:vector(packetBytes):max -inf
scalar ConfiguratorC.area3lan3host3.wlan[0] packetDropNoCarrier:vector(packetBytes):starttime nan
scalar ConfiguratorC.area3lan3host3.wlan[0] packetDropNoCarrier:vector(packetBytes):endtime nan
scalar ConfiguratorC.area3lan3host3.ipv4.ip packetDropAddressResolutionFailed:vector(packetBytes):count 0
scalar ConfiguratorC.area3lan3host3.ipv4.ip packetDropAddressResolutionFailed:vector(packetBytes):sum 0
scalar ConfiguratorC.area3lan3host3.ipv4.ip packetDropAddressResolutionFailed:vector(packetBytes):sumweights 0
scalar ConfiguratorC.area3lan3host3.ipv4.ip packetDropAddressResolutionFailed:vector(packetBytes):mean -nan
scalar ConfiguratorC.area3lan3host3.ipv4.ip packetDropAddressResolutionFailed:vector(packetBytes):stddev nan
scalar ConfiguratorC.area3lan3host3.ipv4.ip packetDropAddressResolutionFailed:vector(packetBytes):min inf
scalar ConfiguratorC.area3lan3host3.ipv4.ip packetDropAddressResolutionFailed:vector(packetBytes):max -inf
scalar ConfiguratorC.area3lan3host3.ipv4.ip packetDropAddressResolutionFailed:vector(packetBytes):starttime nan
scalar ConfiguratorC.area3lan3host3.ipv4.ip packetDropAddressResolutionFailed:vector(packetBytes):endtime nan
scalar ConfiguratorC.area3lan3host3.ipv4.ip packetDropHopLimitReached:vector(packetBytes):count 0
scalar ConfiguratorC.area3lan3host3.ipv4.ip packetDropHopLimitReached:vector(packetBytes):sum 0
scalar ConfiguratorC.area3lan3host3.ipv4.ip packetDropHopLimitReached:vector(packetBytes):sumweights 0
scalar ConfiguratorC.area3lan3host3.ipv4.ip packetDropHopLimitReached:vector(packetBytes):mean -nan
scalar ConfiguratorC.area3lan3host3.ipv4.ip packetDropHopLimitReached:vector(packetBytes):stddev nan
scalar ConfiguratorC.area3lan3host3.ipv4.ip packetDropHopLimitReached:vector(packetBytes):min inf
scalar ConfiguratorC.area3lan3host3.ipv4.ip packetDropHopLimitReached:vector(packetBytes):max -inf
scalar ConfiguratorC.area3lan3host3.ipv4.ip packetDropHopLimitReached:vector(packetBytes):starttime nan
scalar ConfiguratorC.area3lan3host3.ipv4.ip packetDropHopLimitReached:vector(packetBytes):endtime nan
scalar ConfiguratorC.area3lan3host3.ipv4.ip packetDropForwardingDisabled:vector(packetBytes):count 0
scalar ConfiguratorC.area3lan3host3.ipv4.ip packetDropForwardingDisabled:vector(packetBytes):sum 0
scalar ConfiguratorC.area3lan3host3.ipv4.ip packetDropForwardingDisabled:vector(packetBytes):sumweights 0
scalar ConfiguratorC.area3lan3host3.ipv4.ip packetDropForwardingDisabled:vector(packetBytes):mean -nan
scalar ConfiguratorC.area3lan3host3.ipv4.ip packetDropForwardingDisabled:vector(packetBytes):stddev nan
scalar ConfiguratorC.area3lan3host3.ipv4.ip packetDropForwardingDisabled:vector(packetBytes):min inf
scalar ConfiguratorC.area3lan3host3.ipv4.ip packetDropForwardingDisabled:vector(packetBytes):max -inf
scalar ConfiguratorC.area3lan3host3.ipv4.ip packetDropForwardingDisabled:vector(packetBytes):starttime nan
scalar ConfiguratorC.area3lan3host3.ipv4.ip packetDropForwardingDisabled:vector(packetBytes):endtime nan
scalar ConfiguratorC.area3lan3host3.ipv4.ip packetDropLifetimeExpired:vector(packetBytes):count 0
scalar ConfiguratorC.area3lan3host3.ipv4.ip packetDropLifetimeExpired:vector(packetBytes):sum 0
scalar ConfiguratorC.area3lan3host3.ipv4.ip packetDropLifetimeExpired:vector(packetBytes):sumweights 0
scalar ConfiguratorC.area3lan3host3.ipv4.ip packetDropLifetimeExpired:vector(packetBytes):mean -nan
scalar ConfiguratorC.area3lan3host3.ipv4.ip packetDropLifetimeExpired:vector(packetBytes):stddev nan
scalar ConfiguratorC.area3lan3host3.ipv4.ip packetDropLifetimeExpired:vector(packetBytes):min inf
scalar ConfiguratorC.area3lan3host3.ipv4.ip packetDropLifetimeExpired:vector(packetBytes):max -inf
scalar ConfiguratorC.area3lan3host3.ipv4.ip packetDropLifetimeExpired:vector(packetBytes):starttime nan
scalar ConfiguratorC.area3lan3host3.ipv4.ip packetDropLifetimeExpired:vector(packetBytes):endtime nan
scalar ConfiguratorC.area3lan3host3.ipv4.ip packetDropNoInterfaceFound:vector(packetBytes):count 0
scalar ConfiguratorC.area3lan3host3.ipv4.ip packetDropNoInterfaceFound:vector(packetBytes):sum 0
scalar ConfiguratorC.area3lan3host3.ipv4.ip packetDropNoInterfaceFound:vector(packetBytes):sumweights 0
scalar ConfiguratorC.area3lan3host3.ipv4.ip packetDropNoInterfaceFound:vector(packetBytes):mean -nan
scalar ConfiguratorC.area3lan3host3.ipv4.ip packetDropNoInterfaceFound:vector(packetBytes):stddev nan
scalar ConfiguratorC.area3lan3host3.ipv4.ip packetDropNoInterfaceFound:vector(packetBytes):min inf
scalar ConfiguratorC.area3lan3host3.ipv4.ip packetDropNoInterfaceFound:vector(packetBytes):max -inf
scalar ConfiguratorC.area3lan3host3.ipv4.ip packetDropNoInterfaceFound:vector(packetBytes):starttime nan
scalar ConfiguratorC.area3lan3host3.ipv4.ip packetDropNoInterfaceFound:vector(packetBytes):endtime nan
scalar ConfiguratorC.area3lan3host3.ipv4.ip packetDropNoRouteFound:vector(packetBytes):count 0
scalar ConfiguratorC.area3lan3host3.ipv4.ip packetDropNoRouteFound:vector(packetBytes):sum 0
scalar ConfiguratorC.area3lan3host3.ipv4.ip packetDropNoRouteFound:vector(packetBytes):sumweights 0
scalar ConfiguratorC.area3lan3host3.ipv4.ip packetDropNoRouteFound:vector(packetBytes):mean -nan
scalar ConfiguratorC.area3lan3host3.ipv4.ip packetDropNoRouteFound:vector(packetBytes):stddev nan
scalar ConfiguratorC.area3lan3host3.ipv4.ip packetDropNoRouteFound:vector(packetBytes):min inf
scalar ConfiguratorC.area3lan3host3.ipv4.ip packetDropNoRouteFound:vector(packetBytes):max -inf
scalar ConfiguratorC.area3lan3host3.ipv4.ip packetDropNoRouteFound:vector(packetBytes):starttime nan
scalar ConfiguratorC.area3lan3host3.ipv4.ip packetDropNoRouteFound:vector(packetBytes):endtime nan
scalar ConfiguratorC.area3lan3host3.ipv4.ip packetDropUndefined:vector(packetBytes):count 0
scalar ConfiguratorC.area3lan3host3.ipv4.ip packetDropUndefined:vector(packetBytes):sum 0
scalar ConfiguratorC.area3lan3host3.ipv4.ip packetDropUndefined:vector(packetBytes):sumweights 0
scalar ConfiguratorC.area3lan3host3.ipv4.ip packetDropUndefined:vector(packetBytes):mean -nan
scalar ConfiguratorC.area3lan3host3.ipv4.ip packetDropUndefined:vector(packetBytes):stddev nan
scalar ConfiguratorC.area3lan3host3.ipv4.ip packetDropUndefined:vector(packetBytes):min inf
scalar ConfiguratorC.area3lan3host3.ipv4.ip packetDropUndefined:vector(packetBytes):max -inf
scalar ConfiguratorC.area3lan3host3.ipv4.ip packetDropUndefined:vector(packetBytes):starttime nan
scalar ConfiguratorC.area3lan3host3.ipv4.ip packetDropUndefined:vector(packetBytes):endtime nan
scalar ConfiguratorC.area3lan3host3.udp packetSent:vector(packetBytes):count 0
scalar ConfiguratorC.area3lan3host3.udp packetSent:vector(packetBytes):sum 0
scalar ConfiguratorC.area3lan3host3.udp packetSent:vector(packetBytes):sumweights 0
scalar ConfiguratorC.area3lan3host3.udp packetSent:vector(packetBytes):mean -nan
scalar ConfiguratorC.area3lan3host3.udp packetSent:vector(packetBytes):stddev nan
scalar ConfiguratorC.area3lan3host3.udp packetSent:vector(packetBytes):min inf
scalar ConfiguratorC.area3lan3host3.udp packetSent:vector(packetBytes):max -inf
scalar ConfiguratorC.area3lan3host3.udp packetSent:vector(packetBytes):starttime nan
scalar ConfiguratorC.area3lan3host3.udp packetSent:vector(packetBytes):endtime nan
scalar ConfiguratorC.area3lan3host3.udp packetReceived:vector(packetBytes):count 0
scalar ConfiguratorC.area3lan3host3.udp packetReceived:vector(packetBytes):sum 0
scalar ConfiguratorC.area3lan3host3.udp packetReceived:vector(packetBytes):sumweights 0
scalar ConfiguratorC.area3lan3host3.udp packetReceived:vector(packetBytes):mean -nan
scalar ConfiguratorC.area3lan3host3.udp packetReceived:vector(packetBytes):stddev nan
scalar ConfiguratorC.area3lan3host3.udp packetReceived:vector(packetBytes):min inf
scalar ConfiguratorC.area3lan3host3.udp packetReceived:vector(packetBytes):max -inf
scalar ConfiguratorC.area3lan3host3.udp packetReceived:vector(packetBytes):starttime nan
scalar ConfiguratorC.area3lan3host3.udp packetReceived:vector(packetBytes):endtime nan
scalar ConfiguratorC.area3lan3host3.udp passedUpPk:vector(count):count 1
scalar ConfiguratorC.area3lan3host3.udp passedUpPk:vector(count):sum 0
scalar ConfiguratorC.area3lan3host3.udp passedUpPk:vector(count):sumweights 1
scalar ConfiguratorC.area3lan3host3.udp passedUpPk:vector(count):mean 0
scalar ConfiguratorC.area3lan3host3.udp passedUpPk:vector(count):stddev nan
scalar ConfiguratorC.area3lan3host3.udp passedUpPk:vector(count):min 0
scalar ConfiguratorC.area3lan3host3.udp passedUpPk:vector(count):max 0
scalar ConfiguratorC.area3lan3host3.udp passedUpPk:vector(count):starttime 0
scalar ConfiguratorC.area3lan3host3.udp passedUpPk:vector(count):endtime 0
scalar ConfiguratorC.area3lan3host3.udp droppedPkWrongPort:vector(count):count 1
scalar ConfiguratorC.area3lan3host3.udp droppedPkWrongPort:vector(count):sum 0
scalar ConfiguratorC.area3lan3host3.udp droppedPkWrongPort:vector(count):sumweights 1
scalar ConfiguratorC.area3lan3host3.udp droppedPkWrongPort:vector(count):mean 0
scalar ConfiguratorC.area3lan3host3.udp droppedPkWrongPort:vector(count):stddev nan
scalar ConfiguratorC.area3lan3host3.udp droppedPkWrongPort:vector(count):min 0
scalar ConfiguratorC.area3lan3host3.udp droppedPkWrongPort:vector(count):max 0
scalar ConfiguratorC.area3lan3host3.udp droppedPkWrongPort:vector(count):starttime 0
scalar ConfiguratorC.area3lan3host3.udp droppedPkWrongPort:vector(count):endtime 0
scalar ConfiguratorC.area3lan3host3.udp droppedPkBadChecksum:vector(count):count 1
scalar ConfiguratorC.area3lan3host3.udp droppedPkBadChecksum:vector(count):sum 0
scalar ConfiguratorC.area3lan3host3.udp droppedPkBadChecksum:vector(count):sumweights 1
scalar ConfiguratorC.area3lan3host3.udp droppedPkBadChecksum:vector(count):mean 0
scalar ConfiguratorC.area3lan3host3.udp droppedPkBadChecksum:vector(count):stddev nan
scalar ConfiguratorC.area3lan3host3.udp droppedPkBadChecksum:vector(count):min 0
scalar ConfiguratorC.area3lan3host3.udp droppedPkBadChecksum:vector(count):max 0
scalar ConfiguratorC.area3lan3host3.udp droppedPkBadChecksum:vector(count):starttime 0
scalar ConfiguratorC.area3lan3host3.udp droppedPkBadChecksum:vector(count):endtime 0

