version 3
run Step6A-0-20230511-14:23:55-55216
attr configname Step6A
attr datetime 20230511-14:23:55
attr datetimef 20230511-142355
attr description "Setting different metric for automatic routing table configuration - using dataRate metric"
attr experiment Step6A
attr inifile omnetpp.ini
attr iterationvars ""
attr iterationvarsd ""
attr iterationvarsf ""
attr measurement ""
attr network ConfiguratorA
attr processid 55216
attr repetition 0
attr replication #0
attr resultdir results
attr runnumber 0
attr seedset 0
config **.param-recording false
config **.vector-recording false
config image-path /home/levy/workspace/inet/images
config output-scalar-file results/omnetpp.ini-Step6A-#0.sca
config sim-time-limit 500s
config sim-time-limit 500s
config extends Step4
config description "Setting different metric for automatic routing table configuration - using dataRate metric"
config *.configurator.config "xmldoc(\"step6a.xml\")"
config *.visualizer.routingTableVisualizer.destinationFilter "\"host1\""
config sim-time-limit 500s
config network ConfiguratorA
config description "Fully automatic static routing table configuration"
config *.host1.numApps 1
config *.host1.app[0].typename PingApp
config *.host1.app[0].destAddr "\"host7\""
config *.visualizer.routingTableVisualizer.displayRoutingTables true
config *.visualizer.routingTableVisualizer.destinationFilter "\"host7\""
config description (abstract)
config *.configurator.dumpAddresses true
config *.configurator.dumpTopology true
config *.configurator.dumpLinks true
config *.configurator.dumpRoutes true
config *.*.ipv4.arp.typename GlobalArp
config *.*.ipv4.routingTable.netmaskRoutes "\"\""
config *.visualizer.interfaceTableVisualizer.displayInterfaceTables true
config *.visualizer.interfaceTableVisualizer.nodeFilter "\"not (*switch* or *Switch* or *AP*)\""

scalar ConfiguratorA.host0.ethernet pauseSent:count 0
attr recordingmode count
attr title "pause sent, count"
scalar ConfiguratorA.host0.ethernet pauseSent:sum 0
attr recordingmode sum
attr title "pause sent, sum"
scalar ConfiguratorA.host0.ethernet decapPk:count 0
attr interpolationmode none
attr recordingmode count
attr source decapPk
attr title "packets decapsulated, count"
scalar ConfiguratorA.host0.ethernet decapPk:sum(packetBytes) 0
attr interpolationmode none
attr recordingmode sum(packetBytes)
attr source decapPk
attr title "packets decapsulated, sum(packetBytes)"
scalar ConfiguratorA.host0.ethernet encapPk:count 0
attr interpolationmode none
attr recordingmode count
attr source encapPk
attr title "packets encapsulated, count"
scalar ConfiguratorA.host0.ethernet encapPk:sum(packetBytes) 0
attr interpolationmode none
attr recordingmode sum(packetBytes)
attr source encapPk
attr title "packets encapsulated, sum(packetBytes)"
scalar ConfiguratorA.host0.lo[0].lo rcvdPkFromHl:count 0
attr interpolationmode none
attr recordingmode count
attr source packetReceivedFromUpper
attr title "packets received from higher layer, count"
scalar ConfiguratorA.host0.lo[0].lo rcvdPkFromHl:sum(packetBytes) 0
attr interpolationmode none
attr recordingmode sum(packetBytes)
attr source packetReceivedFromUpper
attr title "packets received from higher layer, sum(packetBytes)"
scalar ConfiguratorA.host0.lo[0].lo passedUpPk:count 0
attr interpolationmode none
attr recordingmode count
attr source packetSentToUpper
attr title "packets passed to higher layer, count"
scalar ConfiguratorA.host0.lo[0].lo passedUpPk:sum(packetBytes) 0
attr interpolationmode none
attr recordingmode sum(packetBytes)
attr source packetSentToUpper
attr title "packets passed to higher layer, sum(packetBytes)"
scalar ConfiguratorA.host0.lo[0] packetDropInterfaceDown:count 0
attr interpolationmode none
attr recordingmode count
attr source packetDropReasonIsInterfaceDown(packetDropped)
attr title "packet drops: interface down, count"
scalar ConfiguratorA.host0.lo[0] packetDropInterfaceDown:sum(packetBytes) 0
attr interpolationmode none
attr recordingmode sum(packetBytes)
attr source packetDropReasonIsInterfaceDown(packetDropped)
attr title "packet drops: interface down, sum(packetBytes)"
scalar ConfiguratorA.host0.lo[0] packetDropNoCarrier:count 0
attr interpolationmode none
attr recordingmode count
attr source packetDropReasonIsNoCarrier(packetDropped)
attr title "packet drops: no carrier, count"
scalar ConfiguratorA.host0.lo[0] packetDropNoCarrier:sum(packetBytes) 0
attr interpolationmode none
attr recordingmode sum(packetBytes)
attr source packetDropReasonIsNoCarrier(packetDropped)
attr title "packet drops: no carrier, sum(packetBytes)"
scalar ConfiguratorA.host0.eth[0].queue queueLength:last 0
attr autoWarmupFilter false
attr interpolationmode sample-hold
attr recordingmode last
attr source "warmup(atomic(constant0(packetPushEnded) + count(packetPushStarted) - count(packetPulled) - count(packetRemoved) - count(packetDropped)))"
attr title "queue length, last"
attr unit pk
scalar ConfiguratorA.host0.eth[0].queue queueLength:max 0
attr autoWarmupFilter false
attr interpolationmode sample-hold
attr recordingmode max
attr source "warmup(atomic(constant0(packetPushEnded) + count(packetPushStarted) - count(packetPulled) - count(packetRemoved) - count(packetDropped)))"
attr title "queue length, max"
attr unit pk
scalar ConfiguratorA.host0.eth[0].queue queueLength:timeavg 0
attr autoWarmupFilter false
attr interpolationmode sample-hold
attr recordingmode timeavg
attr source "warmup(atomic(constant0(packetPushEnded) + count(packetPushStarted) - count(packetPulled) - count(packetRemoved) - count(packetDropped)))"
attr title "queue length, timeavg"
attr unit pk
scalar ConfiguratorA.host0.eth[0].queue queueBitLength:last 0
attr autoWarmupFilter false
attr interpolationmode sample-hold
attr recordingmode last
attr source "warmup(atomic(constant0(packetPushEnded) + sum(packetLength(packetPushStarted)) - sum(packetLength(packetPulled)) - sum(packetLength(packetRemoved)) - sum(packetLength(packetDropped))))"
attr title "queue bit length, last"
attr unit b
scalar ConfiguratorA.host0.eth[0].queue queueBitLength:max 0
attr autoWarmupFilter false
attr interpolationmode sample-hold
attr recordingmode max
attr source "warmup(atomic(constant0(packetPushEnded) + sum(packetLength(packetPushStarted)) - sum(packetLength(packetPulled)) - sum(packetLength(packetRemoved)) - sum(packetLength(packetDropped))))"
attr title "queue bit length, max"
attr unit b
scalar ConfiguratorA.host0.eth[0].queue queueBitLength:timeavg 0
attr autoWarmupFilter false
attr interpolationmode sample-hold
attr recordingmode timeavg
attr source "warmup(atomic(constant0(packetPushEnded) + sum(packetLength(packetPushStarted)) - sum(packetLength(packetPulled)) - sum(packetLength(packetRemoved)) - sum(packetLength(packetDropped))))"
attr title "queue bit length, timeavg"
attr unit b
statistic ConfiguratorA.host0.eth[0].queue queueingTime:histogram
field count 0
field mean -nan
field stddev nan
field min nan
field max nan
field sum 0
field sqrsum 0
attr interpolationmode none
attr recordingmode histogram
attr source queueingTime(packetPulled)
attr title "queueing times"
attr unit s
bin	-inf	0
bin	0	0
bin	1	0
scalar ConfiguratorA.host0.eth[0].queue outgoingPackets:count 0
attr recordingmode count
attr source packetPulled
attr title "outgoing packets, count"
attr unit pk
scalar ConfiguratorA.host0.eth[0].queue outgoingPacketLengths:sum 0
attr interpolationmode none
attr recordingmode sum
attr source packetLength(packetPulled)
attr title "outgoing packet lengths, sum"
attr unit b
statistic ConfiguratorA.host0.eth[0].queue outgoingPacketLengths:histogram
field count 0
field mean -nan
field stddev nan
field min nan
field max nan
field sum 0
field sqrsum 0
attr interpolationmode none
attr recordingmode histogram
attr source packetLength(packetPulled)
attr title "outgoing packet lengths"
attr unit b
bin	-inf	0
bin	0	0
bin	1	0
statistic ConfiguratorA.host0.eth[0].queue flowQueueingTime:histogram
field count 0
field mean -nan
field stddev nan
field min nan
field max nan
field sum 0
field sqrsum 0
attr interpolationmode none
attr recordingmode histogram
attr source queueingTime(demuxFlow(packetPulled))
attr title "flow queueing times"
attr unit s
bin	-inf	0
bin	0	0
bin	1	0
scalar ConfiguratorA.host0.eth[0].queue incomingPackets:count 0
attr recordingmode count
attr source packetPushStarted
attr title "incoming packets, count"
attr unit pk
scalar ConfiguratorA.host0.eth[0].queue incomingPacketLengths:sum 0
attr interpolationmode none
attr recordingmode sum
attr source packetLength(packetPushStarted)
attr title "incoming packet lengths, sum"
attr unit b
statistic ConfiguratorA.host0.eth[0].queue incomingPacketLengths:histogram
field count 0
field mean -nan
field stddev nan
field min nan
field max nan
field sum 0
field sqrsum 0
attr interpolationmode none
attr recordingmode histogram
attr source packetLength(packetPushStarted)
attr title "incoming packet lengths"
attr unit b
bin	-inf	0
bin	0	0
bin	1	0
scalar ConfiguratorA.host0.eth[0].queue droppedPacketsQueueOverflow:count 0
attr interpolationmode none
attr recordingmode count
attr source packetDropReasonIsQueueOverflow(packetDropped)
attr title "dropped packets: queue overflow, count"
attr unit pk
scalar ConfiguratorA.host0.eth[0].queue droppedPacketLengthsQueueOverflow:sum 0
attr interpolationmode none
attr recordingmode sum
attr source packetLength(packetDropReasonIsQueueOverflow(packetDropped))
attr title "dropped packet lengths: queue overflow, sum"
attr unit b
scalar ConfiguratorA.host0.eth[0].mac "simulated time" 500
scalar ConfiguratorA.host0.eth[0].mac full-duplex 1
scalar ConfiguratorA.host0.eth[0].mac "frames/sec sent" 0
scalar ConfiguratorA.host0.eth[0].mac "frames/sec rcvd" 0
scalar ConfiguratorA.host0.eth[0].mac "bits/sec sent" 0
scalar ConfiguratorA.host0.eth[0].mac "bits/sec rcvd" 0
scalar ConfiguratorA.host0.eth[0].mac "rx channel idle (%)" 99.99999824
scalar ConfiguratorA.host0.eth[0].mac "rx channel utilization (%)" 1.76e-06
scalar ConfiguratorA.host0.eth[0].mac rxPausePkUnits:count 0
attr interpolationmode none
attr recordingmode count
attr title "pause units received, count"
scalar ConfiguratorA.host0.eth[0].mac rxPausePkUnits:sum 0
attr interpolationmode none
attr recordingmode sum
attr title "pause units received, sum"
scalar ConfiguratorA.host0.eth[0].mac txPausePkUnits:count 0
attr interpolationmode none
attr recordingmode count
attr title "pause units sent, count"
scalar ConfiguratorA.host0.eth[0].mac txPausePkUnits:sum 0
attr interpolationmode none
attr recordingmode sum
attr title "pause units sent, sum"
scalar ConfiguratorA.host0.eth[0].mac rxPkOk:count 0
attr interpolationmode none
attr recordingmode count
attr source rxPkOk
attr title "packets received OK, count"
scalar ConfiguratorA.host0.eth[0].mac rxPkOk:sum(packetBytes) 0
attr interpolationmode none
attr recordingmode sum(packetBytes)
attr source rxPkOk
attr title "packets received OK, sum(packetBytes)"
scalar ConfiguratorA.host0.eth[0].mac txPk:count 0
attr interpolationmode none
attr recordingmode count
attr source packetSentToLower
attr title "packets transmitted, count"
scalar ConfiguratorA.host0.eth[0].mac txPk:sum(packetBytes) 0
attr interpolationmode none
attr recordingmode sum(packetBytes)
attr source packetSentToLower
attr title "packets transmitted, sum(packetBytes)"
scalar ConfiguratorA.host0.eth[0].mac packetReceivedFromUpper:count 0
attr interpolationmode none
attr recordingmode count
attr source packetReceivedFromUpper
attr title "packet bytes from higher layer, count"
scalar ConfiguratorA.host0.eth[0].mac packetReceivedFromUpper:sum(packetBytes) 0
attr interpolationmode none
attr recordingmode sum(packetBytes)
attr source packetReceivedFromUpper
attr title "packet bytes from higher layer, sum(packetBytes)"
scalar ConfiguratorA.host0.eth[0].mac passedUpPk:count 0
attr interpolationmode none
attr recordingmode count
attr source packetSentToUpper
attr title "packets passed to higher layer, count"
scalar ConfiguratorA.host0.eth[0].mac passedUpPk:sum(packetBytes) 0
attr interpolationmode none
attr recordingmode sum(packetBytes)
attr source packetSentToUpper
attr title "packets passed to higher layer, sum(packetBytes)"
scalar ConfiguratorA.host0.eth[0].mac packetDropIncorrectlyReceived:count 0
attr interpolationmode none
attr recordingmode count
attr source packetDropReasonIsIncorrectlyReceived(packetDropped)
attr title "packet drop: incorrectly received, count"
scalar ConfiguratorA.host0.eth[0].mac packetDropIncorrectlyReceived:sum(packetBytes) 0
attr interpolationmode none
attr recordingmode sum(packetBytes)
attr source packetDropReasonIsIncorrectlyReceived(packetDropped)
attr title "packet drop: incorrectly received, sum(packetBytes)"
scalar ConfiguratorA.host0.eth[0].mac packetDropInterfaceDown:count 0
attr interpolationmode none
attr recordingmode count
attr source packetDropReasonIsInterfaceDown(packetDropped)
attr title "packet drop: interface down, count"
scalar ConfiguratorA.host0.eth[0].mac packetDropInterfaceDown:sum(packetBytes) 0
attr interpolationmode none
attr recordingmode sum(packetBytes)
attr source packetDropReasonIsInterfaceDown(packetDropped)
attr title "packet drop: interface down, sum(packetBytes)"
scalar ConfiguratorA.host0.eth[0].mac packetDropNotAddressedToUs:count 1
attr interpolationmode none
attr recordingmode count
attr source packetDropReasonIsNotAddressedToUs(packetDropped)
attr title "packet drop: not addressed to us, count"
scalar ConfiguratorA.host0.eth[0].mac packetDropNotAddressedToUs:sum(packetBytes) 102
attr interpolationmode none
attr recordingmode sum(packetBytes)
attr source packetDropReasonIsNotAddressedToUs(packetDropped)
attr title "packet drop: not addressed to us, sum(packetBytes)"
scalar ConfiguratorA.host0.eth[0] packetDropInterfaceDown:count 0
attr interpolationmode none
attr recordingmode count
attr source packetDropReasonIsInterfaceDown(packetDropped)
attr title "packet drops: interface down, count"
scalar ConfiguratorA.host0.eth[0] packetDropInterfaceDown:sum(packetBytes) 0
attr interpolationmode none
attr recordingmode sum(packetBytes)
attr source packetDropReasonIsInterfaceDown(packetDropped)
attr title "packet drops: interface down, sum(packetBytes)"
scalar ConfiguratorA.host0.eth[0] packetDropNoCarrier:count 0
attr interpolationmode none
attr recordingmode count
attr source packetDropReasonIsNoCarrier(packetDropped)
attr title "packet drops: no carrier, count"
scalar ConfiguratorA.host0.eth[0] packetDropNoCarrier:sum(packetBytes) 0
attr interpolationmode none
attr recordingmode sum(packetBytes)
attr source packetDropReasonIsNoCarrier(packetDropped)
attr title "packet drops: no carrier, sum(packetBytes)"
scalar ConfiguratorA.host0.ipv4.ip packetDropAddressResolutionFailed:count 0
attr interpolationmode none
attr recordingmode count
attr source packetDropReasonIsAddressResolutionFailed(packetDropped)
attr title "packet drop: address resolution failed, count"
scalar ConfiguratorA.host0.ipv4.ip packetDropAddressResolutionFailed:sum(packetBytes) 0
attr interpolationmode none
attr recordingmode sum(packetBytes)
attr source packetDropReasonIsAddressResolutionFailed(packetDropped)
attr title "packet drop: address resolution failed, sum(packetBytes)"
scalar ConfiguratorA.host0.ipv4.ip packetDropHopLimitReached:count 0
attr interpolationmode none
attr recordingmode count
attr source packetDropReasonIsHopLimitReached(packetDropped)
attr title "packet drop: hop limit reached, count"
scalar ConfiguratorA.host0.ipv4.ip packetDropHopLimitReached:sum(packetBytes) 0
attr interpolationmode none
attr recordingmode sum(packetBytes)
attr source packetDropReasonIsHopLimitReached(packetDropped)
attr title "packet drop: hop limit reached, sum(packetBytes)"
scalar ConfiguratorA.host0.ipv4.ip packetDropForwardingDisabled:count 0
attr interpolationmode none
attr recordingmode count
attr source packetDropReasonIsForwardingDisabled(packetDropped)
attr title "packet drop: forwarding disabled, count"
scalar ConfiguratorA.host0.ipv4.ip packetDropForwardingDisabled:sum(packetBytes) 0
attr interpolationmode none
attr recordingmode sum(packetBytes)
attr source packetDropReasonIsForwardingDisabled(packetDropped)
attr title "packet drop: forwarding disabled, sum(packetBytes)"
scalar ConfiguratorA.host0.ipv4.ip packetDropNoInterfaceFound:count 0
attr interpolationmode none
attr recordingmode count
attr source packetDropReasonIsNoInterfaceFound(packetDropped)
attr title "packet drop: no interface found, count"
scalar ConfiguratorA.host0.ipv4.ip packetDropNoInterfaceFound:sum(packetBytes) 0
attr interpolationmode none
attr recordingmode sum(packetBytes)
attr source packetDropReasonIsNoInterfaceFound(packetDropped)
attr title "packet drop: no interface found, sum(packetBytes)"
scalar ConfiguratorA.host0.ipv4.ip packetDropNoRouteFound:count 0
attr interpolationmode none
attr recordingmode count
attr source packetDropReasonIsNoRouteFound(packetDropped)
attr title "packet drop: no route found, count"
scalar ConfiguratorA.host0.ipv4.ip packetDropNoRouteFound:sum(packetBytes) 0
attr interpolationmode none
attr recordingmode sum(packetBytes)
attr source packetDropReasonIsNoRouteFound(packetDropped)
attr title "packet drop: no route found, sum(packetBytes)"
scalar ConfiguratorA.host0.ipv4.ip packetDropUndefined:count 0
attr interpolationmode none
attr recordingmode count
attr source packetDropReasonIsUndefined(packetDropped)
attr title "packet drop: undefined, count"
scalar ConfiguratorA.host0.ipv4.ip packetDropUndefined:sum(packetBytes) 0
attr interpolationmode none
attr recordingmode sum(packetBytes)
attr source packetDropReasonIsUndefined(packetDropped)
attr title "packet drop: undefined, sum(packetBytes)"
scalar ConfiguratorA.host0.udp packetReceived:count 0
attr interpolationmode none
attr recordingmode count
attr source packetReceived
attr title "packets received, count"
scalar ConfiguratorA.host0.udp packetReceived:sum(packetBytes) 0
attr interpolationmode none
attr recordingmode sum(packetBytes)
attr source packetReceived
attr title "packets received, sum(packetBytes)"
scalar ConfiguratorA.host0.udp packetSent:count 0
attr interpolationmode none
attr recordingmode count
attr source packetSent
attr title "packets sent, count"
scalar ConfiguratorA.host0.udp packetSent:sum(packetBytes) 0
attr interpolationmode none
attr recordingmode sum(packetBytes)
attr source packetSent
attr title "packets sent, sum(packetBytes)"
scalar ConfiguratorA.host0.udp passedUpPk:count 0
attr interpolationmode none
attr recordingmode count
attr source packetSentToUpper
attr title "packets passed up, count"
scalar ConfiguratorA.host0.udp droppedPkWrongPort:count 0
attr interpolationmode none
attr recordingmode count
attr source packetDropReasonIsNoPortFound(packetDropped)
attr title "packets dropped (wrong port), count"
scalar ConfiguratorA.host0.udp droppedPkBadChecksum:count 0
attr interpolationmode none
attr recordingmode count
attr source packetDropReasonIsIncorrectlyReceived(packetDropped)
attr title "packets dropped (checksum error), count"
scalar ConfiguratorA.host1.ethernet pauseSent:count 0
attr recordingmode count
attr title "pause sent, count"
scalar ConfiguratorA.host1.ethernet pauseSent:sum 0
attr recordingmode sum
attr title "pause sent, sum"
scalar ConfiguratorA.host1.ethernet decapPk:count 500
attr interpolationmode none
attr recordingmode count
attr source decapPk
attr title "packets decapsulated, count"
scalar ConfiguratorA.host1.ethernet decapPk:sum(packetBytes) 42000
attr interpolationmode none
attr recordingmode sum(packetBytes)
attr source decapPk
attr title "packets decapsulated, sum(packetBytes)"
scalar ConfiguratorA.host1.ethernet encapPk:count 500
attr interpolationmode none
attr recordingmode count
attr source encapPk
attr title "packets encapsulated, count"
scalar ConfiguratorA.host1.ethernet encapPk:sum(packetBytes) 42000
attr interpolationmode none
attr recordingmode sum(packetBytes)
attr source encapPk
attr title "packets encapsulated, sum(packetBytes)"
scalar ConfiguratorA.host1.lo[0].lo rcvdPkFromHl:count 0
attr interpolationmode none
attr recordingmode count
attr source packetReceivedFromUpper
attr title "packets received from higher layer, count"
scalar ConfiguratorA.host1.lo[0].lo rcvdPkFromHl:sum(packetBytes) 0
attr interpolationmode none
attr recordingmode sum(packetBytes)
attr source packetReceivedFromUpper
attr title "packets received from higher layer, sum(packetBytes)"
scalar ConfiguratorA.host1.lo[0].lo passedUpPk:count 0
attr interpolationmode none
attr recordingmode count
attr source packetSentToUpper
attr title "packets passed to higher layer, count"
scalar ConfiguratorA.host1.lo[0].lo passedUpPk:sum(packetBytes) 0
attr interpolationmode none
attr recordingmode sum(packetBytes)
attr source packetSentToUpper
attr title "packets passed to higher layer, sum(packetBytes)"
scalar ConfiguratorA.host1.lo[0] packetDropInterfaceDown:count 0
attr interpolationmode none
attr recordingmode count
attr source packetDropReasonIsInterfaceDown(packetDropped)
attr title "packet drops: interface down, count"
scalar ConfiguratorA.host1.lo[0] packetDropInterfaceDown:sum(packetBytes) 0
attr interpolationmode none
attr recordingmode sum(packetBytes)
attr source packetDropReasonIsInterfaceDown(packetDropped)
attr title "packet drops: interface down, sum(packetBytes)"
scalar ConfiguratorA.host1.lo[0] packetDropNoCarrier:count 0
attr interpolationmode none
attr recordingmode count
attr source packetDropReasonIsNoCarrier(packetDropped)
attr title "packet drops: no carrier, count"
scalar ConfiguratorA.host1.lo[0] packetDropNoCarrier:sum(packetBytes) 0
attr interpolationmode none
attr recordingmode sum(packetBytes)
attr source packetDropReasonIsNoCarrier(packetDropped)
attr title "packet drops: no carrier, sum(packetBytes)"
scalar ConfiguratorA.host1.eth[0].queue queueLength:last 0
attr autoWarmupFilter false
attr interpolationmode sample-hold
attr recordingmode last
attr source "warmup(atomic(constant0(packetPushEnded) + count(packetPushStarted) - count(packetPulled) - count(packetRemoved) - count(packetDropped)))"
attr title "queue length, last"
attr unit pk
scalar ConfiguratorA.host1.eth[0].queue queueLength:max 0
attr autoWarmupFilter false
attr interpolationmode sample-hold
attr recordingmode max
attr source "warmup(atomic(constant0(packetPushEnded) + count(packetPushStarted) - count(packetPulled) - count(packetRemoved) - count(packetDropped)))"
attr title "queue length, max"
attr unit pk
scalar ConfiguratorA.host1.eth[0].queue queueLength:timeavg 0
attr autoWarmupFilter false
attr interpolationmode sample-hold
attr recordingmode timeavg
attr source "warmup(atomic(constant0(packetPushEnded) + count(packetPushStarted) - count(packetPulled) - count(packetRemoved) - count(packetDropped)))"
attr title "queue length, timeavg"
attr unit pk
scalar ConfiguratorA.host1.eth[0].queue queueBitLength:last 0
attr autoWarmupFilter false
attr interpolationmode sample-hold
attr recordingmode last
attr source "warmup(atomic(constant0(packetPushEnded) + sum(packetLength(packetPushStarted)) - sum(packetLength(packetPulled)) - sum(packetLength(packetRemoved)) - sum(packetLength(packetDropped))))"
attr title "queue bit length, last"
attr unit b
scalar ConfiguratorA.host1.eth[0].queue queueBitLength:max 0
attr autoWarmupFilter false
attr interpolationmode sample-hold
attr recordingmode max
attr source "warmup(atomic(constant0(packetPushEnded) + sum(packetLength(packetPushStarted)) - sum(packetLength(packetPulled)) - sum(packetLength(packetRemoved)) - sum(packetLength(packetDropped))))"
attr title "queue bit length, max"
attr unit b
scalar ConfiguratorA.host1.eth[0].queue queueBitLength:timeavg 0
attr autoWarmupFilter false
attr interpolationmode sample-hold
attr recordingmode timeavg
attr source "warmup(atomic(constant0(packetPushEnded) + sum(packetLength(packetPushStarted)) - sum(packetLength(packetPulled)) - sum(packetLength(packetRemoved)) - sum(packetLength(packetDropped))))"
attr title "queue bit length, timeavg"
attr unit b
statistic ConfiguratorA.host1.eth[0].queue queueingTime:histogram
field count 500
field mean 0
field stddev 0
field min 0
field max 0
field sum 0
field sqrsum 0
attr interpolationmode none
attr recordingmode histogram
attr source queueingTime(packetPulled)
attr title "queueing times"
attr unit s
bin	-inf	0
bin	-0.5	0
bin	-0.48	0
bin	-0.46	0
bin	-0.44	0
bin	-0.42	0
bin	-0.4	0
bin	-0.38	0
bin	-0.36	0
bin	-0.34	0
bin	-0.32	0
bin	-0.3	0
bin	-0.28	0
bin	-0.26	0
bin	-0.24	0
bin	-0.22	0
bin	-0.2	0
bin	-0.18	0
bin	-0.16	0
bin	-0.14	0
bin	-0.12	0
bin	-0.1	0
bin	-0.08	0
bin	-0.06	0
bin	-0.04	0
bin	-0.02	0
bin	0	500
bin	0.02	0
bin	0.04	0
bin	0.06	0
bin	0.08	0
bin	0.1	0
bin	0.12	0
bin	0.14	0
bin	0.16	0
bin	0.18	0
bin	0.2	0
bin	0.22	0
bin	0.24	0
bin	0.26	0
bin	0.28	0
bin	0.3	0
bin	0.32	0
bin	0.34	0
bin	0.36	0
bin	0.38	0
bin	0.4	0
bin	0.42	0
bin	0.44	0
bin	0.46	0
bin	0.48	0
bin	0.5	0
scalar ConfiguratorA.host1.eth[0].queue outgoingPackets:count 500
attr recordingmode count
attr source packetPulled
attr title "outgoing packets, count"
attr unit pk
scalar ConfiguratorA.host1.eth[0].queue outgoingPacketLengths:sum 408000
attr interpolationmode none
attr recordingmode sum
attr source packetLength(packetPulled)
attr title "outgoing packet lengths, sum"
attr unit b
statistic ConfiguratorA.host1.eth[0].queue outgoingPacketLengths:histogram
field count 500
field mean 816
field stddev 0
field min 816
field max 816
field sum 408000
field sqrsum 332928000
attr interpolationmode none
attr recordingmode histogram
attr source packetLength(packetPulled)
attr title "outgoing packet lengths"
attr unit b
bin	-inf	0
bin	815	0
bin	816	500
bin	817	0
statistic ConfiguratorA.host1.eth[0].queue flowQueueingTime:histogram
field count 0
field mean -nan
field stddev nan
field min nan
field max nan
field sum 0
field sqrsum 0
attr interpolationmode none
attr recordingmode histogram
attr source queueingTime(demuxFlow(packetPulled))
attr title "flow queueing times"
attr unit s
bin	-inf	0
bin	0	0
bin	1	0
scalar ConfiguratorA.host1.eth[0].queue incomingPackets:count 500
attr recordingmode count
attr source packetPushStarted
attr title "incoming packets, count"
attr unit pk
scalar ConfiguratorA.host1.eth[0].queue incomingPacketLengths:sum 408000
attr interpolationmode none
attr recordingmode sum
attr source packetLength(packetPushStarted)
attr title "incoming packet lengths, sum"
attr unit b
statistic ConfiguratorA.host1.eth[0].queue incomingPacketLengths:histogram
field count 500
field mean 816
field stddev 0
field min 816
field max 816
field sum 408000
field sqrsum 332928000
attr interpolationmode none
attr recordingmode histogram
attr source packetLength(packetPushStarted)
attr title "incoming packet lengths"
attr unit b
bin	-inf	0
bin	815	0
bin	816	500
bin	817	0
scalar ConfiguratorA.host1.eth[0].queue droppedPacketsQueueOverflow:count 0
attr interpolationmode none
attr recordingmode count
attr source packetDropReasonIsQueueOverflow(packetDropped)
attr title "dropped packets: queue overflow, count"
attr unit pk
scalar ConfiguratorA.host1.eth[0].queue droppedPacketLengthsQueueOverflow:sum 0
attr interpolationmode none
attr recordingmode sum
attr source packetLength(packetDropReasonIsQueueOverflow(packetDropped))
attr title "dropped packet lengths: queue overflow, sum"
attr unit b
scalar ConfiguratorA.host1.eth[0].mac "simulated time" 500
scalar ConfiguratorA.host1.eth[0].mac full-duplex 1
scalar ConfiguratorA.host1.eth[0].mac "frames/sec sent" 1
scalar ConfiguratorA.host1.eth[0].mac "frames/sec rcvd" 1
scalar ConfiguratorA.host1.eth[0].mac "bits/sec sent" 816
scalar ConfiguratorA.host1.eth[0].mac "bits/sec rcvd" 816
scalar ConfiguratorA.host1.eth[0].mac "rx channel idle (%)" 99.99912
scalar ConfiguratorA.host1.eth[0].mac "rx channel utilization (%)" 0.00088
scalar ConfiguratorA.host1.eth[0].mac rxPausePkUnits:count 0
attr interpolationmode none
attr recordingmode count
attr title "pause units received, count"
scalar ConfiguratorA.host1.eth[0].mac rxPausePkUnits:sum 0
attr interpolationmode none
attr recordingmode sum
attr title "pause units received, sum"
scalar ConfiguratorA.host1.eth[0].mac txPausePkUnits:count 0
attr interpolationmode none
attr recordingmode count
attr title "pause units sent, count"
scalar ConfiguratorA.host1.eth[0].mac txPausePkUnits:sum 0
attr interpolationmode none
attr recordingmode sum
attr title "pause units sent, sum"
scalar ConfiguratorA.host1.eth[0].mac rxPkOk:count 500
attr interpolationmode none
attr recordingmode count
attr source rxPkOk
attr title "packets received OK, count"
scalar ConfiguratorA.host1.eth[0].mac rxPkOk:sum(packetBytes) 51000
attr interpolationmode none
attr recordingmode sum(packetBytes)
attr source rxPkOk
attr title "packets received OK, sum(packetBytes)"
scalar ConfiguratorA.host1.eth[0].mac txPk:count 500
attr interpolationmode none
attr recordingmode count
attr source packetSentToLower
attr title "packets transmitted, count"
scalar ConfiguratorA.host1.eth[0].mac txPk:sum(packetBytes) 51000
attr interpolationmode none
attr recordingmode sum(packetBytes)
attr source packetSentToLower
attr title "packets transmitted, sum(packetBytes)"
scalar ConfiguratorA.host1.eth[0].mac packetReceivedFromUpper:count 500
attr interpolationmode none
attr recordingmode count
attr source packetReceivedFromUpper
attr title "packet bytes from higher layer, count"
scalar ConfiguratorA.host1.eth[0].mac packetReceivedFromUpper:sum(packetBytes) 51000
attr interpolationmode none
attr recordingmode sum(packetBytes)
attr source packetReceivedFromUpper
attr title "packet bytes from higher layer, sum(packetBytes)"
scalar ConfiguratorA.host1.eth[0].mac passedUpPk:count 500
attr interpolationmode none
attr recordingmode count
attr source packetSentToUpper
attr title "packets passed to higher layer, count"
scalar ConfiguratorA.host1.eth[0].mac passedUpPk:sum(packetBytes) 51000
attr interpolationmode none
attr recordingmode sum(packetBytes)
attr source packetSentToUpper
attr title "packets passed to higher layer, sum(packetBytes)"
scalar ConfiguratorA.host1.eth[0].mac packetDropIncorrectlyReceived:count 0
attr interpolationmode none
attr recordingmode count
attr source packetDropReasonIsIncorrectlyReceived(packetDropped)
attr title "packet drop: incorrectly received, count"
scalar ConfiguratorA.host1.eth[0].mac packetDropIncorrectlyReceived:sum(packetBytes) 0
attr interpolationmode none
attr recordingmode sum(packetBytes)
attr source packetDropReasonIsIncorrectlyReceived(packetDropped)
attr title "packet drop: incorrectly received, sum(packetBytes)"
scalar ConfiguratorA.host1.eth[0].mac packetDropInterfaceDown:count 0
attr interpolationmode none
attr recordingmode count
attr source packetDropReasonIsInterfaceDown(packetDropped)
attr title "packet drop: interface down, count"
scalar ConfiguratorA.host1.eth[0].mac packetDropInterfaceDown:sum(packetBytes) 0
attr interpolationmode none
attr recordingmode sum(packetBytes)
attr source packetDropReasonIsInterfaceDown(packetDropped)
attr title "packet drop: interface down, sum(packetBytes)"
scalar ConfiguratorA.host1.eth[0].mac packetDropNotAddressedToUs:count 0
attr interpolationmode none
attr recordingmode count
attr source packetDropReasonIsNotAddressedToUs(packetDropped)
attr title "packet drop: not addressed to us, count"
scalar ConfiguratorA.host1.eth[0].mac packetDropNotAddressedToUs:sum(packetBytes) 0
attr interpolationmode none
attr recordingmode sum(packetBytes)
attr source packetDropReasonIsNotAddressedToUs(packetDropped)
attr title "packet drop: not addressed to us, sum(packetBytes)"
scalar ConfiguratorA.host1.eth[0] packetDropInterfaceDown:count 0
attr interpolationmode none
attr recordingmode count
attr source packetDropReasonIsInterfaceDown(packetDropped)
attr title "packet drops: interface down, count"
scalar ConfiguratorA.host1.eth[0] packetDropInterfaceDown:sum(packetBytes) 0
attr interpolationmode none
attr recordingmode sum(packetBytes)
attr source packetDropReasonIsInterfaceDown(packetDropped)
attr title "packet drops: interface down, sum(packetBytes)"
scalar ConfiguratorA.host1.eth[0] packetDropNoCarrier:count 0
attr interpolationmode none
attr recordingmode count
attr source packetDropReasonIsNoCarrier(packetDropped)
attr title "packet drops: no carrier, count"
scalar ConfiguratorA.host1.eth[0] packetDropNoCarrier:sum(packetBytes) 0
attr interpolationmode none
attr recordingmode sum(packetBytes)
attr source packetDropReasonIsNoCarrier(packetDropped)
attr title "packet drops: no carrier, sum(packetBytes)"
scalar ConfiguratorA.host1.ipv4.ip packetDropAddressResolutionFailed:count 0
attr interpolationmode none
attr recordingmode count
attr source packetDropReasonIsAddressResolutionFailed(packetDropped)
attr title "packet drop: address resolution failed, count"
scalar ConfiguratorA.host1.ipv4.ip packetDropAddressResolutionFailed:sum(packetBytes) 0
attr interpolationmode none
attr recordingmode sum(packetBytes)
attr source packetDropReasonIsAddressResolutionFailed(packetDropped)
attr title "packet drop: address resolution failed, sum(packetBytes)"
scalar ConfiguratorA.host1.ipv4.ip packetDropHopLimitReached:count 0
attr interpolationmode none
attr recordingmode count
attr source packetDropReasonIsHopLimitReached(packetDropped)
attr title "packet drop: hop limit reached, count"
scalar ConfiguratorA.host1.ipv4.ip packetDropHopLimitReached:sum(packetBytes) 0
attr interpolationmode none
attr recordingmode sum(packetBytes)
attr source packetDropReasonIsHopLimitReached(packetDropped)
attr title "packet drop: hop limit reached, sum(packetBytes)"
scalar ConfiguratorA.host1.ipv4.ip packetDropForwardingDisabled:count 0
attr interpolationmode none
attr recordingmode count
attr source packetDropReasonIsForwardingDisabled(packetDropped)
attr title "packet drop: forwarding disabled, count"
scalar ConfiguratorA.host1.ipv4.ip packetDropForwardingDisabled:sum(packetBytes) 0
attr interpolationmode none
attr recordingmode sum(packetBytes)
attr source packetDropReasonIsForwardingDisabled(packetDropped)
attr title "packet drop: forwarding disabled, sum(packetBytes)"
scalar ConfiguratorA.host1.ipv4.ip packetDropNoInterfaceFound:count 0
attr interpolationmode none
attr recordingmode count
attr source packetDropReasonIsNoInterfaceFound(packetDropped)
attr title "packet drop: no interface found, count"
scalar ConfiguratorA.host1.ipv4.ip packetDropNoInterfaceFound:sum(packetBytes) 0
attr interpolationmode none
attr recordingmode sum(packetBytes)
attr source packetDropReasonIsNoInterfaceFound(packetDropped)
attr title "packet drop: no interface found, sum(packetBytes)"
scalar ConfiguratorA.host1.ipv4.ip packetDropNoRouteFound:count 0
attr interpolationmode none
attr recordingmode count
attr source packetDropReasonIsNoRouteFound(packetDropped)
attr title "packet drop: no route found, count"
scalar ConfiguratorA.host1.ipv4.ip packetDropNoRouteFound:sum(packetBytes) 0
attr interpolationmode none
attr recordingmode sum(packetBytes)
attr source packetDropReasonIsNoRouteFound(packetDropped)
attr title "packet drop: no route found, sum(packetBytes)"
scalar ConfiguratorA.host1.ipv4.ip packetDropUndefined:count 0
attr interpolationmode none
attr recordingmode count
attr source packetDropReasonIsUndefined(packetDropped)
attr title "packet drop: undefined, count"
scalar ConfiguratorA.host1.ipv4.ip packetDropUndefined:sum(packetBytes) 0
attr interpolationmode none
attr recordingmode sum(packetBytes)
attr source packetDropReasonIsUndefined(packetDropped)
attr title "packet drop: undefined, sum(packetBytes)"
scalar ConfiguratorA.host1.udp packetReceived:count 0
attr interpolationmode none
attr recordingmode count
attr source packetReceived
attr title "packets received, count"
scalar ConfiguratorA.host1.udp packetReceived:sum(packetBytes) 0
attr interpolationmode none
attr recordingmode sum(packetBytes)
attr source packetReceived
attr title "packets received, sum(packetBytes)"
scalar ConfiguratorA.host1.udp packetSent:count 0
attr interpolationmode none
attr recordingmode count
attr source packetSent
attr title "packets sent, count"
scalar ConfiguratorA.host1.udp packetSent:sum(packetBytes) 0
attr interpolationmode none
attr recordingmode sum(packetBytes)
attr source packetSent
attr title "packets sent, sum(packetBytes)"
scalar ConfiguratorA.host1.udp passedUpPk:count 0
attr interpolationmode none
attr recordingmode count
attr source packetSentToUpper
attr title "packets passed up, count"
scalar ConfiguratorA.host1.udp droppedPkWrongPort:count 0
attr interpolationmode none
attr recordingmode count
attr source packetDropReasonIsNoPortFound(packetDropped)
attr title "packets dropped (wrong port), count"
scalar ConfiguratorA.host1.udp droppedPkBadChecksum:count 0
attr interpolationmode none
attr recordingmode count
attr source packetDropReasonIsIncorrectlyReceived(packetDropped)
attr title "packets dropped (checksum error), count"
scalar ConfiguratorA.host1.app[0] "Pings sent" 500
scalar ConfiguratorA.host1.app[0] "ping loss rate (%)" 0
scalar ConfiguratorA.host1.app[0] "ping out-of-order rate (%)" 0
scalar ConfiguratorA.host1.app[0] pingRxSeq:count 500
attr interpolationmode none
attr recordingmode count
attr title "ping rx seq, count"
scalar ConfiguratorA.host1.app[0] pingTxSeq:count 500
attr interpolationmode none
attr recordingmode count
attr title "ping tx seq, count"
scalar ConfiguratorA.host1.app[0] numOutOfOrderArrivals:last nan
attr interpolationmode none
attr recordingmode last
attr title "ping out-of-order arrivals, last"
scalar ConfiguratorA.host1.app[0] numLost:last nan
attr interpolationmode none
attr recordingmode last
attr title "pings lost, last"
statistic ConfiguratorA.host1.app[0] rtt:histogram
field count 500
field mean 0.0001062
field stddev 0
field min 0.0001062
field max 0.0001062
field sum 0.0531
field sqrsum 5.63922e-06
attr interpolationmode none
attr recordingmode histogram
attr title "ping round-trip time"
attr unit s
bin	-inf	0
bin	0	500
bin	0.01	0
bin	0.02	0
bin	0.03	0
bin	0.04	0
bin	0.05	0
bin	0.06	0
bin	0.07	0
bin	0.08	0
bin	0.09	0
bin	0.1	0
bin	0.11	0
bin	0.12	0
bin	0.13	0
bin	0.14	0
bin	0.15	0
bin	0.16	0
bin	0.17	0
bin	0.18	0
bin	0.19	0
bin	0.2	0
bin	0.21	0
bin	0.22	0
bin	0.23	0
bin	0.24	0
bin	0.25	0
bin	0.26	0
bin	0.27	0
bin	0.28	0
bin	0.29	0
bin	0.3	0
bin	0.31	0
bin	0.32	0
bin	0.33	0
bin	0.34	0
bin	0.35	0
bin	0.36	0
bin	0.37	0
bin	0.38	0
bin	0.39	0
bin	0.4	0
bin	0.41	0
bin	0.42	0
bin	0.43	0
bin	0.44	0
bin	0.45	0
bin	0.46	0
bin	0.47	0
bin	0.48	0
bin	0.49	0
bin	0.5	0
bin	0.51	0
scalar ConfiguratorA.host2.ethernet pauseSent:count 0
attr recordingmode count
attr title "pause sent, count"
scalar ConfiguratorA.host2.ethernet pauseSent:sum 0
attr recordingmode sum
attr title "pause sent, sum"
scalar ConfiguratorA.host2.ethernet decapPk:count 0
attr interpolationmode none
attr recordingmode count
attr source decapPk
attr title "packets decapsulated, count"
scalar ConfiguratorA.host2.ethernet decapPk:sum(packetBytes) 0
attr interpolationmode none
attr recordingmode sum(packetBytes)
attr source decapPk
attr title "packets decapsulated, sum(packetBytes)"
scalar ConfiguratorA.host2.ethernet encapPk:count 0
attr interpolationmode none
attr recordingmode count
attr source encapPk
attr title "packets encapsulated, count"
scalar ConfiguratorA.host2.ethernet encapPk:sum(packetBytes) 0
attr interpolationmode none
attr recordingmode sum(packetBytes)
attr source encapPk
attr title "packets encapsulated, sum(packetBytes)"
scalar ConfiguratorA.host2.lo[0].lo rcvdPkFromHl:count 0
attr interpolationmode none
attr recordingmode count
attr source packetReceivedFromUpper
attr title "packets received from higher layer, count"
scalar ConfiguratorA.host2.lo[0].lo rcvdPkFromHl:sum(packetBytes) 0
attr interpolationmode none
attr recordingmode sum(packetBytes)
attr source packetReceivedFromUpper
attr title "packets received from higher layer, sum(packetBytes)"
scalar ConfiguratorA.host2.lo[0].lo passedUpPk:count 0
attr interpolationmode none
attr recordingmode count
attr source packetSentToUpper
attr title "packets passed to higher layer, count"
scalar ConfiguratorA.host2.lo[0].lo passedUpPk:sum(packetBytes) 0
attr interpolationmode none
attr recordingmode sum(packetBytes)
attr source packetSentToUpper
attr title "packets passed to higher layer, sum(packetBytes)"
scalar ConfiguratorA.host2.lo[0] packetDropInterfaceDown:count 0
attr interpolationmode none
attr recordingmode count
attr source packetDropReasonIsInterfaceDown(packetDropped)
attr title "packet drops: interface down, count"
scalar ConfiguratorA.host2.lo[0] packetDropInterfaceDown:sum(packetBytes) 0
attr interpolationmode none
attr recordingmode sum(packetBytes)
attr source packetDropReasonIsInterfaceDown(packetDropped)
attr title "packet drops: interface down, sum(packetBytes)"
scalar ConfiguratorA.host2.lo[0] packetDropNoCarrier:count 0
attr interpolationmode none
attr recordingmode count
attr source packetDropReasonIsNoCarrier(packetDropped)
attr title "packet drops: no carrier, count"
scalar ConfiguratorA.host2.lo[0] packetDropNoCarrier:sum(packetBytes) 0
attr interpolationmode none
attr recordingmode sum(packetBytes)
attr source packetDropReasonIsNoCarrier(packetDropped)
attr title "packet drops: no carrier, sum(packetBytes)"
scalar ConfiguratorA.host2.eth[0].queue queueLength:last 0
attr autoWarmupFilter false
attr interpolationmode sample-hold
attr recordingmode last
attr source "warmup(atomic(constant0(packetPushEnded) + count(packetPushStarted) - count(packetPulled) - count(packetRemoved) - count(packetDropped)))"
attr title "queue length, last"
attr unit pk
scalar ConfiguratorA.host2.eth[0].queue queueLength:max 0
attr autoWarmupFilter false
attr interpolationmode sample-hold
attr recordingmode max
attr source "warmup(atomic(constant0(packetPushEnded) + count(packetPushStarted) - count(packetPulled) - count(packetRemoved) - count(packetDropped)))"
attr title "queue length, max"
attr unit pk
scalar ConfiguratorA.host2.eth[0].queue queueLength:timeavg 0
attr autoWarmupFilter false
attr interpolationmode sample-hold
attr recordingmode timeavg
attr source "warmup(atomic(constant0(packetPushEnded) + count(packetPushStarted) - count(packetPulled) - count(packetRemoved) - count(packetDropped)))"
attr title "queue length, timeavg"
attr unit pk
scalar ConfiguratorA.host2.eth[0].queue queueBitLength:last 0
attr autoWarmupFilter false
attr interpolationmode sample-hold
attr recordingmode last
attr source "warmup(atomic(constant0(packetPushEnded) + sum(packetLength(packetPushStarted)) - sum(packetLength(packetPulled)) - sum(packetLength(packetRemoved)) - sum(packetLength(packetDropped))))"
attr title "queue bit length, last"
attr unit b
scalar ConfiguratorA.host2.eth[0].queue queueBitLength:max 0
attr autoWarmupFilter false
attr interpolationmode sample-hold
attr recordingmode max
attr source "warmup(atomic(constant0(packetPushEnded) + sum(packetLength(packetPushStarted)) - sum(packetLength(packetPulled)) - sum(packetLength(packetRemoved)) - sum(packetLength(packetDropped))))"
attr title "queue bit length, max"
attr unit b
scalar ConfiguratorA.host2.eth[0].queue queueBitLength:timeavg 0
attr autoWarmupFilter false
attr interpolationmode sample-hold
attr recordingmode timeavg
attr source "warmup(atomic(constant0(packetPushEnded) + sum(packetLength(packetPushStarted)) - sum(packetLength(packetPulled)) - sum(packetLength(packetRemoved)) - sum(packetLength(packetDropped))))"
attr title "queue bit length, timeavg"
attr unit b
statistic ConfiguratorA.host2.eth[0].queue queueingTime:histogram
field count 0
field mean -nan
field stddev nan
field min nan
field max nan
field sum 0
field sqrsum 0
attr interpolationmode none
attr recordingmode histogram
attr source queueingTime(packetPulled)
attr title "queueing times"
attr unit s
bin	-inf	0
bin	0	0
bin	1	0
scalar ConfiguratorA.host2.eth[0].queue outgoingPackets:count 0
attr recordingmode count
attr source packetPulled
attr title "outgoing packets, count"
attr unit pk
scalar ConfiguratorA.host2.eth[0].queue outgoingPacketLengths:sum 0
attr interpolationmode none
attr recordingmode sum
attr source packetLength(packetPulled)
attr title "outgoing packet lengths, sum"
attr unit b
statistic ConfiguratorA.host2.eth[0].queue outgoingPacketLengths:histogram
field count 0
field mean -nan
field stddev nan
field min nan
field max nan
field sum 0
field sqrsum 0
attr interpolationmode none
attr recordingmode histogram
attr source packetLength(packetPulled)
attr title "outgoing packet lengths"
attr unit b
bin	-inf	0
bin	0	0
bin	1	0
statistic ConfiguratorA.host2.eth[0].queue flowQueueingTime:histogram
field count 0
field mean -nan
field stddev nan
field min nan
field max nan
field sum 0
field sqrsum 0
attr interpolationmode none
attr recordingmode histogram
attr source queueingTime(demuxFlow(packetPulled))
attr title "flow queueing times"
attr unit s
bin	-inf	0
bin	0	0
bin	1	0
scalar ConfiguratorA.host2.eth[0].queue incomingPackets:count 0
attr recordingmode count
attr source packetPushStarted
attr title "incoming packets, count"
attr unit pk
scalar ConfiguratorA.host2.eth[0].queue incomingPacketLengths:sum 0
attr interpolationmode none
attr recordingmode sum
attr source packetLength(packetPushStarted)
attr title "incoming packet lengths, sum"
attr unit b
statistic ConfiguratorA.host2.eth[0].queue incomingPacketLengths:histogram
field count 0
field mean -nan
field stddev nan
field min nan
field max nan
field sum 0
field sqrsum 0
attr interpolationmode none
attr recordingmode histogram
attr source packetLength(packetPushStarted)
attr title "incoming packet lengths"
attr unit b
bin	-inf	0
bin	0	0
bin	1	0
scalar ConfiguratorA.host2.eth[0].queue droppedPacketsQueueOverflow:count 0
attr interpolationmode none
attr recordingmode count
attr source packetDropReasonIsQueueOverflow(packetDropped)
attr title "dropped packets: queue overflow, count"
attr unit pk
scalar ConfiguratorA.host2.eth[0].queue droppedPacketLengthsQueueOverflow:sum 0
attr interpolationmode none
attr recordingmode sum
attr source packetLength(packetDropReasonIsQueueOverflow(packetDropped))
attr title "dropped packet lengths: queue overflow, sum"
attr unit b
scalar ConfiguratorA.host2.eth[0].mac "simulated time" 500
scalar ConfiguratorA.host2.eth[0].mac full-duplex 1
scalar ConfiguratorA.host2.eth[0].mac "frames/sec sent" 0
scalar ConfiguratorA.host2.eth[0].mac "frames/sec rcvd" 0
scalar ConfiguratorA.host2.eth[0].mac "bits/sec sent" 0
scalar ConfiguratorA.host2.eth[0].mac "bits/sec rcvd" 0
scalar ConfiguratorA.host2.eth[0].mac "rx channel idle (%)" 99.99999824
scalar ConfiguratorA.host2.eth[0].mac "rx channel utilization (%)" 1.76e-06
scalar ConfiguratorA.host2.eth[0].mac rxPausePkUnits:count 0
attr interpolationmode none
attr recordingmode count
attr title "pause units received, count"
scalar ConfiguratorA.host2.eth[0].mac rxPausePkUnits:sum 0
attr interpolationmode none
attr recordingmode sum
attr title "pause units received, sum"
scalar ConfiguratorA.host2.eth[0].mac txPausePkUnits:count 0
attr interpolationmode none
attr recordingmode count
attr title "pause units sent, count"
scalar ConfiguratorA.host2.eth[0].mac txPausePkUnits:sum 0
attr interpolationmode none
attr recordingmode sum
attr title "pause units sent, sum"
scalar ConfiguratorA.host2.eth[0].mac rxPkOk:count 0
attr interpolationmode none
attr recordingmode count
attr source rxPkOk
attr title "packets received OK, count"
scalar ConfiguratorA.host2.eth[0].mac rxPkOk:sum(packetBytes) 0
attr interpolationmode none
attr recordingmode sum(packetBytes)
attr source rxPkOk
attr title "packets received OK, sum(packetBytes)"
scalar ConfiguratorA.host2.eth[0].mac txPk:count 0
attr interpolationmode none
attr recordingmode count
attr source packetSentToLower
attr title "packets transmitted, count"
scalar ConfiguratorA.host2.eth[0].mac txPk:sum(packetBytes) 0
attr interpolationmode none
attr recordingmode sum(packetBytes)
attr source packetSentToLower
attr title "packets transmitted, sum(packetBytes)"
scalar ConfiguratorA.host2.eth[0].mac packetReceivedFromUpper:count 0
attr interpolationmode none
attr recordingmode count
attr source packetReceivedFromUpper
attr title "packet bytes from higher layer, count"
scalar ConfiguratorA.host2.eth[0].mac packetReceivedFromUpper:sum(packetBytes) 0
attr interpolationmode none
attr recordingmode sum(packetBytes)
attr source packetReceivedFromUpper
attr title "packet bytes from higher layer, sum(packetBytes)"
scalar ConfiguratorA.host2.eth[0].mac passedUpPk:count 0
attr interpolationmode none
attr recordingmode count
attr source packetSentToUpper
attr title "packets passed to higher layer, count"
scalar ConfiguratorA.host2.eth[0].mac passedUpPk:sum(packetBytes) 0
attr interpolationmode none
attr recordingmode sum(packetBytes)
attr source packetSentToUpper
attr title "packets passed to higher layer, sum(packetBytes)"
scalar ConfiguratorA.host2.eth[0].mac packetDropIncorrectlyReceived:count 0
attr interpolationmode none
attr recordingmode count
attr source packetDropReasonIsIncorrectlyReceived(packetDropped)
attr title "packet drop: incorrectly received, count"
scalar ConfiguratorA.host2.eth[0].mac packetDropIncorrectlyReceived:sum(packetBytes) 0
attr interpolationmode none
attr recordingmode sum(packetBytes)
attr source packetDropReasonIsIncorrectlyReceived(packetDropped)
attr title "packet drop: incorrectly received, sum(packetBytes)"
scalar ConfiguratorA.host2.eth[0].mac packetDropInterfaceDown:count 0
attr interpolationmode none
attr recordingmode count
attr source packetDropReasonIsInterfaceDown(packetDropped)
attr title "packet drop: interface down, count"
scalar ConfiguratorA.host2.eth[0].mac packetDropInterfaceDown:sum(packetBytes) 0
attr interpolationmode none
attr recordingmode sum(packetBytes)
attr source packetDropReasonIsInterfaceDown(packetDropped)
attr title "packet drop: interface down, sum(packetBytes)"
scalar ConfiguratorA.host2.eth[0].mac packetDropNotAddressedToUs:count 1
attr interpolationmode none
attr recordingmode count
attr source packetDropReasonIsNotAddressedToUs(packetDropped)
attr title "packet drop: not addressed to us, count"
scalar ConfiguratorA.host2.eth[0].mac packetDropNotAddressedToUs:sum(packetBytes) 102
attr interpolationmode none
attr recordingmode sum(packetBytes)
attr source packetDropReasonIsNotAddressedToUs(packetDropped)
attr title "packet drop: not addressed to us, sum(packetBytes)"
scalar ConfiguratorA.host2.eth[0] packetDropInterfaceDown:count 0
attr interpolationmode none
attr recordingmode count
attr source packetDropReasonIsInterfaceDown(packetDropped)
attr title "packet drops: interface down, count"
scalar ConfiguratorA.host2.eth[0] packetDropInterfaceDown:sum(packetBytes) 0
attr interpolationmode none
attr recordingmode sum(packetBytes)
attr source packetDropReasonIsInterfaceDown(packetDropped)
attr title "packet drops: interface down, sum(packetBytes)"
scalar ConfiguratorA.host2.eth[0] packetDropNoCarrier:count 0
attr interpolationmode none
attr recordingmode count
attr source packetDropReasonIsNoCarrier(packetDropped)
attr title "packet drops: no carrier, count"
scalar ConfiguratorA.host2.eth[0] packetDropNoCarrier:sum(packetBytes) 0
attr interpolationmode none
attr recordingmode sum(packetBytes)
attr source packetDropReasonIsNoCarrier(packetDropped)
attr title "packet drops: no carrier, sum(packetBytes)"
scalar ConfiguratorA.host2.ipv4.ip packetDropAddressResolutionFailed:count 0
attr interpolationmode none
attr recordingmode count
attr source packetDropReasonIsAddressResolutionFailed(packetDropped)
attr title "packet drop: address resolution failed, count"
scalar ConfiguratorA.host2.ipv4.ip packetDropAddressResolutionFailed:sum(packetBytes) 0
attr interpolationmode none
attr recordingmode sum(packetBytes)
attr source packetDropReasonIsAddressResolutionFailed(packetDropped)
attr title "packet drop: address resolution failed, sum(packetBytes)"
scalar ConfiguratorA.host2.ipv4.ip packetDropHopLimitReached:count 0
attr interpolationmode none
attr recordingmode count
attr source packetDropReasonIsHopLimitReached(packetDropped)
attr title "packet drop: hop limit reached, count"
scalar ConfiguratorA.host2.ipv4.ip packetDropHopLimitReached:sum(packetBytes) 0
attr interpolationmode none
attr recordingmode sum(packetBytes)
attr source packetDropReasonIsHopLimitReached(packetDropped)
attr title "packet drop: hop limit reached, sum(packetBytes)"
scalar ConfiguratorA.host2.ipv4.ip packetDropForwardingDisabled:count 0
attr interpolationmode none
attr recordingmode count
attr source packetDropReasonIsForwardingDisabled(packetDropped)
attr title "packet drop: forwarding disabled, count"
scalar ConfiguratorA.host2.ipv4.ip packetDropForwardingDisabled:sum(packetBytes) 0
attr interpolationmode none
attr recordingmode sum(packetBytes)
attr source packetDropReasonIsForwardingDisabled(packetDropped)
attr title "packet drop: forwarding disabled, sum(packetBytes)"
scalar ConfiguratorA.host2.ipv4.ip packetDropNoInterfaceFound:count 0
attr interpolationmode none
attr recordingmode count
attr source packetDropReasonIsNoInterfaceFound(packetDropped)
attr title "packet drop: no interface found, count"
scalar ConfiguratorA.host2.ipv4.ip packetDropNoInterfaceFound:sum(packetBytes) 0
attr interpolationmode none
attr recordingmode sum(packetBytes)
attr source packetDropReasonIsNoInterfaceFound(packetDropped)
attr title "packet drop: no interface found, sum(packetBytes)"
scalar ConfiguratorA.host2.ipv4.ip packetDropNoRouteFound:count 0
attr interpolationmode none
attr recordingmode count
attr source packetDropReasonIsNoRouteFound(packetDropped)
attr title "packet drop: no route found, count"
scalar ConfiguratorA.host2.ipv4.ip packetDropNoRouteFound:sum(packetBytes) 0
attr interpolationmode none
attr recordingmode sum(packetBytes)
attr source packetDropReasonIsNoRouteFound(packetDropped)
attr title "packet drop: no route found, sum(packetBytes)"
scalar ConfiguratorA.host2.ipv4.ip packetDropUndefined:count 0
attr interpolationmode none
attr recordingmode count
attr source packetDropReasonIsUndefined(packetDropped)
attr title "packet drop: undefined, count"
scalar ConfiguratorA.host2.ipv4.ip packetDropUndefined:sum(packetBytes) 0
attr interpolationmode none
attr recordingmode sum(packetBytes)
attr source packetDropReasonIsUndefined(packetDropped)
attr title "packet drop: undefined, sum(packetBytes)"
scalar ConfiguratorA.host2.udp packetReceived:count 0
attr interpolationmode none
attr recordingmode count
attr source packetReceived
attr title "packets received, count"
scalar ConfiguratorA.host2.udp packetReceived:sum(packetBytes) 0
attr interpolationmode none
attr recordingmode sum(packetBytes)
attr source packetReceived
attr title "packets received, sum(packetBytes)"
scalar ConfiguratorA.host2.udp packetSent:count 0
attr interpolationmode none
attr recordingmode count
attr source packetSent
attr title "packets sent, count"
scalar ConfiguratorA.host2.udp packetSent:sum(packetBytes) 0
attr interpolationmode none
attr recordingmode sum(packetBytes)
attr source packetSent
attr title "packets sent, sum(packetBytes)"
scalar ConfiguratorA.host2.udp passedUpPk:count 0
attr interpolationmode none
attr recordingmode count
attr source packetSentToUpper
attr title "packets passed up, count"
scalar ConfiguratorA.host2.udp droppedPkWrongPort:count 0
attr interpolationmode none
attr recordingmode count
attr source packetDropReasonIsNoPortFound(packetDropped)
attr title "packets dropped (wrong port), count"
scalar ConfiguratorA.host2.udp droppedPkBadChecksum:count 0
attr interpolationmode none
attr recordingmode count
attr source packetDropReasonIsIncorrectlyReceived(packetDropped)
attr title "packets dropped (checksum error), count"
scalar ConfiguratorA.host3.ethernet pauseSent:count 0
attr recordingmode count
attr title "pause sent, count"
scalar ConfiguratorA.host3.ethernet pauseSent:sum 0
attr recordingmode sum
attr title "pause sent, sum"
scalar ConfiguratorA.host3.ethernet decapPk:count 0
attr interpolationmode none
attr recordingmode count
attr source decapPk
attr title "packets decapsulated, count"
scalar ConfiguratorA.host3.ethernet decapPk:sum(packetBytes) 0
attr interpolationmode none
attr recordingmode sum(packetBytes)
attr source decapPk
attr title "packets decapsulated, sum(packetBytes)"
scalar ConfiguratorA.host3.ethernet encapPk:count 0
attr interpolationmode none
attr recordingmode count
attr source encapPk
attr title "packets encapsulated, count"
scalar ConfiguratorA.host3.ethernet encapPk:sum(packetBytes) 0
attr interpolationmode none
attr recordingmode sum(packetBytes)
attr source encapPk
attr title "packets encapsulated, sum(packetBytes)"
scalar ConfiguratorA.host3.lo[0].lo rcvdPkFromHl:count 0
attr interpolationmode none
attr recordingmode count
attr source packetReceivedFromUpper
attr title "packets received from higher layer, count"
scalar ConfiguratorA.host3.lo[0].lo rcvdPkFromHl:sum(packetBytes) 0
attr interpolationmode none
attr recordingmode sum(packetBytes)
attr source packetReceivedFromUpper
attr title "packets received from higher layer, sum(packetBytes)"
scalar ConfiguratorA.host3.lo[0].lo passedUpPk:count 0
attr interpolationmode none
attr recordingmode count
attr source packetSentToUpper
attr title "packets passed to higher layer, count"
scalar ConfiguratorA.host3.lo[0].lo passedUpPk:sum(packetBytes) 0
attr interpolationmode none
attr recordingmode sum(packetBytes)
attr source packetSentToUpper
attr title "packets passed to higher layer, sum(packetBytes)"
scalar ConfiguratorA.host3.lo[0] packetDropInterfaceDown:count 0
attr interpolationmode none
attr recordingmode count
attr source packetDropReasonIsInterfaceDown(packetDropped)
attr title "packet drops: interface down, count"
scalar ConfiguratorA.host3.lo[0] packetDropInterfaceDown:sum(packetBytes) 0
attr interpolationmode none
attr recordingmode sum(packetBytes)
attr source packetDropReasonIsInterfaceDown(packetDropped)
attr title "packet drops: interface down, sum(packetBytes)"
scalar ConfiguratorA.host3.lo[0] packetDropNoCarrier:count 0
attr interpolationmode none
attr recordingmode count
attr source packetDropReasonIsNoCarrier(packetDropped)
attr title "packet drops: no carrier, count"
scalar ConfiguratorA.host3.lo[0] packetDropNoCarrier:sum(packetBytes) 0
attr interpolationmode none
attr recordingmode sum(packetBytes)
attr source packetDropReasonIsNoCarrier(packetDropped)
attr title "packet drops: no carrier, sum(packetBytes)"
scalar ConfiguratorA.host3.eth[0].queue queueLength:last 0
attr autoWarmupFilter false
attr interpolationmode sample-hold
attr recordingmode last
attr source "warmup(atomic(constant0(packetPushEnded) + count(packetPushStarted) - count(packetPulled) - count(packetRemoved) - count(packetDropped)))"
attr title "queue length, last"
attr unit pk
scalar ConfiguratorA.host3.eth[0].queue queueLength:max 0
attr autoWarmupFilter false
attr interpolationmode sample-hold
attr recordingmode max
attr source "warmup(atomic(constant0(packetPushEnded) + count(packetPushStarted) - count(packetPulled) - count(packetRemoved) - count(packetDropped)))"
attr title "queue length, max"
attr unit pk
scalar ConfiguratorA.host3.eth[0].queue queueLength:timeavg 0
attr autoWarmupFilter false
attr interpolationmode sample-hold
attr recordingmode timeavg
attr source "warmup(atomic(constant0(packetPushEnded) + count(packetPushStarted) - count(packetPulled) - count(packetRemoved) - count(packetDropped)))"
attr title "queue length, timeavg"
attr unit pk
scalar ConfiguratorA.host3.eth[0].queue queueBitLength:last 0
attr autoWarmupFilter false
attr interpolationmode sample-hold
attr recordingmode last
attr source "warmup(atomic(constant0(packetPushEnded) + sum(packetLength(packetPushStarted)) - sum(packetLength(packetPulled)) - sum(packetLength(packetRemoved)) - sum(packetLength(packetDropped))))"
attr title "queue bit length, last"
attr unit b
scalar ConfiguratorA.host3.eth[0].queue queueBitLength:max 0
attr autoWarmupFilter false
attr interpolationmode sample-hold
attr recordingmode max
attr source "warmup(atomic(constant0(packetPushEnded) + sum(packetLength(packetPushStarted)) - sum(packetLength(packetPulled)) - sum(packetLength(packetRemoved)) - sum(packetLength(packetDropped))))"
attr title "queue bit length, max"
attr unit b
scalar ConfiguratorA.host3.eth[0].queue queueBitLength:timeavg 0
attr autoWarmupFilter false
attr interpolationmode sample-hold
attr recordingmode timeavg
attr source "warmup(atomic(constant0(packetPushEnded) + sum(packetLength(packetPushStarted)) - sum(packetLength(packetPulled)) - sum(packetLength(packetRemoved)) - sum(packetLength(packetDropped))))"
attr title "queue bit length, timeavg"
attr unit b
statistic ConfiguratorA.host3.eth[0].queue queueingTime:histogram
field count 0
field mean -nan
field stddev nan
field min nan
field max nan
field sum 0
field sqrsum 0
attr interpolationmode none
attr recordingmode histogram
attr source queueingTime(packetPulled)
attr title "queueing times"
attr unit s
bin	-inf	0
bin	0	0
bin	1	0
scalar ConfiguratorA.host3.eth[0].queue outgoingPackets:count 0
attr recordingmode count
attr source packetPulled
attr title "outgoing packets, count"
attr unit pk
scalar ConfiguratorA.host3.eth[0].queue outgoingPacketLengths:sum 0
attr interpolationmode none
attr recordingmode sum
attr source packetLength(packetPulled)
attr title "outgoing packet lengths, sum"
attr unit b
statistic ConfiguratorA.host3.eth[0].queue outgoingPacketLengths:histogram
field count 0
field mean -nan
field stddev nan
field min nan
field max nan
field sum 0
field sqrsum 0
attr interpolationmode none
attr recordingmode histogram
attr source packetLength(packetPulled)
attr title "outgoing packet lengths"
attr unit b
bin	-inf	0
bin	0	0
bin	1	0
statistic ConfiguratorA.host3.eth[0].queue flowQueueingTime:histogram
field count 0
field mean -nan
field stddev nan
field min nan
field max nan
field sum 0
field sqrsum 0
attr interpolationmode none
attr recordingmode histogram
attr source queueingTime(demuxFlow(packetPulled))
attr title "flow queueing times"
attr unit s
bin	-inf	0
bin	0	0
bin	1	0
scalar ConfiguratorA.host3.eth[0].queue incomingPackets:count 0
attr recordingmode count
attr source packetPushStarted
attr title "incoming packets, count"
attr unit pk
scalar ConfiguratorA.host3.eth[0].queue incomingPacketLengths:sum 0
attr interpolationmode none
attr recordingmode sum
attr source packetLength(packetPushStarted)
attr title "incoming packet lengths, sum"
attr unit b
statistic ConfiguratorA.host3.eth[0].queue incomingPacketLengths:histogram
field count 0
field mean -nan
field stddev nan
field min nan
field max nan
field sum 0
field sqrsum 0
attr interpolationmode none
attr recordingmode histogram
attr source packetLength(packetPushStarted)
attr title "incoming packet lengths"
attr unit b
bin	-inf	0
bin	0	0
bin	1	0
scalar ConfiguratorA.host3.eth[0].queue droppedPacketsQueueOverflow:count 0
attr interpolationmode none
attr recordingmode count
attr source packetDropReasonIsQueueOverflow(packetDropped)
attr title "dropped packets: queue overflow, count"
attr unit pk
scalar ConfiguratorA.host3.eth[0].queue droppedPacketLengthsQueueOverflow:sum 0
attr interpolationmode none
attr recordingmode sum
attr source packetLength(packetDropReasonIsQueueOverflow(packetDropped))
attr title "dropped packet lengths: queue overflow, sum"
attr unit b
scalar ConfiguratorA.host3.eth[0].mac "simulated time" 500
scalar ConfiguratorA.host3.eth[0].mac full-duplex 1
scalar ConfiguratorA.host3.eth[0].mac "frames/sec sent" 0
scalar ConfiguratorA.host3.eth[0].mac "frames/sec rcvd" 0
scalar ConfiguratorA.host3.eth[0].mac "bits/sec sent" 0
scalar ConfiguratorA.host3.eth[0].mac "bits/sec rcvd" 0
scalar ConfiguratorA.host3.eth[0].mac "rx channel idle (%)" 100
scalar ConfiguratorA.host3.eth[0].mac "rx channel utilization (%)" 0
scalar ConfiguratorA.host3.eth[0].mac rxPausePkUnits:count 0
attr interpolationmode none
attr recordingmode count
attr title "pause units received, count"
scalar ConfiguratorA.host3.eth[0].mac rxPausePkUnits:sum 0
attr interpolationmode none
attr recordingmode sum
attr title "pause units received, sum"
scalar ConfiguratorA.host3.eth[0].mac txPausePkUnits:count 0
attr interpolationmode none
attr recordingmode count
attr title "pause units sent, count"
scalar ConfiguratorA.host3.eth[0].mac txPausePkUnits:sum 0
attr interpolationmode none
attr recordingmode sum
attr title "pause units sent, sum"
scalar ConfiguratorA.host3.eth[0].mac rxPkOk:count 0
attr interpolationmode none
attr recordingmode count
attr source rxPkOk
attr title "packets received OK, count"
scalar ConfiguratorA.host3.eth[0].mac rxPkOk:sum(packetBytes) 0
attr interpolationmode none
attr recordingmode sum(packetBytes)
attr source rxPkOk
attr title "packets received OK, sum(packetBytes)"
scalar ConfiguratorA.host3.eth[0].mac txPk:count 0
attr interpolationmode none
attr recordingmode count
attr source packetSentToLower
attr title "packets transmitted, count"
scalar ConfiguratorA.host3.eth[0].mac txPk:sum(packetBytes) 0
attr interpolationmode none
attr recordingmode sum(packetBytes)
attr source packetSentToLower
attr title "packets transmitted, sum(packetBytes)"
scalar ConfiguratorA.host3.eth[0].mac packetReceivedFromUpper:count 0
attr interpolationmode none
attr recordingmode count
attr source packetReceivedFromUpper
attr title "packet bytes from higher layer, count"
scalar ConfiguratorA.host3.eth[0].mac packetReceivedFromUpper:sum(packetBytes) 0
attr interpolationmode none
attr recordingmode sum(packetBytes)
attr source packetReceivedFromUpper
attr title "packet bytes from higher layer, sum(packetBytes)"
scalar ConfiguratorA.host3.eth[0].mac passedUpPk:count 0
attr interpolationmode none
attr recordingmode count
attr source packetSentToUpper
attr title "packets passed to higher layer, count"
scalar ConfiguratorA.host3.eth[0].mac passedUpPk:sum(packetBytes) 0
attr interpolationmode none
attr recordingmode sum(packetBytes)
attr source packetSentToUpper
attr title "packets passed to higher layer, sum(packetBytes)"
scalar ConfiguratorA.host3.eth[0].mac packetDropIncorrectlyReceived:count 0
attr interpolationmode none
attr recordingmode count
attr source packetDropReasonIsIncorrectlyReceived(packetDropped)
attr title "packet drop: incorrectly received, count"
scalar ConfiguratorA.host3.eth[0].mac packetDropIncorrectlyReceived:sum(packetBytes) 0
attr interpolationmode none
attr recordingmode sum(packetBytes)
attr source packetDropReasonIsIncorrectlyReceived(packetDropped)
attr title "packet drop: incorrectly received, sum(packetBytes)"
scalar ConfiguratorA.host3.eth[0].mac packetDropInterfaceDown:count 0
attr interpolationmode none
attr recordingmode count
attr source packetDropReasonIsInterfaceDown(packetDropped)
attr title "packet drop: interface down, count"
scalar ConfiguratorA.host3.eth[0].mac packetDropInterfaceDown:sum(packetBytes) 0
attr interpolationmode none
attr recordingmode sum(packetBytes)
attr source packetDropReasonIsInterfaceDown(packetDropped)
attr title "packet drop: interface down, sum(packetBytes)"
scalar ConfiguratorA.host3.eth[0].mac packetDropNotAddressedToUs:count 0
attr interpolationmode none
attr recordingmode count
attr source packetDropReasonIsNotAddressedToUs(packetDropped)
attr title "packet drop: not addressed to us, count"
scalar ConfiguratorA.host3.eth[0].mac packetDropNotAddressedToUs:sum(packetBytes) 0
attr interpolationmode none
attr recordingmode sum(packetBytes)
attr source packetDropReasonIsNotAddressedToUs(packetDropped)
attr title "packet drop: not addressed to us, sum(packetBytes)"
scalar ConfiguratorA.host3.eth[0] packetDropInterfaceDown:count 0
attr interpolationmode none
attr recordingmode count
attr source packetDropReasonIsInterfaceDown(packetDropped)
attr title "packet drops: interface down, count"
scalar ConfiguratorA.host3.eth[0] packetDropInterfaceDown:sum(packetBytes) 0
attr interpolationmode none
attr recordingmode sum(packetBytes)
attr source packetDropReasonIsInterfaceDown(packetDropped)
attr title "packet drops: interface down, sum(packetBytes)"
scalar ConfiguratorA.host3.eth[0] packetDropNoCarrier:count 0
attr interpolationmode none
attr recordingmode count
attr source packetDropReasonIsNoCarrier(packetDropped)
attr title "packet drops: no carrier, count"
scalar ConfiguratorA.host3.eth[0] packetDropNoCarrier:sum(packetBytes) 0
attr interpolationmode none
attr recordingmode sum(packetBytes)
attr source packetDropReasonIsNoCarrier(packetDropped)
attr title "packet drops: no carrier, sum(packetBytes)"
scalar ConfiguratorA.host3.ipv4.ip packetDropAddressResolutionFailed:count 0
attr interpolationmode none
attr recordingmode count
attr source packetDropReasonIsAddressResolutionFailed(packetDropped)
attr title "packet drop: address resolution failed, count"
scalar ConfiguratorA.host3.ipv4.ip packetDropAddressResolutionFailed:sum(packetBytes) 0
attr interpolationmode none
attr recordingmode sum(packetBytes)
attr source packetDropReasonIsAddressResolutionFailed(packetDropped)
attr title "packet drop: address resolution failed, sum(packetBytes)"
scalar ConfiguratorA.host3.ipv4.ip packetDropHopLimitReached:count 0
attr interpolationmode none
attr recordingmode count
attr source packetDropReasonIsHopLimitReached(packetDropped)
attr title "packet drop: hop limit reached, count"
scalar ConfiguratorA.host3.ipv4.ip packetDropHopLimitReached:sum(packetBytes) 0
attr interpolationmode none
attr recordingmode sum(packetBytes)
attr source packetDropReasonIsHopLimitReached(packetDropped)
attr title "packet drop: hop limit reached, sum(packetBytes)"
scalar ConfiguratorA.host3.ipv4.ip packetDropForwardingDisabled:count 0
attr interpolationmode none
attr recordingmode count
attr source packetDropReasonIsForwardingDisabled(packetDropped)
attr title "packet drop: forwarding disabled, count"
scalar ConfiguratorA.host3.ipv4.ip packetDropForwardingDisabled:sum(packetBytes) 0
attr interpolationmode none
attr recordingmode sum(packetBytes)
attr source packetDropReasonIsForwardingDisabled(packetDropped)
attr title "packet drop: forwarding disabled, sum(packetBytes)"
scalar ConfiguratorA.host3.ipv4.ip packetDropNoInterfaceFound:count 0
attr interpolationmode none
attr recordingmode count
attr source packetDropReasonIsNoInterfaceFound(packetDropped)
attr title "packet drop: no interface found, count"
scalar ConfiguratorA.host3.ipv4.ip packetDropNoInterfaceFound:sum(packetBytes) 0
attr interpolationmode none
attr recordingmode sum(packetBytes)
attr source packetDropReasonIsNoInterfaceFound(packetDropped)
attr title "packet drop: no interface found, sum(packetBytes)"
scalar ConfiguratorA.host3.ipv4.ip packetDropNoRouteFound:count 0
attr interpolationmode none
attr recordingmode count
attr source packetDropReasonIsNoRouteFound(packetDropped)
attr title "packet drop: no route found, count"
scalar ConfiguratorA.host3.ipv4.ip packetDropNoRouteFound:sum(packetBytes) 0
attr interpolationmode none
attr recordingmode sum(packetBytes)
attr source packetDropReasonIsNoRouteFound(packetDropped)
attr title "packet drop: no route found, sum(packetBytes)"
scalar ConfiguratorA.host3.ipv4.ip packetDropUndefined:count 0
attr interpolationmode none
attr recordingmode count
attr source packetDropReasonIsUndefined(packetDropped)
attr title "packet drop: undefined, count"
scalar ConfiguratorA.host3.ipv4.ip packetDropUndefined:sum(packetBytes) 0
attr interpolationmode none
attr recordingmode sum(packetBytes)
attr source packetDropReasonIsUndefined(packetDropped)
attr title "packet drop: undefined, sum(packetBytes)"
scalar ConfiguratorA.host3.udp packetReceived:count 0
attr interpolationmode none
attr recordingmode count
attr source packetReceived
attr title "packets received, count"
scalar ConfiguratorA.host3.udp packetReceived:sum(packetBytes) 0
attr interpolationmode none
attr recordingmode sum(packetBytes)
attr source packetReceived
attr title "packets received, sum(packetBytes)"
scalar ConfiguratorA.host3.udp packetSent:count 0
attr interpolationmode none
attr recordingmode count
attr source packetSent
attr title "packets sent, count"
scalar ConfiguratorA.host3.udp packetSent:sum(packetBytes) 0
attr interpolationmode none
attr recordingmode sum(packetBytes)
attr source packetSent
attr title "packets sent, sum(packetBytes)"
scalar ConfiguratorA.host3.udp passedUpPk:count 0
attr interpolationmode none
attr recordingmode count
attr source packetSentToUpper
attr title "packets passed up, count"
scalar ConfiguratorA.host3.udp droppedPkWrongPort:count 0
attr interpolationmode none
attr recordingmode count
attr source packetDropReasonIsNoPortFound(packetDropped)
attr title "packets dropped (wrong port), count"
scalar ConfiguratorA.host3.udp droppedPkBadChecksum:count 0
attr interpolationmode none
attr recordingmode count
attr source packetDropReasonIsIncorrectlyReceived(packetDropped)
attr title "packets dropped (checksum error), count"
scalar ConfiguratorA.router0.ethernet pauseSent:count 0
attr recordingmode count
attr title "pause sent, count"
scalar ConfiguratorA.router0.ethernet pauseSent:sum 0
attr recordingmode sum
attr title "pause sent, sum"
scalar ConfiguratorA.router0.ethernet decapPk:count 1000
attr interpolationmode none
attr recordingmode count
attr source decapPk
attr title "packets decapsulated, count"
scalar ConfiguratorA.router0.ethernet decapPk:sum(packetBytes) 84000
attr interpolationmode none
attr recordingmode sum(packetBytes)
attr source decapPk
attr title "packets decapsulated, sum(packetBytes)"
scalar ConfiguratorA.router0.ethernet encapPk:count 1000
attr interpolationmode none
attr recordingmode count
attr source encapPk
attr title "packets encapsulated, count"
scalar ConfiguratorA.router0.ethernet encapPk:sum(packetBytes) 84000
attr interpolationmode none
attr recordingmode sum(packetBytes)
attr source encapPk
attr title "packets encapsulated, sum(packetBytes)"
scalar ConfiguratorA.router0.lo[0].lo rcvdPkFromHl:count 0
attr interpolationmode none
attr recordingmode count
attr source packetReceivedFromUpper
attr title "packets received from higher layer, count"
scalar ConfiguratorA.router0.lo[0].lo rcvdPkFromHl:sum(packetBytes) 0
attr interpolationmode none
attr recordingmode sum(packetBytes)
attr source packetReceivedFromUpper
attr title "packets received from higher layer, sum(packetBytes)"
scalar ConfiguratorA.router0.lo[0].lo passedUpPk:count 0
attr interpolationmode none
attr recordingmode count
attr source packetSentToUpper
attr title "packets passed to higher layer, count"
scalar ConfiguratorA.router0.lo[0].lo passedUpPk:sum(packetBytes) 0
attr interpolationmode none
attr recordingmode sum(packetBytes)
attr source packetSentToUpper
attr title "packets passed to higher layer, sum(packetBytes)"
scalar ConfiguratorA.router0.lo[0] packetDropInterfaceDown:count 0
attr interpolationmode none
attr recordingmode count
attr source packetDropReasonIsInterfaceDown(packetDropped)
attr title "packet drops: interface down, count"
scalar ConfiguratorA.router0.lo[0] packetDropInterfaceDown:sum(packetBytes) 0
attr interpolationmode none
attr recordingmode sum(packetBytes)
attr source packetDropReasonIsInterfaceDown(packetDropped)
attr title "packet drops: interface down, sum(packetBytes)"
scalar ConfiguratorA.router0.lo[0] packetDropNoCarrier:count 0
attr interpolationmode none
attr recordingmode count
attr source packetDropReasonIsNoCarrier(packetDropped)
attr title "packet drops: no carrier, count"
scalar ConfiguratorA.router0.lo[0] packetDropNoCarrier:sum(packetBytes) 0
attr interpolationmode none
attr recordingmode sum(packetBytes)
attr source packetDropReasonIsNoCarrier(packetDropped)
attr title "packet drops: no carrier, sum(packetBytes)"
scalar ConfiguratorA.router0.eth[0].queue queueLength:last 0
attr autoWarmupFilter false
attr interpolationmode sample-hold
attr recordingmode last
attr source "warmup(atomic(constant0(packetPushEnded) + count(packetPushStarted) - count(packetPulled) - count(packetRemoved) - count(packetDropped)))"
attr title "queue length, last"
attr unit pk
scalar ConfiguratorA.router0.eth[0].queue queueLength:max 0
attr autoWarmupFilter false
attr interpolationmode sample-hold
attr recordingmode max
attr source "warmup(atomic(constant0(packetPushEnded) + count(packetPushStarted) - count(packetPulled) - count(packetRemoved) - count(packetDropped)))"
attr title "queue length, max"
attr unit pk
scalar ConfiguratorA.router0.eth[0].queue queueLength:timeavg 0
attr autoWarmupFilter false
attr interpolationmode sample-hold
attr recordingmode timeavg
attr source "warmup(atomic(constant0(packetPushEnded) + count(packetPushStarted) - count(packetPulled) - count(packetRemoved) - count(packetDropped)))"
attr title "queue length, timeavg"
attr unit pk
scalar ConfiguratorA.router0.eth[0].queue queueBitLength:last 0
attr autoWarmupFilter false
attr interpolationmode sample-hold
attr recordingmode last
attr source "warmup(atomic(constant0(packetPushEnded) + sum(packetLength(packetPushStarted)) - sum(packetLength(packetPulled)) - sum(packetLength(packetRemoved)) - sum(packetLength(packetDropped))))"
attr title "queue bit length, last"
attr unit b
scalar ConfiguratorA.router0.eth[0].queue queueBitLength:max 0
attr autoWarmupFilter false
attr interpolationmode sample-hold
attr recordingmode max
attr source "warmup(atomic(constant0(packetPushEnded) + sum(packetLength(packetPushStarted)) - sum(packetLength(packetPulled)) - sum(packetLength(packetRemoved)) - sum(packetLength(packetDropped))))"
attr title "queue bit length, max"
attr unit b
scalar ConfiguratorA.router0.eth[0].queue queueBitLength:timeavg 0
attr autoWarmupFilter false
attr interpolationmode sample-hold
attr recordingmode timeavg
attr source "warmup(atomic(constant0(packetPushEnded) + sum(packetLength(packetPushStarted)) - sum(packetLength(packetPulled)) - sum(packetLength(packetRemoved)) - sum(packetLength(packetDropped))))"
attr title "queue bit length, timeavg"
attr unit b
statistic ConfiguratorA.router0.eth[0].queue queueingTime:histogram
field count 500
field mean 0
field stddev 0
field min 0
field max 0
field sum 0
field sqrsum 0
attr interpolationmode none
attr recordingmode histogram
attr source queueingTime(packetPulled)
attr title "queueing times"
attr unit s
bin	-inf	0
bin	-0.5	0
bin	-0.48	0
bin	-0.46	0
bin	-0.44	0
bin	-0.42	0
bin	-0.4	0
bin	-0.38	0
bin	-0.36	0
bin	-0.34	0
bin	-0.32	0
bin	-0.3	0
bin	-0.28	0
bin	-0.26	0
bin	-0.24	0
bin	-0.22	0
bin	-0.2	0
bin	-0.18	0
bin	-0.16	0
bin	-0.14	0
bin	-0.12	0
bin	-0.1	0
bin	-0.08	0
bin	-0.06	0
bin	-0.04	0
bin	-0.02	0
bin	0	500
bin	0.02	0
bin	0.04	0
bin	0.06	0
bin	0.08	0
bin	0.1	0
bin	0.12	0
bin	0.14	0
bin	0.16	0
bin	0.18	0
bin	0.2	0
bin	0.22	0
bin	0.24	0
bin	0.26	0
bin	0.28	0
bin	0.3	0
bin	0.32	0
bin	0.34	0
bin	0.36	0
bin	0.38	0
bin	0.4	0
bin	0.42	0
bin	0.44	0
bin	0.46	0
bin	0.48	0
bin	0.5	0
scalar ConfiguratorA.router0.eth[0].queue outgoingPackets:count 500
attr recordingmode count
attr source packetPulled
attr title "outgoing packets, count"
attr unit pk
scalar ConfiguratorA.router0.eth[0].queue outgoingPacketLengths:sum 408000
attr interpolationmode none
attr recordingmode sum
attr source packetLength(packetPulled)
attr title "outgoing packet lengths, sum"
attr unit b
statistic ConfiguratorA.router0.eth[0].queue outgoingPacketLengths:histogram
field count 500
field mean 816
field stddev 0
field min 816
field max 816
field sum 408000
field sqrsum 332928000
attr interpolationmode none
attr recordingmode histogram
attr source packetLength(packetPulled)
attr title "outgoing packet lengths"
attr unit b
bin	-inf	0
bin	815	0
bin	816	500
bin	817	0
statistic ConfiguratorA.router0.eth[0].queue flowQueueingTime:histogram
field count 0
field mean -nan
field stddev nan
field min nan
field max nan
field sum 0
field sqrsum 0
attr interpolationmode none
attr recordingmode histogram
attr source queueingTime(demuxFlow(packetPulled))
attr title "flow queueing times"
attr unit s
bin	-inf	0
bin	0	0
bin	1	0
scalar ConfiguratorA.router0.eth[0].queue incomingPackets:count 500
attr recordingmode count
[...]
scalar ConfiguratorA.switch1.eth[2].queue queueLength:max 0
attr autoWarmupFilter false
attr interpolationmode sample-hold
attr recordingmode max
attr source "warmup(atomic(constant0(packetPushEnded) + count(packetPushStarted) - count(packetPulled) - count(packetRemoved) - count(packetDropped)))"
attr title "queue length, max"
attr unit pk
scalar ConfiguratorA.switch1.eth[2].queue queueLength:timeavg 0
attr autoWarmupFilter false
attr interpolationmode sample-hold
attr recordingmode timeavg
attr source "warmup(atomic(constant0(packetPushEnded) + count(packetPushStarted) - count(packetPulled) - count(packetRemoved) - count(packetDropped)))"
attr title "queue length, timeavg"
attr unit pk
scalar ConfiguratorA.switch1.eth[2].queue queueBitLength:last 0
attr autoWarmupFilter false
attr interpolationmode sample-hold
attr recordingmode last
attr source "warmup(atomic(constant0(packetPushEnded) + sum(packetLength(packetPushStarted)) - sum(packetLength(packetPulled)) - sum(packetLength(packetRemoved)) - sum(packetLength(packetDropped))))"
attr title "queue bit length, last"
attr unit b
scalar ConfiguratorA.switch1.eth[2].queue queueBitLength:max 0
attr autoWarmupFilter false
attr interpolationmode sample-hold
attr recordingmode max
attr source "warmup(atomic(constant0(packetPushEnded) + sum(packetLength(packetPushStarted)) - sum(packetLength(packetPulled)) - sum(packetLength(packetRemoved)) - sum(packetLength(packetDropped))))"
attr title "queue bit length, max"
attr unit b
scalar ConfiguratorA.switch1.eth[2].queue queueBitLength:timeavg 0
attr autoWarmupFilter false
attr interpolationmode sample-hold
attr recordingmode timeavg
attr source "warmup(atomic(constant0(packetPushEnded) + sum(packetLength(packetPushStarted)) - sum(packetLength(packetPulled)) - sum(packetLength(packetRemoved)) - sum(packetLength(packetDropped))))"
attr title "queue bit length, timeavg"
attr unit b
statistic ConfiguratorA.switch1.eth[2].queue queueingTime:histogram
field count 0
field mean -nan
field stddev nan
field min nan
field max nan
field sum 0
field sqrsum 0
attr interpolationmode none
attr recordingmode histogram
attr source queueingTime(packetPulled)
attr title "queueing times"
attr unit s
bin	-inf	0
bin	0	0
bin	1	0
scalar ConfiguratorA.switch1.eth[2].queue outgoingPackets:count 0
attr recordingmode count
attr source packetPulled
attr title "outgoing packets, count"
attr unit pk
scalar ConfiguratorA.switch1.eth[2].queue outgoingPacketLengths:sum 0
attr interpolationmode none
attr recordingmode sum
attr source packetLength(packetPulled)
attr title "outgoing packet lengths, sum"
attr unit b
statistic ConfiguratorA.switch1.eth[2].queue outgoingPacketLengths:histogram
field count 0
field mean -nan
field stddev nan
field min nan
field max nan
field sum 0
field sqrsum 0
attr interpolationmode none
attr recordingmode histogram
attr source packetLength(packetPulled)
attr title "outgoing packet lengths"
attr unit b
bin	-inf	0
bin	0	0
bin	1	0
statistic ConfiguratorA.switch1.eth[2].queue flowQueueingTime:histogram
field count 0
field mean -nan
field stddev nan
field min nan
field max nan
field sum 0
field sqrsum 0
attr interpolationmode none
attr recordingmode histogram
attr source queueingTime(demuxFlow(packetPulled))
attr title "flow queueing times"
attr unit s
bin	-inf	0
bin	0	0
bin	1	0
scalar ConfiguratorA.switch1.eth[2].queue incomingPackets:count 0
attr recordingmode count
attr source packetPushStarted
attr title "incoming packets, count"
attr unit pk
scalar ConfiguratorA.switch1.eth[2].queue incomingPacketLengths:sum 0
attr interpolationmode none
attr recordingmode sum
attr source packetLength(packetPushStarted)
attr title "incoming packet lengths, sum"
attr unit b
statistic ConfiguratorA.switch1.eth[2].queue incomingPacketLengths:histogram
field count 0
field mean -nan
field stddev nan
field min nan
field max nan
field sum 0
field sqrsum 0
attr interpolationmode none
attr recordingmode histogram
attr source packetLength(packetPushStarted)
attr title "incoming packet lengths"
attr unit b
bin	-inf	0
bin	0	0
bin	1	0
scalar ConfiguratorA.switch1.eth[2].queue droppedPacketsQueueOverflow:count 0
attr interpolationmode none
attr recordingmode count
attr source packetDropReasonIsQueueOverflow(packetDropped)
attr title "dropped packets: queue overflow, count"
attr unit pk
scalar ConfiguratorA.switch1.eth[2].queue droppedPacketLengthsQueueOverflow:sum 0
attr interpolationmode none
attr recordingmode sum
attr source packetLength(packetDropReasonIsQueueOverflow(packetDropped))
attr title "dropped packet lengths: queue overflow, sum"
attr unit b
scalar ConfiguratorA.switch1.eth[2].mac "simulated time" 500
scalar ConfiguratorA.switch1.eth[2].mac full-duplex 1
scalar ConfiguratorA.switch1.eth[2].mac "frames/sec sent" 0
scalar ConfiguratorA.switch1.eth[2].mac "frames/sec rcvd" 0
scalar ConfiguratorA.switch1.eth[2].mac "bits/sec sent" 0
scalar ConfiguratorA.switch1.eth[2].mac "bits/sec rcvd" 0
scalar ConfiguratorA.switch1.eth[2].mac "rx channel idle (%)" 100
scalar ConfiguratorA.switch1.eth[2].mac "rx channel utilization (%)" 0
scalar ConfiguratorA.switch1.eth[2].mac rxPausePkUnits:count 0
attr interpolationmode none
attr recordingmode count
attr title "pause units received, count"
scalar ConfiguratorA.switch1.eth[2].mac rxPausePkUnits:sum 0
attr interpolationmode none
attr recordingmode sum
attr title "pause units received, sum"
scalar ConfiguratorA.switch1.eth[2].mac txPausePkUnits:count 0
attr interpolationmode none
attr recordingmode count
attr title "pause units sent, count"
scalar ConfiguratorA.switch1.eth[2].mac txPausePkUnits:sum 0
attr interpolationmode none
attr recordingmode sum
attr title "pause units sent, sum"
scalar ConfiguratorA.switch1.eth[2].mac rxPkOk:count 0
attr interpolationmode none
attr recordingmode count
attr source rxPkOk
attr title "packets received OK, count"
scalar ConfiguratorA.switch1.eth[2].mac rxPkOk:sum(packetBytes) 0
attr interpolationmode none
attr recordingmode sum(packetBytes)
attr source rxPkOk
attr title "packets received OK, sum(packetBytes)"
scalar ConfiguratorA.switch1.eth[2].mac txPk:count 0
attr interpolationmode none
attr recordingmode count
attr source packetSentToLower
attr title "packets transmitted, count"
scalar ConfiguratorA.switch1.eth[2].mac txPk:sum(packetBytes) 0
attr interpolationmode none
attr recordingmode sum(packetBytes)
attr source packetSentToLower
attr title "packets transmitted, sum(packetBytes)"
scalar ConfiguratorA.switch1.eth[2].mac packetReceivedFromUpper:count 0
attr interpolationmode none
attr recordingmode count
attr source packetReceivedFromUpper
attr title "packet bytes from higher layer, count"
scalar ConfiguratorA.switch1.eth[2].mac packetReceivedFromUpper:sum(packetBytes) 0
attr interpolationmode none
attr recordingmode sum(packetBytes)
attr source packetReceivedFromUpper
attr title "packet bytes from higher layer, sum(packetBytes)"
scalar ConfiguratorA.switch1.eth[2].mac passedUpPk:count 0
attr interpolationmode none
attr recordingmode count
attr source packetSentToUpper
attr title "packets passed to higher layer, count"
scalar ConfiguratorA.switch1.eth[2].mac passedUpPk:sum(packetBytes) 0
attr interpolationmode none
attr recordingmode sum(packetBytes)
attr source packetSentToUpper
attr title "packets passed to higher layer, sum(packetBytes)"
scalar ConfiguratorA.switch1.eth[2].mac packetDropIncorrectlyReceived:count 0
attr interpolationmode none
attr recordingmode count
attr source packetDropReasonIsIncorrectlyReceived(packetDropped)
attr title "packet drop: incorrectly received, count"
scalar ConfiguratorA.switch1.eth[2].mac packetDropIncorrectlyReceived:sum(packetBytes) 0
attr interpolationmode none
attr recordingmode sum(packetBytes)
attr source packetDropReasonIsIncorrectlyReceived(packetDropped)
attr title "packet drop: incorrectly received, sum(packetBytes)"
scalar ConfiguratorA.switch1.eth[2].mac packetDropInterfaceDown:count 0
attr interpolationmode none
attr recordingmode count
attr source packetDropReasonIsInterfaceDown(packetDropped)
attr title "packet drop: interface down, count"
scalar ConfiguratorA.switch1.eth[2].mac packetDropInterfaceDown:sum(packetBytes) 0
attr interpolationmode none
attr recordingmode sum(packetBytes)
attr source packetDropReasonIsInterfaceDown(packetDropped)
attr title "packet drop: interface down, sum(packetBytes)"
scalar ConfiguratorA.switch1.eth[2].mac packetDropNotAddressedToUs:count 0
attr interpolationmode none
attr recordingmode count
attr source packetDropReasonIsNotAddressedToUs(packetDropped)
attr title "packet drop: not addressed to us, count"
scalar ConfiguratorA.switch1.eth[2].mac packetDropNotAddressedToUs:sum(packetBytes) 0
attr interpolationmode none
attr recordingmode sum(packetBytes)
attr source packetDropReasonIsNotAddressedToUs(packetDropped)
attr title "packet drop: not addressed to us, sum(packetBytes)"
scalar ConfiguratorA.switch1.eth[2] packetDropInterfaceDown:count 0
attr interpolationmode none
attr recordingmode count
attr source packetDropReasonIsInterfaceDown(packetDropped)
attr title "packet drops: interface down, count"
scalar ConfiguratorA.switch1.eth[2] packetDropInterfaceDown:sum(packetBytes) 0
attr interpolationmode none
attr recordingmode sum(packetBytes)
attr source packetDropReasonIsInterfaceDown(packetDropped)
attr title "packet drops: interface down, sum(packetBytes)"
scalar ConfiguratorA.switch1.eth[2] packetDropNoCarrier:count 0
attr interpolationmode none
attr recordingmode count
attr source packetDropReasonIsNoCarrier(packetDropped)
attr title "packet drops: no carrier, count"
scalar ConfiguratorA.switch1.eth[2] packetDropNoCarrier:sum(packetBytes) 0
attr interpolationmode none
attr recordingmode sum(packetBytes)
attr source packetDropReasonIsNoCarrier(packetDropped)
attr title "packet drops: no carrier, sum(packetBytes)"
scalar ConfiguratorA.switch1.eth[3].queue queueLength:last 0
attr autoWarmupFilter false
attr interpolationmode sample-hold
attr recordingmode last
attr source "warmup(atomic(constant0(packetPushEnded) + count(packetPushStarted) - count(packetPulled) - count(packetRemoved) - count(packetDropped)))"
attr title "queue length, last"
attr unit pk
scalar ConfiguratorA.switch1.eth[3].queue queueLength:max 0
attr autoWarmupFilter false
attr interpolationmode sample-hold
attr recordingmode max
attr source "warmup(atomic(constant0(packetPushEnded) + count(packetPushStarted) - count(packetPulled) - count(packetRemoved) - count(packetDropped)))"
attr title "queue length, max"
attr unit pk
scalar ConfiguratorA.switch1.eth[3].queue queueLength:timeavg 0
attr autoWarmupFilter false
attr interpolationmode sample-hold
attr recordingmode timeavg
attr source "warmup(atomic(constant0(packetPushEnded) + count(packetPushStarted) - count(packetPulled) - count(packetRemoved) - count(packetDropped)))"
attr title "queue length, timeavg"
attr unit pk
scalar ConfiguratorA.switch1.eth[3].queue queueBitLength:last 0
attr autoWarmupFilter false
attr interpolationmode sample-hold
attr recordingmode last
attr source "warmup(atomic(constant0(packetPushEnded) + sum(packetLength(packetPushStarted)) - sum(packetLength(packetPulled)) - sum(packetLength(packetRemoved)) - sum(packetLength(packetDropped))))"
attr title "queue bit length, last"
attr unit b
scalar ConfiguratorA.switch1.eth[3].queue queueBitLength:max 0
attr autoWarmupFilter false
attr interpolationmode sample-hold
attr recordingmode max
attr source "warmup(atomic(constant0(packetPushEnded) + sum(packetLength(packetPushStarted)) - sum(packetLength(packetPulled)) - sum(packetLength(packetRemoved)) - sum(packetLength(packetDropped))))"
attr title "queue bit length, max"
attr unit b
scalar ConfiguratorA.switch1.eth[3].queue queueBitLength:timeavg 0
attr autoWarmupFilter false
attr interpolationmode sample-hold
attr recordingmode timeavg
attr source "warmup(atomic(constant0(packetPushEnded) + sum(packetLength(packetPushStarted)) - sum(packetLength(packetPulled)) - sum(packetLength(packetRemoved)) - sum(packetLength(packetDropped))))"
attr title "queue bit length, timeavg"
attr unit b
statistic ConfiguratorA.switch1.eth[3].queue queueingTime:histogram
field count 0
field mean -nan
field stddev nan
field min nan
field max nan
field sum 0
field sqrsum 0
attr interpolationmode none
attr recordingmode histogram
attr source queueingTime(packetPulled)
attr title "queueing times"
attr unit s
bin	-inf	0
bin	0	0
bin	1	0
scalar ConfiguratorA.switch1.eth[3].queue outgoingPackets:count 0
attr recordingmode count
attr source packetPulled
attr title "outgoing packets, count"
attr unit pk
scalar ConfiguratorA.switch1.eth[3].queue outgoingPacketLengths:sum 0
attr interpolationmode none
attr recordingmode sum
attr source packetLength(packetPulled)
attr title "outgoing packet lengths, sum"
attr unit b
statistic ConfiguratorA.switch1.eth[3].queue outgoingPacketLengths:histogram
field count 0
field mean -nan
field stddev nan
field min nan
field max nan
field sum 0
field sqrsum 0
attr interpolationmode none
attr recordingmode histogram
attr source packetLength(packetPulled)
attr title "outgoing packet lengths"
attr unit b
bin	-inf	0
bin	0	0
bin	1	0
statistic ConfiguratorA.switch1.eth[3].queue flowQueueingTime:histogram
field count 0
field mean -nan
field stddev nan
field min nan
field max nan
field sum 0
field sqrsum 0
attr interpolationmode none
attr recordingmode histogram
attr source queueingTime(demuxFlow(packetPulled))
attr title "flow queueing times"
attr unit s
bin	-inf	0
bin	0	0
bin	1	0
scalar ConfiguratorA.switch1.eth[3].queue incomingPackets:count 0
attr recordingmode count
attr source packetPushStarted
attr title "incoming packets, count"
attr unit pk
scalar ConfiguratorA.switch1.eth[3].queue incomingPacketLengths:sum 0
attr interpolationmode none
attr recordingmode sum
attr source packetLength(packetPushStarted)
attr title "incoming packet lengths, sum"
attr unit b
statistic ConfiguratorA.switch1.eth[3].queue incomingPacketLengths:histogram
field count 0
field mean -nan
field stddev nan
field min nan
field max nan
field sum 0
field sqrsum 0
attr interpolationmode none
attr recordingmode histogram
attr source packetLength(packetPushStarted)
attr title "incoming packet lengths"
attr unit b
bin	-inf	0
bin	0	0
bin	1	0
scalar ConfiguratorA.switch1.eth[3].queue droppedPacketsQueueOverflow:count 0
attr interpolationmode none
attr recordingmode count
attr source packetDropReasonIsQueueOverflow(packetDropped)
attr title "dropped packets: queue overflow, count"
attr unit pk
scalar ConfiguratorA.switch1.eth[3].queue droppedPacketLengthsQueueOverflow:sum 0
attr interpolationmode none
attr recordingmode sum
attr source packetLength(packetDropReasonIsQueueOverflow(packetDropped))
attr title "dropped packet lengths: queue overflow, sum"
attr unit b
scalar ConfiguratorA.switch1.eth[3].mac "simulated time" 500
scalar ConfiguratorA.switch1.eth[3].mac full-duplex 1
scalar ConfiguratorA.switch1.eth[3].mac "frames/sec sent" 0
scalar ConfiguratorA.switch1.eth[3].mac "frames/sec rcvd" 0
scalar ConfiguratorA.switch1.eth[3].mac "bits/sec sent" 0
scalar ConfiguratorA.switch1.eth[3].mac "bits/sec rcvd" 0
scalar ConfiguratorA.switch1.eth[3].mac "rx channel idle (%)" 100
scalar ConfiguratorA.switch1.eth[3].mac "rx channel utilization (%)" 0
scalar ConfiguratorA.switch1.eth[3].mac rxPausePkUnits:count 0
attr interpolationmode none
attr recordingmode count
attr title "pause units received, count"
scalar ConfiguratorA.switch1.eth[3].mac rxPausePkUnits:sum 0
attr interpolationmode none
attr recordingmode sum
attr title "pause units received, sum"
scalar ConfiguratorA.switch1.eth[3].mac txPausePkUnits:count 0
attr interpolationmode none
attr recordingmode count
attr title "pause units sent, count"
scalar ConfiguratorA.switch1.eth[3].mac txPausePkUnits:sum 0
attr interpolationmode none
attr recordingmode sum
attr title "pause units sent, sum"
scalar ConfiguratorA.switch1.eth[3].mac rxPkOk:count 0
attr interpolationmode none
attr recordingmode count
attr source rxPkOk
attr title "packets received OK, count"
scalar ConfiguratorA.switch1.eth[3].mac rxPkOk:sum(packetBytes) 0
attr interpolationmode none
attr recordingmode sum(packetBytes)
attr source rxPkOk
attr title "packets received OK, sum(packetBytes)"
scalar ConfiguratorA.switch1.eth[3].mac txPk:count 0
attr interpolationmode none
attr recordingmode count
attr source packetSentToLower
attr title "packets transmitted, count"
scalar ConfiguratorA.switch1.eth[3].mac txPk:sum(packetBytes) 0
attr interpolationmode none
attr recordingmode sum(packetBytes)
attr source packetSentToLower
attr title "packets transmitted, sum(packetBytes)"
scalar ConfiguratorA.switch1.eth[3].mac packetReceivedFromUpper:count 0
attr interpolationmode none
attr recordingmode count
attr source packetReceivedFromUpper
attr title "packet bytes from higher layer, count"
scalar ConfiguratorA.switch1.eth[3].mac packetReceivedFromUpper:sum(packetBytes) 0
attr interpolationmode none
attr recordingmode sum(packetBytes)
attr source packetReceivedFromUpper
attr title "packet bytes from higher layer, sum(packetBytes)"
scalar ConfiguratorA.switch1.eth[3].mac passedUpPk:count 0
attr interpolationmode none
attr recordingmode count
attr source packetSentToUpper
attr title "packets passed to higher layer, count"
scalar ConfiguratorA.switch1.eth[3].mac passedUpPk:sum(packetBytes) 0
attr interpolationmode none
attr recordingmode sum(packetBytes)
attr source packetSentToUpper
attr title "packets passed to higher layer, sum(packetBytes)"
scalar ConfiguratorA.switch1.eth[3].mac packetDropIncorrectlyReceived:count 0
attr interpolationmode none
attr recordingmode count
attr source packetDropReasonIsIncorrectlyReceived(packetDropped)
attr title "packet drop: incorrectly received, count"
scalar ConfiguratorA.switch1.eth[3].mac packetDropIncorrectlyReceived:sum(packetBytes) 0
attr interpolationmode none
attr recordingmode sum(packetBytes)
attr source packetDropReasonIsIncorrectlyReceived(packetDropped)
attr title "packet drop: incorrectly received, sum(packetBytes)"
scalar ConfiguratorA.switch1.eth[3].mac packetDropInterfaceDown:count 0
attr interpolationmode none
attr recordingmode count
attr source packetDropReasonIsInterfaceDown(packetDropped)
attr title "packet drop: interface down, count"
scalar ConfiguratorA.switch1.eth[3].mac packetDropInterfaceDown:sum(packetBytes) 0
attr interpolationmode none
attr recordingmode sum(packetBytes)
attr source packetDropReasonIsInterfaceDown(packetDropped)
attr title "packet drop: interface down, sum(packetBytes)"
scalar ConfiguratorA.switch1.eth[3].mac packetDropNotAddressedToUs:count 0
attr interpolationmode none
attr recordingmode count
attr source packetDropReasonIsNotAddressedToUs(packetDropped)
attr title "packet drop: not addressed to us, count"
scalar ConfiguratorA.switch1.eth[3].mac packetDropNotAddressedToUs:sum(packetBytes) 0
attr interpolationmode none
attr recordingmode sum(packetBytes)
attr source packetDropReasonIsNotAddressedToUs(packetDropped)
attr title "packet drop: not addressed to us, sum(packetBytes)"
scalar ConfiguratorA.switch1.eth[3] packetDropInterfaceDown:count 0
attr interpolationmode none
attr recordingmode count
attr source packetDropReasonIsInterfaceDown(packetDropped)
attr title "packet drops: interface down, count"
scalar ConfiguratorA.switch1.eth[3] packetDropInterfaceDown:sum(packetBytes) 0
attr interpolationmode none
attr recordingmode sum(packetBytes)
attr source packetDropReasonIsInterfaceDown(packetDropped)
attr title "packet drops: interface down, sum(packetBytes)"
scalar ConfiguratorA.switch1.eth[3] packetDropNoCarrier:count 0
attr interpolationmode none
attr recordingmode count
attr source packetDropReasonIsNoCarrier(packetDropped)
attr title "packet drops: no carrier, count"
scalar ConfiguratorA.switch1.eth[3] packetDropNoCarrier:sum(packetBytes) 0
attr interpolationmode none
attr recordingmode sum(packetBytes)
attr source packetDropReasonIsNoCarrier(packetDropped)
attr title "packet drops: no carrier, sum(packetBytes)"

