version 3
run ChangingPaths-0-20260105-13:09:09-102145
attr configname ChangingPaths
attr datetime 20260105-13:09:09
attr datetimef 20260105-130909
attr experiment ChangingPaths
attr inifile omnetpp.ini
attr iterationvars ""
attr iterationvarsd ""
attr iterationvarsf ""
attr measurement ""
attr network NetworkPathRIPShowcase
attr processid 102145
attr repetition 0
attr replication #0
attr resultdir results
attr runnumber 0
attr seedset 0
config **.param-recording false
config image-path /home/user/inet/images
config output-scalar-file results/omnetpp.ini-ChangingPaths-#0.sca
config output-scalar-precision 17
config output-vector-file results/omnetpp.ini-ChangingPaths-#0.vec
config output-vector-precision 17
config record-eventlog false
config sim-time-limit 250s
config sim-time-limit 250s
config description "Displaying Visualizer's Reaction to Routing Changes"
config network NetworkPathRIPShowcase
config *.router*.hasRip true
config **.hasStatus true
config *.configurator.config "xmldoc(\"configuration.xml\")"
config *.scenarioManager.script "xmldoc(\"changeRoute.xml\")"
config *.*Source.numApps 1
config *.*Source.app[0].typename PingApp
config *.wiredSource.app[0].destAddr "\"wiredDestination\""
config *.wirelessSource.app[0].destAddr "\"wirelessDestination\""
config *.*Source.app[0].startTime 1s
config *.*.wlan[*].radio.transmitter.power 3mW
config *.accessPoint0.wlan[0].mgmt.ssid "\"inet\""
config *.wirelessSource.wlan[0].agent.defaultSsid "\"inet\""
config *.accessPoint1.wlan[0].mgmt.ssid "\"omnet\""
config *.wirelessDestination.wlan[0].agent.defaultSsid "\"omnet\""
config *.visualizer.networkRouteVisualizer.displayRoutes true
config *.visualizer.networkRouteVisualizer.packetFilter "\"ping* and not *reply\""
config *.visualizer.networkRouteVisualizer.fadeOutMode "\"simulationTime\""
config *.visualizer.networkRouteVisualizer.fadeOutTime 1.4s

scalar NetworkPathRIPShowcase.radioMedium.propagation "Arrival computation count" 21144
scalar NetworkPathRIPShowcase.radioMedium "transmission count" 7048
scalar NetworkPathRIPShowcase.radioMedium "signal send count" 21144
scalar NetworkPathRIPShowcase.radioMedium "reception computation count" 21141
scalar NetworkPathRIPShowcase.radioMedium "interference computation count" 68288
scalar NetworkPathRIPShowcase.radioMedium "reception decision computation count" 7047
scalar NetworkPathRIPShowcase.radioMedium "listening decision computation count" 40538
scalar NetworkPathRIPShowcase.radioMedium "reception cache hit" 80.164382019309258
scalar NetworkPathRIPShowcase.radioMedium "interference cache hit" 66.666666666666671
scalar NetworkPathRIPShowcase.radioMedium "noise cache hit" 0
scalar NetworkPathRIPShowcase.radioMedium "snir cache hit" 50
scalar NetworkPathRIPShowcase.radioMedium "reception decision cache hit" 50
scalar NetworkPathRIPShowcase.radioMedium "reception result cache hit" 0
scalar NetworkPathRIPShowcase.wiredSource.ethernet pauseSent:count 0
scalar NetworkPathRIPShowcase.wiredSource.ethernet pauseSent:sum 0
scalar NetworkPathRIPShowcase.wiredSource.ethernet decapPk:count 262
scalar NetworkPathRIPShowcase.wiredSource.ethernet decapPk:sum(packetBytes) 24326
scalar NetworkPathRIPShowcase.wiredSource.ethernet encapPk:count 253
scalar NetworkPathRIPShowcase.wiredSource.ethernet encapPk:sum(packetBytes) 21084
scalar NetworkPathRIPShowcase.wiredSource.lo[0].lo rcvdPkFromHl:count 0
scalar NetworkPathRIPShowcase.wiredSource.lo[0].lo rcvdPkFromHl:sum(packetBytes) 0
scalar NetworkPathRIPShowcase.wiredSource.lo[0].lo passedUpPk:count 0
scalar NetworkPathRIPShowcase.wiredSource.lo[0].lo passedUpPk:sum(packetBytes) 0
scalar NetworkPathRIPShowcase.wiredSource.lo[0] packetDropInterfaceDown:count 0
scalar NetworkPathRIPShowcase.wiredSource.lo[0] packetDropInterfaceDown:sum(packetBytes) 0
scalar NetworkPathRIPShowcase.wiredSource.lo[0] packetDropNoCarrier:count 0
scalar NetworkPathRIPShowcase.wiredSource.lo[0] packetDropNoCarrier:sum(packetBytes) 0
scalar NetworkPathRIPShowcase.wiredSource.eth[0].queue queueLength:last 0
scalar NetworkPathRIPShowcase.wiredSource.eth[0].queue queueLength:max 0
scalar NetworkPathRIPShowcase.wiredSource.eth[0].queue queueLength:timeavg 0
scalar NetworkPathRIPShowcase.wiredSource.eth[0].queue queueBitLength:last 0
scalar NetworkPathRIPShowcase.wiredSource.eth[0].queue queueBitLength:max 0
scalar NetworkPathRIPShowcase.wiredSource.eth[0].queue queueBitLength:timeavg 0
scalar NetworkPathRIPShowcase.wiredSource.eth[0].queue outgoingPackets:count 253
scalar NetworkPathRIPShowcase.wiredSource.eth[0].queue outgoingPacketLengths:sum 205104
scalar NetworkPathRIPShowcase.wiredSource.eth[0].queue incomingPackets:count 253
scalar NetworkPathRIPShowcase.wiredSource.eth[0].queue incomingPacketLengths:sum 205104
scalar NetworkPathRIPShowcase.wiredSource.eth[0].queue droppedPacketsQueueOverflow:count 0
scalar NetworkPathRIPShowcase.wiredSource.eth[0].queue droppedPacketLengthsQueueOverflow:sum 0
scalar NetworkPathRIPShowcase.wiredSource.eth[0].mac "simulated time" 250
scalar NetworkPathRIPShowcase.wiredSource.eth[0].mac full-duplex 1
scalar NetworkPathRIPShowcase.wiredSource.eth[0].mac "frames/sec sent" 1.008
scalar NetworkPathRIPShowcase.wiredSource.eth[0].mac "frames/sec rcvd" 1.048
scalar NetworkPathRIPShowcase.wiredSource.eth[0].mac "bits/sec sent" 818.88
scalar NetworkPathRIPShowcase.wiredSource.eth[0].mac "bits/sec rcvd" 929.34400000000005
scalar NetworkPathRIPShowcase.wiredSource.eth[0].mac "rx channel idle (%)" 99.999003584000008
scalar NetworkPathRIPShowcase.wiredSource.eth[0].mac "rx channel utilization (%)" 0.00099641600000000019
scalar NetworkPathRIPShowcase.wiredSource.eth[0].mac rxPausePkUnits:count 0
scalar NetworkPathRIPShowcase.wiredSource.eth[0].mac rxPausePkUnits:sum 0
scalar NetworkPathRIPShowcase.wiredSource.eth[0].mac txPausePkUnits:count 0
scalar NetworkPathRIPShowcase.wiredSource.eth[0].mac txPausePkUnits:sum 0
scalar NetworkPathRIPShowcase.wiredSource.eth[0].mac rxPkOk:count 262
scalar NetworkPathRIPShowcase.wiredSource.eth[0].mac rxPkOk:sum(packetBytes) 29042
scalar NetworkPathRIPShowcase.wiredSource.eth[0].mac txPk:count 252
scalar NetworkPathRIPShowcase.wiredSource.eth[0].mac txPk:sum(packetBytes) 25590
scalar NetworkPathRIPShowcase.wiredSource.eth[0].mac packetReceivedFromUpper:count 253
scalar NetworkPathRIPShowcase.wiredSource.eth[0].mac packetReceivedFromUpper:sum(packetBytes) 25638
scalar NetworkPathRIPShowcase.wiredSource.eth[0].mac passedUpPk:count 262
scalar NetworkPathRIPShowcase.wiredSource.eth[0].mac passedUpPk:sum(packetBytes) 29042
scalar NetworkPathRIPShowcase.wiredSource.eth[0].mac packetDropIncorrectlyReceived:count 0
scalar NetworkPathRIPShowcase.wiredSource.eth[0].mac packetDropIncorrectlyReceived:sum(packetBytes) 0
scalar NetworkPathRIPShowcase.wiredSource.eth[0].mac packetDropInterfaceDown:count 0
scalar NetworkPathRIPShowcase.wiredSource.eth[0].mac packetDropInterfaceDown:sum(packetBytes) 0
scalar NetworkPathRIPShowcase.wiredSource.eth[0].mac packetDropNotAddressedToUs:count 0
scalar NetworkPathRIPShowcase.wiredSource.eth[0].mac packetDropNotAddressedToUs:sum(packetBytes) 0
scalar NetworkPathRIPShowcase.wiredSource.eth[0] packetDropInterfaceDown:count 0
scalar NetworkPathRIPShowcase.wiredSource.eth[0] packetDropInterfaceDown:sum(packetBytes) 0
scalar NetworkPathRIPShowcase.wiredSource.eth[0] packetDropNoCarrier:count 0
scalar NetworkPathRIPShowcase.wiredSource.eth[0] packetDropNoCarrier:sum(packetBytes) 0
scalar NetworkPathRIPShowcase.wiredSource.ipv4.ip packetDropAddressResolutionFailed:count 0
scalar NetworkPathRIPShowcase.wiredSource.ipv4.ip packetDropAddressResolutionFailed:sum(packetBytes) 0
scalar NetworkPathRIPShowcase.wiredSource.ipv4.ip packetDropHopLimitReached:count 0
scalar NetworkPathRIPShowcase.wiredSource.ipv4.ip packetDropHopLimitReached:sum(packetBytes) 0
scalar NetworkPathRIPShowcase.wiredSource.ipv4.ip packetDropForwardingDisabled:count 0
scalar NetworkPathRIPShowcase.wiredSource.ipv4.ip packetDropForwardingDisabled:sum(packetBytes) 0
scalar NetworkPathRIPShowcase.wiredSource.ipv4.ip packetDropLifetimeExpired:count 0
scalar NetworkPathRIPShowcase.wiredSource.ipv4.ip packetDropLifetimeExpired:sum(packetBytes) 0
scalar NetworkPathRIPShowcase.wiredSource.ipv4.ip packetDropNoInterfaceFound:count 0
scalar NetworkPathRIPShowcase.wiredSource.ipv4.ip packetDropNoInterfaceFound:sum(packetBytes) 0
scalar NetworkPathRIPShowcase.wiredSource.ipv4.ip packetDropNoRouteFound:count 0
scalar NetworkPathRIPShowcase.wiredSource.ipv4.ip packetDropNoRouteFound:sum(packetBytes) 0
scalar NetworkPathRIPShowcase.wiredSource.ipv4.ip packetDropUndefined:count 0
scalar NetworkPathRIPShowcase.wiredSource.ipv4.ip packetDropUndefined:sum(packetBytes) 0
scalar NetworkPathRIPShowcase.wiredSource.ipv4.arp arpResolutionFailed:count 0
scalar NetworkPathRIPShowcase.wiredSource.ipv4.arp arpResolutionCompleted:count 3
scalar NetworkPathRIPShowcase.wiredSource.ipv4.arp arpResolutionInitiated:count 2
scalar NetworkPathRIPShowcase.wiredSource.ipv4.arp arpReplySent:count 1
scalar NetworkPathRIPShowcase.wiredSource.ipv4.arp arpReplySent:sum(packetBytes) 28
scalar NetworkPathRIPShowcase.wiredSource.ipv4.arp arpRequestSent:count 2
scalar NetworkPathRIPShowcase.wiredSource.ipv4.arp arpRequestSent:sum(packetBytes) 56
scalar NetworkPathRIPShowcase.wiredSource.udp packetReceived:count 0
scalar NetworkPathRIPShowcase.wiredSource.udp packetReceived:sum(packetBytes) 0
scalar NetworkPathRIPShowcase.wiredSource.udp packetSent:count 0
scalar NetworkPathRIPShowcase.wiredSource.udp packetSent:sum(packetBytes) 0
scalar NetworkPathRIPShowcase.wiredSource.udp passedUpPk:count 0
scalar NetworkPathRIPShowcase.wiredSource.udp droppedPkWrongPort:count 0
scalar NetworkPathRIPShowcase.wiredSource.udp droppedPkBadChecksum:count 0
scalar NetworkPathRIPShowcase.wiredSource.app[0] "Pings sent" 250
scalar NetworkPathRIPShowcase.wiredSource.app[0] "ping loss rate (%)" 2
scalar NetworkPathRIPShowcase.wiredSource.app[0] "ping out-of-order rate (%)" 0
scalar NetworkPathRIPShowcase.wiredSource.app[0] pingRxSeq:count 245
scalar NetworkPathRIPShowcase.wiredSource.app[0] pingTxSeq:count 250
scalar NetworkPathRIPShowcase.wiredSource.app[0] numOutOfOrderArrivals:last nan
scalar NetworkPathRIPShowcase.wiredSource.app[0] numLost:last 4
scalar NetworkPathRIPShowcase.wiredDestination.ethernet pauseSent:count 0
scalar NetworkPathRIPShowcase.wiredDestination.ethernet pauseSent:sum 0
scalar NetworkPathRIPShowcase.wiredDestination.ethernet decapPk:count 257
scalar NetworkPathRIPShowcase.wiredDestination.ethernet decapPk:sum(packetBytes) 23626
scalar NetworkPathRIPShowcase.wiredDestination.ethernet encapPk:count 248
scalar NetworkPathRIPShowcase.wiredDestination.ethernet encapPk:sum(packetBytes) 20664
scalar NetworkPathRIPShowcase.wiredDestination.lo[0].lo rcvdPkFromHl:count 0
scalar NetworkPathRIPShowcase.wiredDestination.lo[0].lo rcvdPkFromHl:sum(packetBytes) 0
scalar NetworkPathRIPShowcase.wiredDestination.lo[0].lo passedUpPk:count 0
scalar NetworkPathRIPShowcase.wiredDestination.lo[0].lo passedUpPk:sum(packetBytes) 0
scalar NetworkPathRIPShowcase.wiredDestination.lo[0] packetDropInterfaceDown:count 0
scalar NetworkPathRIPShowcase.wiredDestination.lo[0] packetDropInterfaceDown:sum(packetBytes) 0
scalar NetworkPathRIPShowcase.wiredDestination.lo[0] packetDropNoCarrier:count 0
scalar NetworkPathRIPShowcase.wiredDestination.lo[0] packetDropNoCarrier:sum(packetBytes) 0
scalar NetworkPathRIPShowcase.wiredDestination.eth[0].queue queueLength:last 0
scalar NetworkPathRIPShowcase.wiredDestination.eth[0].queue queueLength:max 0
scalar NetworkPathRIPShowcase.wiredDestination.eth[0].queue queueLength:timeavg 0
scalar NetworkPathRIPShowcase.wiredDestination.eth[0].queue queueBitLength:last 0
scalar NetworkPathRIPShowcase.wiredDestination.eth[0].queue queueBitLength:max 0
scalar NetworkPathRIPShowcase.wiredDestination.eth[0].queue queueBitLength:timeavg 0
scalar NetworkPathRIPShowcase.wiredDestination.eth[0].queue outgoingPackets:count 248
scalar NetworkPathRIPShowcase.wiredDestination.eth[0].queue outgoingPacketLengths:sum 201024
scalar NetworkPathRIPShowcase.wiredDestination.eth[0].queue incomingPackets:count 248
scalar NetworkPathRIPShowcase.wiredDestination.eth[0].queue incomingPacketLengths:sum 201024
scalar NetworkPathRIPShowcase.wiredDestination.eth[0].queue droppedPacketsQueueOverflow:count 0
scalar NetworkPathRIPShowcase.wiredDestination.eth[0].queue droppedPacketLengthsQueueOverflow:sum 0
scalar NetworkPathRIPShowcase.wiredDestination.eth[0].mac "simulated time" 250
scalar NetworkPathRIPShowcase.wiredDestination.eth[0].mac full-duplex 1
scalar NetworkPathRIPShowcase.wiredDestination.eth[0].mac "frames/sec sent" 0.99199999999999999
scalar NetworkPathRIPShowcase.wiredDestination.eth[0].mac "frames/sec rcvd" 1.028
scalar NetworkPathRIPShowcase.wiredDestination.eth[0].mac "bits/sec sent" 805.82399999999996
scalar NetworkPathRIPShowcase.wiredDestination.eth[0].mac "bits/sec rcvd" 904.06399999999996
scalar NetworkPathRIPShowcase.wiredDestination.eth[0].mac "rx channel idle (%)" 99.999030144000002
scalar NetworkPathRIPShowcase.wiredDestination.eth[0].mac "rx channel utilization (%)" 0.00096985599999999995
scalar NetworkPathRIPShowcase.wiredDestination.eth[0].mac rxPausePkUnits:count 0
scalar NetworkPathRIPShowcase.wiredDestination.eth[0].mac rxPausePkUnits:sum 0
scalar NetworkPathRIPShowcase.wiredDestination.eth[0].mac txPausePkUnits:count 0
scalar NetworkPathRIPShowcase.wiredDestination.eth[0].mac txPausePkUnits:sum 0
scalar NetworkPathRIPShowcase.wiredDestination.eth[0].mac rxPkOk:count 257
scalar NetworkPathRIPShowcase.wiredDestination.eth[0].mac rxPkOk:sum(packetBytes) 28252
scalar NetworkPathRIPShowcase.wiredDestination.eth[0].mac txPk:count 248
scalar NetworkPathRIPShowcase.wiredDestination.eth[0].mac txPk:sum(packetBytes) 25182
scalar NetworkPathRIPShowcase.wiredDestination.eth[0].mac packetReceivedFromUpper:count 248
scalar NetworkPathRIPShowcase.wiredDestination.eth[0].mac packetReceivedFromUpper:sum(packetBytes) 25128
scalar NetworkPathRIPShowcase.wiredDestination.eth[0].mac passedUpPk:count 257
scalar NetworkPathRIPShowcase.wiredDestination.eth[0].mac passedUpPk:sum(packetBytes) 28252
scalar NetworkPathRIPShowcase.wiredDestination.eth[0].mac packetDropIncorrectlyReceived:count 0
scalar NetworkPathRIPShowcase.wiredDestination.eth[0].mac packetDropIncorrectlyReceived:sum(packetBytes) 0
scalar NetworkPathRIPShowcase.wiredDestination.eth[0].mac packetDropInterfaceDown:count 0
scalar NetworkPathRIPShowcase.wiredDestination.eth[0].mac packetDropInterfaceDown:sum(packetBytes) 0
scalar NetworkPathRIPShowcase.wiredDestination.eth[0].mac packetDropNotAddressedToUs:count 0
scalar NetworkPathRIPShowcase.wiredDestination.eth[0].mac packetDropNotAddressedToUs:sum(packetBytes) 0
scalar NetworkPathRIPShowcase.wiredDestination.eth[0] packetDropInterfaceDown:count 0
scalar NetworkPathRIPShowcase.wiredDestination.eth[0] packetDropInterfaceDown:sum(packetBytes) 0
scalar NetworkPathRIPShowcase.wiredDestination.eth[0] packetDropNoCarrier:count 0
scalar NetworkPathRIPShowcase.wiredDestination.eth[0] packetDropNoCarrier:sum(packetBytes) 0
scalar NetworkPathRIPShowcase.wiredDestination.ipv4.ip packetDropAddressResolutionFailed:count 0
scalar NetworkPathRIPShowcase.wiredDestination.ipv4.ip packetDropAddressResolutionFailed:sum(packetBytes) 0
scalar NetworkPathRIPShowcase.wiredDestination.ipv4.ip packetDropHopLimitReached:count 0
scalar NetworkPathRIPShowcase.wiredDestination.ipv4.ip packetDropHopLimitReached:sum(packetBytes) 0
scalar NetworkPathRIPShowcase.wiredDestination.ipv4.ip packetDropForwardingDisabled:count 0
scalar NetworkPathRIPShowcase.wiredDestination.ipv4.ip packetDropForwardingDisabled:sum(packetBytes) 0
scalar NetworkPathRIPShowcase.wiredDestination.ipv4.ip packetDropLifetimeExpired:count 0
scalar NetworkPathRIPShowcase.wiredDestination.ipv4.ip packetDropLifetimeExpired:sum(packetBytes) 0
scalar NetworkPathRIPShowcase.wiredDestination.ipv4.ip packetDropNoInterfaceFound:count 0
scalar NetworkPathRIPShowcase.wiredDestination.ipv4.ip packetDropNoInterfaceFound:sum(packetBytes) 0
scalar NetworkPathRIPShowcase.wiredDestination.ipv4.ip packetDropNoRouteFound:count 0
scalar NetworkPathRIPShowcase.wiredDestination.ipv4.ip packetDropNoRouteFound:sum(packetBytes) 0
scalar NetworkPathRIPShowcase.wiredDestination.ipv4.ip packetDropUndefined:count 0
scalar NetworkPathRIPShowcase.wiredDestination.ipv4.ip packetDropUndefined:sum(packetBytes) 0
scalar NetworkPathRIPShowcase.wiredDestination.ipv4.arp arpResolutionFailed:count 0
scalar NetworkPathRIPShowcase.wiredDestination.ipv4.arp arpResolutionCompleted:count 3
scalar NetworkPathRIPShowcase.wiredDestination.ipv4.arp arpResolutionInitiated:count 1
scalar NetworkPathRIPShowcase.wiredDestination.ipv4.arp arpReplySent:count 2
scalar NetworkPathRIPShowcase.wiredDestination.ipv4.arp arpReplySent:sum(packetBytes) 56
scalar NetworkPathRIPShowcase.wiredDestination.ipv4.arp arpRequestSent:count 1
scalar NetworkPathRIPShowcase.wiredDestination.ipv4.arp arpRequestSent:sum(packetBytes) 28
scalar NetworkPathRIPShowcase.wiredDestination.udp packetReceived:count 0
scalar NetworkPathRIPShowcase.wiredDestination.udp packetReceived:sum(packetBytes) 0
scalar NetworkPathRIPShowcase.wiredDestination.udp packetSent:count 0
scalar NetworkPathRIPShowcase.wiredDestination.udp packetSent:sum(packetBytes) 0
scalar NetworkPathRIPShowcase.wiredDestination.udp passedUpPk:count 0
scalar NetworkPathRIPShowcase.wiredDestination.udp droppedPkWrongPort:count 0
scalar NetworkPathRIPShowcase.wiredDestination.udp droppedPkBadChecksum:count 0
scalar NetworkPathRIPShowcase.wirelessSource.lo[0].lo rcvdPkFromHl:count 0
scalar NetworkPathRIPShowcase.wirelessSource.lo[0].lo rcvdPkFromHl:sum(packetBytes) 0
scalar NetworkPathRIPShowcase.wirelessSource.lo[0].lo passedUpPk:count 0
scalar NetworkPathRIPShowcase.wirelessSource.lo[0].lo passedUpPk:sum(packetBytes) 0
scalar NetworkPathRIPShowcase.wirelessSource.lo[0] packetDropInterfaceDown:count 0
scalar NetworkPathRIPShowcase.wirelessSource.lo[0] packetDropInterfaceDown:sum(packetBytes) 0
scalar NetworkPathRIPShowcase.wirelessSource.lo[0] packetDropNoCarrier:count 0
scalar NetworkPathRIPShowcase.wirelessSource.lo[0] packetDropNoCarrier:sum(packetBytes) 0
scalar NetworkPathRIPShowcase.wirelessSource.wlan[0].agent dropConfirm:count 0
scalar NetworkPathRIPShowcase.wirelessSource.wlan[0].agent acceptConfirm:count 3
scalar NetworkPathRIPShowcase.wirelessSource.wlan[0].agent sentRequest:count 3
scalar NetworkPathRIPShowcase.wirelessSource.wlan[0].mac.dcf.channelAccess.pendingQueue queueLength:last 0
scalar NetworkPathRIPShowcase.wirelessSource.wlan[0].mac.dcf.channelAccess.pendingQueue queueLength:max 1
scalar NetworkPathRIPShowcase.wirelessSource.wlan[0].mac.dcf.channelAccess.pendingQueue queueLength:timeavg 6.5039999999999999e-06
scalar NetworkPathRIPShowcase.wirelessSource.wlan[0].mac.dcf.channelAccess.pendingQueue queueBitLength:last 0
scalar NetworkPathRIPShowcase.wirelessSource.wlan[0].mac.dcf.channelAccess.pendingQueue queueBitLength:max 960
scalar NetworkPathRIPShowcase.wirelessSource.wlan[0].mac.dcf.channelAccess.pendingQueue queueBitLength:timeavg 0.0038086399999999994
scalar NetworkPathRIPShowcase.wirelessSource.wlan[0].mac.dcf.channelAccess.pendingQueue outgoingPackets:count 257
scalar NetworkPathRIPShowcase.wirelessSource.wlan[0].mac.dcf.channelAccess.pendingQueue outgoingPacketLengths:sum 242688
scalar NetworkPathRIPShowcase.wirelessSource.wlan[0].mac.dcf.channelAccess.pendingQueue incomingPackets:count 257
scalar NetworkPathRIPShowcase.wirelessSource.wlan[0].mac.dcf.channelAccess.pendingQueue incomingPacketLengths:sum 242688
scalar NetworkPathRIPShowcase.wirelessSource.wlan[0].mac.dcf.channelAccess.pendingQueue droppedPacketsQueueOverflow:count 0
scalar NetworkPathRIPShowcase.wirelessSource.wlan[0].mac.dcf.channelAccess.pendingQueue droppedPacketLengthsQueueOverflow:sum 0
scalar NetworkPathRIPShowcase.wirelessSource.wlan[0].mac.dcf.channelAccess.inProgressFrames queueLength:max 1
scalar NetworkPathRIPShowcase.wirelessSource.wlan[0].mac.dcf.channelAccess.inProgressFrames queueLength:timeavg 0.00011664818532000047
scalar NetworkPathRIPShowcase.wirelessSource.wlan[0].mac.dcf.channelAccess.contention channelAccessGranted:count 257
scalar NetworkPathRIPShowcase.wirelessSource.wlan[0].mac.dcf.channelAccess.contention stateChanged:count 14132
scalar NetworkPathRIPShowcase.wirelessSource.wlan[0].mac.dcf.channelAccess channelOwnershipChanged:count 513
scalar NetworkPathRIPShowcase.wirelessSource.wlan[0].mac.dcf.originatorMacDataService packetAggregated:count 0
scalar NetworkPathRIPShowcase.wirelessSource.wlan[0].mac.dcf.originatorMacDataService packetFragmented:count 0
scalar NetworkPathRIPShowcase.wirelessSource.wlan[0].mac.dcf.recipientMacDataService packetDeaggregated:count 0
scalar NetworkPathRIPShowcase.wirelessSource.wlan[0].mac.dcf.recipientMacDataService packetDefragmented:count 2766
scalar NetworkPathRIPShowcase.wirelessSource.wlan[0].mac.dcf.recipientMacDataService packetDropDuplicateDetected:count 0
scalar NetworkPathRIPShowcase.wirelessSource.wlan[0].mac.dcf.recipientMacDataService packetDropDuplicateDetected:sum(packetBytes) 0
scalar NetworkPathRIPShowcase.wirelessSource.wlan[0].mac.dcf.recoveryProcedure retryLimitReached:count 0
scalar NetworkPathRIPShowcase.wirelessSource.wlan[0].mac.dcf frameSequenceFinished:count 256
scalar NetworkPathRIPShowcase.wirelessSource.wlan[0].mac.dcf packetReceivedFromPeer:count 3021
scalar NetworkPathRIPShowcase.wirelessSource.wlan[0].mac.dcf packetReceivedFromPeer:sum(packetBytes) 177496
scalar NetworkPathRIPShowcase.wirelessSource.wlan[0].mac.dcf packetReceivedFromPeerUnicast:count 506
scalar NetworkPathRIPShowcase.wirelessSource.wlan[0].mac.dcf packetReceivedFromPeerUnicast:sum(packetBytes) 33302
scalar NetworkPathRIPShowcase.wirelessSource.wlan[0].mac.dcf packetReceivedFromPeerMulticast:count 2515
scalar NetworkPathRIPShowcase.wirelessSource.wlan[0].mac.dcf packetReceivedFromPeerMulticast:sum(packetBytes) 144194
scalar NetworkPathRIPShowcase.wirelessSource.wlan[0].mac.dcf packetReceivedFromPeerBroadcast:count 2501
scalar NetworkPathRIPShowcase.wirelessSource.wlan[0].mac.dcf packetReceivedFromPeerBroadcast:sum(packetBytes) 140082
scalar NetworkPathRIPShowcase.wirelessSource.wlan[0].mac.dcf packetReceivedFromPeerWithRetry:count 0
scalar NetworkPathRIPShowcase.wirelessSource.wlan[0].mac.dcf packetReceivedFromPeerWithRetry:sum(packetBytes) 0
scalar NetworkPathRIPShowcase.wirelessSource.wlan[0].mac.dcf packetReceivedFromPeerWithoutRetry:count 3021
scalar NetworkPathRIPShowcase.wirelessSource.wlan[0].mac.dcf packetReceivedFromPeerWithoutRetry:sum(packetBytes) 177496
scalar NetworkPathRIPShowcase.wirelessSource.wlan[0].mac.dcf packetSentToPeer:count 507
scalar NetworkPathRIPShowcase.wirelessSource.wlan[0].mac.dcf packetSentToPeer:sum(packetBytes) 33730
scalar NetworkPathRIPShowcase.wirelessSource.wlan[0].mac.dcf packetSentToPeerUnicast:count 506
scalar NetworkPathRIPShowcase.wirelessSource.wlan[0].mac.dcf packetSentToPeerUnicast:sum(packetBytes) 33690
scalar NetworkPathRIPShowcase.wirelessSource.wlan[0].mac.dcf packetSentToPeerMulticast:count 1
scalar NetworkPathRIPShowcase.wirelessSource.wlan[0].mac.dcf packetSentToPeerMulticast:sum(packetBytes) 40
scalar NetworkPathRIPShowcase.wirelessSource.wlan[0].mac.dcf packetSentToPeerBroadcast:count 1
scalar NetworkPathRIPShowcase.wirelessSource.wlan[0].mac.dcf packetSentToPeerBroadcast:sum(packetBytes) 40
scalar NetworkPathRIPShowcase.wirelessSource.wlan[0].mac.dcf packetSentToPeerWithRetry:count 0
scalar NetworkPathRIPShowcase.wirelessSource.wlan[0].mac.dcf packetSentToPeerWithRetry:sum(packetBytes) 0
scalar NetworkPathRIPShowcase.wirelessSource.wlan[0].mac.dcf packetSentToPeerWithoutRetry:count 507
scalar NetworkPathRIPShowcase.wirelessSource.wlan[0].mac.dcf packetSentToPeerWithoutRetry:sum(packetBytes) 33730
scalar NetworkPathRIPShowcase.wirelessSource.wlan[0].mac.dcf packetDrop:count 2
scalar NetworkPathRIPShowcase.wirelessSource.wlan[0].mac.dcf packetDrop:sum(packetBytes) 128
scalar NetworkPathRIPShowcase.wirelessSource.wlan[0].mac.dcf packetDropNotAddressedToUs:count 2
scalar NetworkPathRIPShowcase.wirelessSource.wlan[0].mac.dcf packetDropNotAddressedToUs:sum(packetBytes) 128
scalar NetworkPathRIPShowcase.wirelessSource.wlan[0].mac.dcf packetDropQueueOverflow:count 0
scalar NetworkPathRIPShowcase.wirelessSource.wlan[0].mac.dcf packetDropQueueOverflow:sum(packetBytes) 0
scalar NetworkPathRIPShowcase.wirelessSource.wlan[0].mac.dcf packetDropRetryLimitReached:count 0
scalar NetworkPathRIPShowcase.wirelessSource.wlan[0].mac.dcf packetDropRetryLimitReached:sum(packetBytes) 0
scalar NetworkPathRIPShowcase.wirelessSource.wlan[0].mac.dcf linkBroken:count 0
scalar NetworkPathRIPShowcase.wirelessSource.wlan[0].mac packetReceivedFromLower:count 3023
scalar NetworkPathRIPShowcase.wirelessSource.wlan[0].mac packetReceivedFromLower:sum(packetBytes) 177624
scalar NetworkPathRIPShowcase.wirelessSource.wlan[0].mac packetSentToLower:count 508
scalar NetworkPathRIPShowcase.wirelessSource.wlan[0].mac packetSentToLower:sum(packetBytes) 33850
scalar NetworkPathRIPShowcase.wirelessSource.wlan[0].mac packetReceivedFromUpper:count 253
scalar NetworkPathRIPShowcase.wirelessSource.wlan[0].mac packetReceivedFromUpper:sum(packetBytes) 23108
scalar NetworkPathRIPShowcase.wirelessSource.wlan[0].mac packetSentToUpper:count 262
scalar NetworkPathRIPShowcase.wirelessSource.wlan[0].mac packetSentToUpper:sum(packetBytes) 26422
scalar NetworkPathRIPShowcase.wirelessSource.wlan[0].mac packetDrop:count 2
scalar NetworkPathRIPShowcase.wirelessSource.wlan[0].mac packetDrop:sum(packetBytes) 128
scalar NetworkPathRIPShowcase.wirelessSource.wlan[0].mac packetDropIncorrectlyReceived:count 0
scalar NetworkPathRIPShowcase.wirelessSource.wlan[0].mac packetDropIncorrectlyReceived:sum(packetBytes) 0
scalar NetworkPathRIPShowcase.wirelessSource.wlan[0].mac packetDropNotAddressedToUs:count 2
scalar NetworkPathRIPShowcase.wirelessSource.wlan[0].mac packetDropNotAddressedToUs:sum(packetBytes) 128
scalar NetworkPathRIPShowcase.wirelessSource.wlan[0].mac packetDropQueueOverflow:count 0
scalar NetworkPathRIPShowcase.wirelessSource.wlan[0].mac packetDropQueueOverflow:sum(packetBytes) 0
scalar NetworkPathRIPShowcase.wirelessSource.wlan[0].mac packetDropRetryLimitReached:count 0
scalar NetworkPathRIPShowcase.wirelessSource.wlan[0].mac packetDropRetryLimitReached:sum(packetBytes) 0
scalar NetworkPathRIPShowcase.wirelessSource.wlan[0].mac packetDropDuplicateDetected:count 0
scalar NetworkPathRIPShowcase.wirelessSource.wlan[0].mac packetDropDuplicateDetected:sum(packetBytes) 0
scalar NetworkPathRIPShowcase.wirelessSource.wlan[0].mac packetDropOther:count 0
scalar NetworkPathRIPShowcase.wirelessSource.wlan[0].mac packetDropOther:sum(packetBytes) 0
scalar NetworkPathRIPShowcase.wirelessSource.wlan[0].mac linkBroken:count 0
scalar NetworkPathRIPShowcase.wirelessSource.wlan[0].radio radioMode:count 1018
scalar NetworkPathRIPShowcase.wirelessSource.wlan[0].radio receptionState:count 7062
scalar NetworkPathRIPShowcase.wirelessSource.wlan[0].radio transmissionState:count 2030
scalar NetworkPathRIPShowcase.wirelessSource.wlan[0] packetDropInterfaceDown:count 0
scalar NetworkPathRIPShowcase.wirelessSource.wlan[0] packetDropInterfaceDown:sum(packetBytes) 0
scalar NetworkPathRIPShowcase.wirelessSource.wlan[0] packetDropNoCarrier:count 0
scalar NetworkPathRIPShowcase.wirelessSource.wlan[0] packetDropNoCarrier:sum(packetBytes) 0
scalar NetworkPathRIPShowcase.wirelessSource.ipv4.ip packetDropAddressResolutionFailed:count 0
scalar NetworkPathRIPShowcase.wirelessSource.ipv4.ip packetDropAddressResolutionFailed:sum(packetBytes) 0
scalar NetworkPathRIPShowcase.wirelessSource.ipv4.ip packetDropHopLimitReached:count 0
scalar NetworkPathRIPShowcase.wirelessSource.ipv4.ip packetDropHopLimitReached:sum(packetBytes) 0
scalar NetworkPathRIPShowcase.wirelessSource.ipv4.ip packetDropForwardingDisabled:count 0
scalar NetworkPathRIPShowcase.wirelessSource.ipv4.ip packetDropForwardingDisabled:sum(packetBytes) 0
scalar NetworkPathRIPShowcase.wirelessSource.ipv4.ip packetDropLifetimeExpired:count 0
scalar NetworkPathRIPShowcase.wirelessSource.ipv4.ip packetDropLifetimeExpired:sum(packetBytes) 0
scalar NetworkPathRIPShowcase.wirelessSource.ipv4.ip packetDropNoInterfaceFound:count 0
scalar NetworkPathRIPShowcase.wirelessSource.ipv4.ip packetDropNoInterfaceFound:sum(packetBytes) 0
scalar NetworkPathRIPShowcase.wirelessSource.ipv4.ip packetDropNoRouteFound:count 0
scalar NetworkPathRIPShowcase.wirelessSource.ipv4.ip packetDropNoRouteFound:sum(packetBytes) 0
scalar NetworkPathRIPShowcase.wirelessSource.ipv4.ip packetDropUndefined:count 0
scalar NetworkPathRIPShowcase.wirelessSource.ipv4.ip packetDropUndefined:sum(packetBytes) 0
scalar NetworkPathRIPShowcase.wirelessSource.ipv4.arp arpResolutionFailed:count 0
scalar NetworkPathRIPShowcase.wirelessSource.ipv4.arp arpResolutionCompleted:count 3
scalar NetworkPathRIPShowcase.wirelessSource.ipv4.arp arpResolutionInitiated:count 2
scalar NetworkPathRIPShowcase.wirelessSource.ipv4.arp arpReplySent:count 1
scalar NetworkPathRIPShowcase.wirelessSource.ipv4.arp arpReplySent:sum(packetBytes) 28
scalar NetworkPathRIPShowcase.wirelessSource.ipv4.arp arpRequestSent:count 2
scalar NetworkPathRIPShowcase.wirelessSource.ipv4.arp arpRequestSent:sum(packetBytes) 56
scalar NetworkPathRIPShowcase.wirelessSource.udp packetReceived:count 0
scalar NetworkPathRIPShowcase.wirelessSource.udp packetReceived:sum(packetBytes) 0
scalar NetworkPathRIPShowcase.wirelessSource.udp packetSent:count 0
scalar NetworkPathRIPShowcase.wirelessSource.udp packetSent:sum(packetBytes) 0
scalar NetworkPathRIPShowcase.wirelessSource.udp passedUpPk:count 0
scalar NetworkPathRIPShowcase.wirelessSource.udp droppedPkWrongPort:count 0
scalar NetworkPathRIPShowcase.wirelessSource.udp droppedPkBadChecksum:count 0
scalar NetworkPathRIPShowcase.wirelessSource.app[0] "Pings sent" 250
scalar NetworkPathRIPShowcase.wirelessSource.app[0] "ping loss rate (%)" 2
scalar NetworkPathRIPShowcase.wirelessSource.app[0] "ping out-of-order rate (%)" 0
scalar NetworkPathRIPShowcase.wirelessSource.app[0] pingRxSeq:count 245
scalar NetworkPathRIPShowcase.wirelessSource.app[0] pingTxSeq:count 250
scalar NetworkPathRIPShowcase.wirelessSource.app[0] numOutOfOrderArrivals:last nan
scalar NetworkPathRIPShowcase.wirelessSource.app[0] numLost:last 4
scalar NetworkPathRIPShowcase.wirelessDestination.lo[0].lo rcvdPkFromHl:count 0
scalar NetworkPathRIPShowcase.wirelessDestination.lo[0].lo rcvdPkFromHl:sum(packetBytes) 0
scalar NetworkPathRIPShowcase.wirelessDestination.lo[0].lo passedUpPk:count 0
scalar NetworkPathRIPShowcase.wirelessDestination.lo[0].lo passedUpPk:sum(packetBytes) 0
scalar NetworkPathRIPShowcase.wirelessDestination.lo[0] packetDropInterfaceDown:count 0
scalar NetworkPathRIPShowcase.wirelessDestination.lo[0] packetDropInterfaceDown:sum(packetBytes) 0
scalar NetworkPathRIPShowcase.wirelessDestination.lo[0] packetDropNoCarrier:count 0
scalar NetworkPathRIPShowcase.wirelessDestination.lo[0] packetDropNoCarrier:sum(packetBytes) 0
scalar NetworkPathRIPShowcase.wirelessDestination.wlan[0].agent dropConfirm:count 0
scalar NetworkPathRIPShowcase.wirelessDestination.wlan[0].agent acceptConfirm:count 3
scalar NetworkPathRIPShowcase.wirelessDestination.wlan[0].agent sentRequest:count 3
scalar NetworkPathRIPShowcase.wirelessDestination.wlan[0].mac.dcf.channelAccess.pendingQueue queueLength:last 0
scalar NetworkPathRIPShowcase.wirelessDestination.wlan[0].mac.dcf.channelAccess.pendingQueue queueLength:max 1
scalar NetworkPathRIPShowcase.wirelessDestination.wlan[0].mac.dcf.channelAccess.pendingQueue queueLength:timeavg 0.00041155199999999982
scalar NetworkPathRIPShowcase.wirelessDestination.wlan[0].mac.dcf.channelAccess.pendingQueue queueBitLength:last 0
scalar NetworkPathRIPShowcase.wirelessDestination.wlan[0].mac.dcf.channelAccess.pendingQueue queueBitLength:max 960
scalar NetworkPathRIPShowcase.wirelessDestination.wlan[0].mac.dcf.channelAccess.pendingQueue queueBitLength:timeavg 0.38988095999999994
scalar NetworkPathRIPShowcase.wirelessDestination.wlan[0].mac.dcf.channelAccess.pendingQueue outgoingPackets:count 252
scalar NetworkPathRIPShowcase.wirelessDestination.wlan[0].mac.dcf.channelAccess.pendingQueue outgoingPacketLengths:sum 237888
scalar NetworkPathRIPShowcase.wirelessDestination.wlan[0].mac.dcf.channelAccess.pendingQueue incomingPackets:count 252
scalar NetworkPathRIPShowcase.wirelessDestination.wlan[0].mac.dcf.channelAccess.pendingQueue incomingPacketLengths:sum 237888
scalar NetworkPathRIPShowcase.wirelessDestination.wlan[0].mac.dcf.channelAccess.pendingQueue droppedPacketsQueueOverflow:count 0
scalar NetworkPathRIPShowcase.wirelessDestination.wlan[0].mac.dcf.channelAccess.pendingQueue droppedPacketLengthsQueueOverflow:sum 0
scalar NetworkPathRIPShowcase.wirelessDestination.wlan[0].mac.dcf.channelAccess.inProgressFrames queueLength:max 1
scalar NetworkPathRIPShowcase.wirelessDestination.wlan[0].mac.dcf.channelAccess.inProgressFrames queueLength:timeavg 0.0001198921222160005
scalar NetworkPathRIPShowcase.wirelessDestination.wlan[0].mac.dcf.channelAccess.contention channelAccessGranted:count 254
scalar NetworkPathRIPShowcase.wirelessDestination.wlan[0].mac.dcf.channelAccess.contention stateChanged:count 14078
scalar NetworkPathRIPShowcase.wirelessDestination.wlan[0].mac.dcf.channelAccess channelOwnershipChanged:count 508
scalar NetworkPathRIPShowcase.wirelessDestination.wlan[0].mac.dcf.originatorMacDataService packetAggregated:count 0
scalar NetworkPathRIPShowcase.wirelessDestination.wlan[0].mac.dcf.originatorMacDataService packetFragmented:count 0
scalar NetworkPathRIPShowcase.wirelessDestination.wlan[0].mac.dcf.recipientMacDataService packetDeaggregated:count 0
scalar NetworkPathRIPShowcase.wirelessDestination.wlan[0].mac.dcf.recipientMacDataService packetDefragmented:count 2761
scalar NetworkPathRIPShowcase.wirelessDestination.wlan[0].mac.dcf.recipientMacDataService packetDropDuplicateDetected:count 0
scalar NetworkPathRIPShowcase.wirelessDestination.wlan[0].mac.dcf.recipientMacDataService packetDropDuplicateDetected:sum(packetBytes) 0
scalar NetworkPathRIPShowcase.wirelessDestination.wlan[0].mac.dcf.recoveryProcedure retryLimitReached:count 0
scalar NetworkPathRIPShowcase.wirelessDestination.wlan[0].mac.dcf frameSequenceFinished:count 254
scalar NetworkPathRIPShowcase.wirelessDestination.wlan[0].mac.dcf packetReceivedFromPeer:count 3012
scalar NetworkPathRIPShowcase.wirelessDestination.wlan[0].mac.dcf packetReceivedFromPeer:sum(packetBytes) 179061
scalar NetworkPathRIPShowcase.wirelessDestination.wlan[0].mac.dcf packetReceivedFromPeerUnicast:count 500
scalar NetworkPathRIPShowcase.wirelessDestination.wlan[0].mac.dcf packetReceivedFromPeerUnicast:sum(packetBytes) 33083
scalar NetworkPathRIPShowcase.wirelessDestination.wlan[0].mac.dcf packetReceivedFromPeerMulticast:count 2512
scalar NetworkPathRIPShowcase.wirelessDestination.wlan[0].mac.dcf packetReceivedFromPeerMulticast:sum(packetBytes) 145978
scalar NetworkPathRIPShowcase.wirelessDestination.wlan[0].mac.dcf packetReceivedFromPeerBroadcast:count 2503
scalar NetworkPathRIPShowcase.wirelessDestination.wlan[0].mac.dcf packetReceivedFromPeerBroadcast:sum(packetBytes) 142746
scalar NetworkPathRIPShowcase.wirelessDestination.wlan[0].mac.dcf packetReceivedFromPeerWithRetry:count 0
scalar NetworkPathRIPShowcase.wirelessDestination.wlan[0].mac.dcf packetReceivedFromPeerWithRetry:sum(packetBytes) 0
scalar NetworkPathRIPShowcase.wirelessDestination.wlan[0].mac.dcf packetReceivedFromPeerWithoutRetry:count 3012
scalar NetworkPathRIPShowcase.wirelessDestination.wlan[0].mac.dcf packetReceivedFromPeerWithoutRetry:sum(packetBytes) 179061
scalar NetworkPathRIPShowcase.wirelessDestination.wlan[0].mac.dcf packetSentToPeer:count 503
scalar NetworkPathRIPShowcase.wirelessDestination.wlan[0].mac.dcf packetSentToPeer:sum(packetBytes) 33462
scalar NetworkPathRIPShowcase.wirelessDestination.wlan[0].mac.dcf packetSentToPeerUnicast:count 502
scalar NetworkPathRIPShowcase.wirelessDestination.wlan[0].mac.dcf packetSentToPeerUnicast:sum(packetBytes) 33422
scalar NetworkPathRIPShowcase.wirelessDestination.wlan[0].mac.dcf packetSentToPeerMulticast:count 1
scalar NetworkPathRIPShowcase.wirelessDestination.wlan[0].mac.dcf packetSentToPeerMulticast:sum(packetBytes) 40
scalar NetworkPathRIPShowcase.wirelessDestination.wlan[0].mac.dcf packetSentToPeerBroadcast:count 1
scalar NetworkPathRIPShowcase.wirelessDestination.wlan[0].mac.dcf packetSentToPeerBroadcast:sum(packetBytes) 40
scalar NetworkPathRIPShowcase.wirelessDestination.wlan[0].mac.dcf packetSentToPeerWithRetry:count 2
scalar NetworkPathRIPShowcase.wirelessDestination.wlan[0].mac.dcf packetSentToPeerWithRetry:sum(packetBytes) 240
scalar NetworkPathRIPShowcase.wirelessDestination.wlan[0].mac.dcf packetSentToPeerWithoutRetry:count 501
scalar NetworkPathRIPShowcase.wirelessDestination.wlan[0].mac.dcf packetSentToPeerWithoutRetry:sum(packetBytes) 33222
scalar NetworkPathRIPShowcase.wirelessDestination.wlan[0].mac.dcf packetDrop:count 0
scalar NetworkPathRIPShowcase.wirelessDestination.wlan[0].mac.dcf packetDrop:sum(packetBytes) 0
scalar NetworkPathRIPShowcase.wirelessDestination.wlan[0].mac.dcf packetDropNotAddressedToUs:count 0
scalar NetworkPathRIPShowcase.wirelessDestination.wlan[0].mac.dcf packetDropNotAddressedToUs:sum(packetBytes) 0
scalar NetworkPathRIPShowcase.wirelessDestination.wlan[0].mac.dcf packetDropQueueOverflow:count 0
scalar NetworkPathRIPShowcase.wirelessDestination.wlan[0].mac.dcf packetDropQueueOverflow:sum(packetBytes) 0
scalar NetworkPathRIPShowcase.wirelessDestination.wlan[0].mac.dcf packetDropRetryLimitReached:count 0
scalar NetworkPathRIPShowcase.wirelessDestination.wlan[0].mac.dcf packetDropRetryLimitReached:sum(packetBytes) 0
scalar NetworkPathRIPShowcase.wirelessDestination.wlan[0].mac.dcf linkBroken:count 0
scalar NetworkPathRIPShowcase.wirelessDestination.wlan[0].mac packetReceivedFromLower:count 3014
scalar NetworkPathRIPShowcase.wirelessDestination.wlan[0].mac packetReceivedFromLower:sum(packetBytes) 179089
scalar NetworkPathRIPShowcase.wirelessDestination.wlan[0].mac packetSentToLower:count 503
scalar NetworkPathRIPShowcase.wirelessDestination.wlan[0].mac packetSentToLower:sum(packetBytes) 33462
scalar NetworkPathRIPShowcase.wirelessDestination.wlan[0].mac packetReceivedFromUpper:count 248
scalar NetworkPathRIPShowcase.wirelessDestination.wlan[0].mac packetReceivedFromUpper:sum(packetBytes) 22648
scalar NetworkPathRIPShowcase.wirelessDestination.wlan[0].mac packetSentToUpper:count 257
scalar NetworkPathRIPShowcase.wirelessDestination.wlan[0].mac packetSentToUpper:sum(packetBytes) 25682
scalar NetworkPathRIPShowcase.wirelessDestination.wlan[0].mac packetDrop:count 2
scalar NetworkPathRIPShowcase.wirelessDestination.wlan[0].mac packetDrop:sum(packetBytes) 28
scalar NetworkPathRIPShowcase.wirelessDestination.wlan[0].mac packetDropIncorrectlyReceived:count 2
scalar NetworkPathRIPShowcase.wirelessDestination.wlan[0].mac packetDropIncorrectlyReceived:sum(packetBytes) 28
scalar NetworkPathRIPShowcase.wirelessDestination.wlan[0].mac packetDropNotAddressedToUs:count 0
scalar NetworkPathRIPShowcase.wirelessDestination.wlan[0].mac packetDropNotAddressedToUs:sum(packetBytes) 0
scalar NetworkPathRIPShowcase.wirelessDestination.wlan[0].mac packetDropQueueOverflow:count 0
scalar NetworkPathRIPShowcase.wirelessDestination.wlan[0].mac packetDropQueueOverflow:sum(packetBytes) 0
scalar NetworkPathRIPShowcase.wirelessDestination.wlan[0].mac packetDropRetryLimitReached:count 0
scalar NetworkPathRIPShowcase.wirelessDestination.wlan[0].mac packetDropRetryLimitReached:sum(packetBytes) 0
scalar NetworkPathRIPShowcase.wirelessDestination.wlan[0].mac packetDropDuplicateDetected:count 0
scalar NetworkPathRIPShowcase.wirelessDestination.wlan[0].mac packetDropDuplicateDetected:sum(packetBytes) 0
scalar NetworkPathRIPShowcase.wirelessDestination.wlan[0].mac packetDropOther:count 0
scalar NetworkPathRIPShowcase.wirelessDestination.wlan[0].mac packetDropOther:sum(packetBytes) 0
scalar NetworkPathRIPShowcase.wirelessDestination.wlan[0].mac linkBroken:count 0
scalar NetworkPathRIPShowcase.wirelessDestination.wlan[0].radio radioMode:count 1009
scalar NetworkPathRIPShowcase.wirelessDestination.wlan[0].radio receptionState:count 7035
scalar NetworkPathRIPShowcase.wirelessDestination.wlan[0].radio transmissionState:count 2012
scalar NetworkPathRIPShowcase.wirelessDestination.wlan[0] packetDropInterfaceDown:count 0
scalar NetworkPathRIPShowcase.wirelessDestination.wlan[0] packetDropInterfaceDown:sum(packetBytes) 0
scalar NetworkPathRIPShowcase.wirelessDestination.wlan[0] packetDropNoCarrier:count 0
scalar NetworkPathRIPShowcase.wirelessDestination.wlan[0] packetDropNoCarrier:sum(packetBytes) 0
scalar NetworkPathRIPShowcase.wirelessDestination.ipv4.ip packetDropAddressResolutionFailed:count 0
scalar NetworkPathRIPShowcase.wirelessDestination.ipv4.ip packetDropAddressResolutionFailed:sum(packetBytes) 0
scalar NetworkPathRIPShowcase.wirelessDestination.ipv4.ip packetDropHopLimitReached:count 0
scalar NetworkPathRIPShowcase.wirelessDestination.ipv4.ip packetDropHopLimitReached:sum(packetBytes) 0
scalar NetworkPathRIPShowcase.wirelessDestination.ipv4.ip packetDropForwardingDisabled:count 0
scalar NetworkPathRIPShowcase.wirelessDestination.ipv4.ip packetDropForwardingDisabled:sum(packetBytes) 0
scalar NetworkPathRIPShowcase.wirelessDestination.ipv4.ip packetDropLifetimeExpired:count 0
scalar NetworkPathRIPShowcase.wirelessDestination.ipv4.ip packetDropLifetimeExpired:sum(packetBytes) 0
scalar NetworkPathRIPShowcase.wirelessDestination.ipv4.ip packetDropNoInterfaceFound:count 0
scalar NetworkPathRIPShowcase.wirelessDestination.ipv4.ip packetDropNoInterfaceFound:sum(packetBytes) 0
scalar NetworkPathRIPShowcase.wirelessDestination.ipv4.ip packetDropNoRouteFound:count 0
scalar NetworkPathRIPShowcase.wirelessDestination.ipv4.ip packetDropNoRouteFound:sum(packetBytes) 0
scalar NetworkPathRIPShowcase.wirelessDestination.ipv4.ip packetDropUndefined:count 0
scalar NetworkPathRIPShowcase.wirelessDestination.ipv4.ip packetDropUndefined:sum(packetBytes) 0
scalar NetworkPathRIPShowcase.wirelessDestination.ipv4.arp arpResolutionFailed:count 0
scalar NetworkPathRIPShowcase.wirelessDestination.ipv4.arp arpResolutionCompleted:count 3
scalar NetworkPathRIPShowcase.wirelessDestination.ipv4.arp arpResolutionInitiated:count 0
scalar NetworkPathRIPShowcase.wirelessDestination.ipv4.arp arpReplySent:count 3
scalar NetworkPathRIPShowcase.wirelessDestination.ipv4.arp arpReplySent:sum(packetBytes) 84
scalar NetworkPathRIPShowcase.wirelessDestination.ipv4.arp arpRequestSent:count 0
scalar NetworkPathRIPShowcase.wirelessDestination.ipv4.arp arpRequestSent:sum(packetBytes) 0
scalar NetworkPathRIPShowcase.wirelessDestination.udp packetReceived:count 0
scalar NetworkPathRIPShowcase.wirelessDestination.udp packetReceived:sum(packetBytes) 0
scalar NetworkPathRIPShowcase.wirelessDestination.udp packetSent:count 0
scalar NetworkPathRIPShowcase.wirelessDestination.udp packetSent:sum(packetBytes) 0
scalar NetworkPathRIPShowcase.wirelessDestination.udp passedUpPk:count 0
scalar NetworkPathRIPShowcase.wirelessDestination.udp droppedPkWrongPort:count 0
scalar NetworkPathRIPShowcase.wirelessDestination.udp droppedPkBadChecksum:count 0
scalar NetworkPathRIPShowcase.host1.ethernet pauseSent:count 0
scalar NetworkPathRIPShowcase.host1.ethernet pauseSent:sum 0
scalar NetworkPathRIPShowcase.host1.ethernet decapPk:count 17
scalar NetworkPathRIPShowcase.host1.ethernet decapPk:sum(packetBytes) 3746
scalar NetworkPathRIPShowcase.host1.ethernet encapPk:count 0
scalar NetworkPathRIPShowcase.host1.ethernet encapPk:sum(packetBytes) 0
scalar NetworkPathRIPShowcase.host1.lo[0].lo rcvdPkFromHl:count 0
scalar NetworkPathRIPShowcase.host1.lo[0].lo rcvdPkFromHl:sum(packetBytes) 0
scalar NetworkPathRIPShowcase.host1.lo[0].lo passedUpPk:count 0
scalar NetworkPathRIPShowcase.host1.lo[0].lo passedUpPk:sum(packetBytes) 0
scalar NetworkPathRIPShowcase.host1.lo[0] packetDropInterfaceDown:count 0
scalar NetworkPathRIPShowcase.host1.lo[0] packetDropInterfaceDown:sum(packetBytes) 0
scalar NetworkPathRIPShowcase.host1.lo[0] packetDropNoCarrier:count 0
scalar NetworkPathRIPShowcase.host1.lo[0] packetDropNoCarrier:sum(packetBytes) 0
scalar NetworkPathRIPShowcase.host1.eth[0].queue queueLength:last 0
scalar NetworkPathRIPShowcase.host1.eth[0].queue queueLength:max 0
scalar NetworkPathRIPShowcase.host1.eth[0].queue queueLength:timeavg 0
scalar NetworkPathRIPShowcase.host1.eth[0].queue queueBitLength:last 0
scalar NetworkPathRIPShowcase.host1.eth[0].queue queueBitLength:max 0
scalar NetworkPathRIPShowcase.host1.eth[0].queue queueBitLength:timeavg 0
scalar NetworkPathRIPShowcase.host1.eth[0].queue outgoingPackets:count 0
scalar NetworkPathRIPShowcase.host1.eth[0].queue outgoingPacketLengths:sum 0
scalar NetworkPathRIPShowcase.host1.eth[0].queue incomingPackets:count 0
scalar NetworkPathRIPShowcase.host1.eth[0].queue incomingPacketLengths:sum 0
scalar NetworkPathRIPShowcase.host1.eth[0].queue droppedPacketsQueueOverflow:count 0
scalar NetworkPathRIPShowcase.host1.eth[0].queue droppedPacketLengthsQueueOverflow:sum 0
scalar NetworkPathRIPShowcase.host1.eth[0].mac "simulated time" 250
scalar NetworkPathRIPShowcase.host1.eth[0].mac full-duplex 1
scalar NetworkPathRIPShowcase.host1.eth[0].mac "frames/sec sent" 0
scalar NetworkPathRIPShowcase.host1.eth[0].mac "frames/sec rcvd" 0.068000000000000005
scalar NetworkPathRIPShowcase.host1.eth[0].mac "bits/sec sent" 0
scalar NetworkPathRIPShowcase.host1.eth[0].mac "bits/sec rcvd" 129.66399999999999
scalar NetworkPathRIPShowcase.host1.eth[0].mac "rx channel idle (%)" 99.999865983999996
scalar NetworkPathRIPShowcase.host1.eth[0].mac "rx channel utilization (%)" 0.00013401600000000001
scalar NetworkPathRIPShowcase.host1.eth[0].mac rxPausePkUnits:count 0
scalar NetworkPathRIPShowcase.host1.eth[0].mac rxPausePkUnits:sum 0
scalar NetworkPathRIPShowcase.host1.eth[0].mac txPausePkUnits:count 0
scalar NetworkPathRIPShowcase.host1.eth[0].mac txPausePkUnits:sum 0
scalar NetworkPathRIPShowcase.host1.eth[0].mac rxPkOk:count 17
scalar NetworkPathRIPShowcase.host1.eth[0].mac rxPkOk:sum(packetBytes) 4052
scalar NetworkPathRIPShowcase.host1.eth[0].mac txPk:count 0
scalar NetworkPathRIPShowcase.host1.eth[0].mac txPk:sum(packetBytes) 0
scalar NetworkPathRIPShowcase.host1.eth[0].mac packetReceivedFromUpper:count 0
scalar NetworkPathRIPShowcase.host1.eth[0].mac packetReceivedFromUpper:sum(packetBytes) 0
scalar NetworkPathRIPShowcase.host1.eth[0].mac passedUpPk:count 17
scalar NetworkPathRIPShowcase.host1.eth[0].mac passedUpPk:sum(packetBytes) 4052
scalar NetworkPathRIPShowcase.host1.eth[0].mac packetDropIncorrectlyReceived:count 0
scalar NetworkPathRIPShowcase.host1.eth[0].mac packetDropIncorrectlyReceived:sum(packetBytes) 0
scalar NetworkPathRIPShowcase.host1.eth[0].mac packetDropInterfaceDown:count 0
scalar NetworkPathRIPShowcase.host1.eth[0].mac packetDropInterfaceDown:sum(packetBytes) 0
scalar NetworkPathRIPShowcase.host1.eth[0].mac packetDropNotAddressedToUs:count 0
scalar NetworkPathRIPShowcase.host1.eth[0].mac packetDropNotAddressedToUs:sum(packetBytes) 0
scalar NetworkPathRIPShowcase.host1.eth[0] packetDropInterfaceDown:count 0
scalar NetworkPathRIPShowcase.host1.eth[0] packetDropInterfaceDown:sum(packetBytes) 0
scalar NetworkPathRIPShowcase.host1.eth[0] packetDropNoCarrier:count 0
scalar NetworkPathRIPShowcase.host1.eth[0] packetDropNoCarrier:sum(packetBytes) 0
scalar NetworkPathRIPShowcase.host1.ipv4.ip packetDropAddressResolutionFailed:count 0
scalar NetworkPathRIPShowcase.host1.ipv4.ip packetDropAddressResolutionFailed:sum(packetBytes) 0
scalar NetworkPathRIPShowcase.host1.ipv4.ip packetDropHopLimitReached:count 0
scalar NetworkPathRIPShowcase.host1.ipv4.ip packetDropHopLimitReached:sum(packetBytes) 0
scalar NetworkPathRIPShowcase.host1.ipv4.ip packetDropForwardingDisabled:count 0
scalar NetworkPathRIPShowcase.host1.ipv4.ip packetDropForwardingDisabled:sum(packetBytes) 0
scalar NetworkPathRIPShowcase.host1.ipv4.ip packetDropLifetimeExpired:count 0
scalar NetworkPathRIPShowcase.host1.ipv4.ip packetDropLifetimeExpired:sum(packetBytes) 0
scalar NetworkPathRIPShowcase.host1.ipv4.ip packetDropNoInterfaceFound:count 0
scalar NetworkPathRIPShowcase.host1.ipv4.ip packetDropNoInterfaceFound:sum(packetBytes) 0
scalar NetworkPathRIPShowcase.host1.ipv4.ip packetDropNoRouteFound:count 0
scalar NetworkPathRIPShowcase.host1.ipv4.ip packetDropNoRouteFound:sum(packetBytes) 0
scalar NetworkPathRIPShowcase.host1.ipv4.ip packetDropUndefined:count 0
scalar NetworkPathRIPShowcase.host1.ipv4.ip packetDropUndefined:sum(packetBytes) 0
scalar NetworkPathRIPShowcase.host1.ipv4.arp arpResolutionFailed:count 0
scalar NetworkPathRIPShowcase.host1.ipv4.arp arpResolutionCompleted:count 0
scalar NetworkPathRIPShowcase.host1.ipv4.arp arpResolutionInitiated:count 0
scalar NetworkPathRIPShowcase.host1.ipv4.arp arpReplySent:count 0
scalar NetworkPathRIPShowcase.host1.ipv4.arp arpReplySent:sum(packetBytes) 0
scalar NetworkPathRIPShowcase.host1.ipv4.arp arpRequestSent:count 0
scalar NetworkPathRIPShowcase.host1.ipv4.arp arpRequestSent:sum(packetBytes) 0
scalar NetworkPathRIPShowcase.host1.udp packetReceived:count 0
scalar NetworkPathRIPShowcase.host1.udp packetReceived:sum(packetBytes) 0
scalar NetworkPathRIPShowcase.host1.udp packetSent:count 0
scalar NetworkPathRIPShowcase.host1.udp packetSent:sum(packetBytes) 0
scalar NetworkPathRIPShowcase.host1.udp passedUpPk:count 0
scalar NetworkPathRIPShowcase.host1.udp droppedPkWrongPort:count 0
scalar NetworkPathRIPShowcase.host1.udp droppedPkBadChecksum:count 0
scalar NetworkPathRIPShowcase.host2.ethernet pauseSent:count 0
scalar NetworkPathRIPShowcase.host2.ethernet pauseSent:sum 0
scalar NetworkPathRIPShowcase.host2.ethernet decapPk:count 12
scalar NetworkPathRIPShowcase.host2.ethernet decapPk:sum(packetBytes) 3046
scalar NetworkPathRIPShowcase.host2.ethernet encapPk:count 0
scalar NetworkPathRIPShowcase.host2.ethernet encapPk:sum(packetBytes) 0
scalar NetworkPathRIPShowcase.host2.lo[0].lo rcvdPkFromHl:count 0
scalar NetworkPathRIPShowcase.host2.lo[0].lo rcvdPkFromHl:sum(packetBytes) 0
scalar NetworkPathRIPShowcase.host2.lo[0].lo passedUpPk:count 0
scalar NetworkPathRIPShowcase.host2.lo[0].lo passedUpPk:sum(packetBytes) 0
scalar NetworkPathRIPShowcase.host2.lo[0] packetDropInterfaceDown:count 0
scalar NetworkPathRIPShowcase.host2.lo[0] packetDropInterfaceDown:sum(packetBytes) 0
scalar NetworkPathRIPShowcase.host2.lo[0] packetDropNoCarrier:count 0
scalar NetworkPathRIPShowcase.host2.lo[0] packetDropNoCarrier:sum(packetBytes) 0
scalar NetworkPathRIPShowcase.host2.eth[0].queue queueLength:last 0
scalar NetworkPathRIPShowcase.host2.eth[0].queue queueLength:max 0
scalar NetworkPathRIPShowcase.host2.eth[0].queue queueLength:timeavg 0
scalar NetworkPathRIPShowcase.host2.eth[0].queue queueBitLength:last 0
scalar NetworkPathRIPShowcase.host2.eth[0].queue queueBitLength:max 0
scalar NetworkPathRIPShowcase.host2.eth[0].queue queueBitLength:timeavg 0
scalar NetworkPathRIPShowcase.host2.eth[0].queue outgoingPackets:count 0
scalar NetworkPathRIPShowcase.host2.eth[0].queue outgoingPacketLengths:sum 0
scalar NetworkPathRIPShowcase.host2.eth[0].queue incomingPackets:count 0
scalar NetworkPathRIPShowcase.host2.eth[0].queue incomingPacketLengths:sum 0
scalar NetworkPathRIPShowcase.host2.eth[0].queue droppedPacketsQueueOverflow:count 0
scalar NetworkPathRIPShowcase.host2.eth[0].queue droppedPacketLengthsQueueOverflow:sum 0
scalar NetworkPathRIPShowcase.host2.eth[0].mac "simulated time" 250
scalar NetworkPathRIPShowcase.host2.eth[0].mac full-duplex 1
scalar NetworkPathRIPShowcase.host2.eth[0].mac "frames/sec sent" 0
scalar NetworkPathRIPShowcase.host2.eth[0].mac "frames/sec rcvd" 0.048000000000000001
scalar NetworkPathRIPShowcase.host2.eth[0].mac "bits/sec sent" 0
scalar NetworkPathRIPShowcase.host2.eth[0].mac "bits/sec rcvd" 104.384
scalar NetworkPathRIPShowcase.host2.eth[0].mac "rx channel idle (%)" 99.999892544000005
scalar NetworkPathRIPShowcase.host2.eth[0].mac "rx channel utilization (%)" 0.000107456
scalar NetworkPathRIPShowcase.host2.eth[0].mac rxPausePkUnits:count 0
scalar NetworkPathRIPShowcase.host2.eth[0].mac rxPausePkUnits:sum 0
scalar NetworkPathRIPShowcase.host2.eth[0].mac txPausePkUnits:count 0
scalar NetworkPathRIPShowcase.host2.eth[0].mac txPausePkUnits:sum 0
scalar NetworkPathRIPShowcase.host2.eth[0].mac rxPkOk:count 12
scalar NetworkPathRIPShowcase.host2.eth[0].mac rxPkOk:sum(packetBytes) 3262
scalar NetworkPathRIPShowcase.host2.eth[0].mac txPk:count 0
scalar NetworkPathRIPShowcase.host2.eth[0].mac txPk:sum(packetBytes) 0
scalar NetworkPathRIPShowcase.host2.eth[0].mac packetReceivedFromUpper:count 0
scalar NetworkPathRIPShowcase.host2.eth[0].mac packetReceivedFromUpper:sum(packetBytes) 0
scalar NetworkPathRIPShowcase.host2.eth[0].mac passedUpPk:count 12
scalar NetworkPathRIPShowcase.host2.eth[0].mac passedUpPk:sum(packetBytes) 3262
scalar NetworkPathRIPShowcase.host2.eth[0].mac packetDropIncorrectlyReceived:count 0
scalar NetworkPathRIPShowcase.host2.eth[0].mac packetDropIncorrectlyReceived:sum(packetBytes) 0
scalar NetworkPathRIPShowcase.host2.eth[0].mac packetDropInterfaceDown:count 0
scalar NetworkPathRIPShowcase.host2.eth[0].mac packetDropInterfaceDown:sum(packetBytes) 0
scalar NetworkPathRIPShowcase.host2.eth[0].mac packetDropNotAddressedToUs:count 0
scalar NetworkPathRIPShowcase.host2.eth[0].mac packetDropNotAddressedToUs:sum(packetBytes) 0
scalar NetworkPathRIPShowcase.host2.eth[0] packetDropInterfaceDown:count 0
scalar NetworkPathRIPShowcase.host2.eth[0] packetDropInterfaceDown:sum(packetBytes) 0
scalar NetworkPathRIPShowcase.host2.eth[0] packetDropNoCarrier:count 0
scalar NetworkPathRIPShowcase.host2.eth[0] packetDropNoCarrier:sum(packetBytes) 0
scalar NetworkPathRIPShowcase.host2.ipv4.ip packetDropAddressResolutionFailed:count 0
scalar NetworkPathRIPShowcase.host2.ipv4.ip packetDropAddressResolutionFailed:sum(packetBytes) 0
scalar NetworkPathRIPShowcase.host2.ipv4.ip packetDropHopLimitReached:count 0
scalar NetworkPathRIPShowcase.host2.ipv4.ip packetDropHopLimitReached:sum(packetBytes) 0
scalar NetworkPathRIPShowcase.host2.ipv4.ip packetDropForwardingDisabled:count 0
scalar NetworkPathRIPShowcase.host2.ipv4.ip packetDropForwardingDisabled:sum(packetBytes) 0
scalar NetworkPathRIPShowcase.host2.ipv4.ip packetDropLifetimeExpired:count 0
scalar NetworkPathRIPShowcase.host2.ipv4.ip packetDropLifetimeExpired:sum(packetBytes) 0
scalar NetworkPathRIPShowcase.host2.ipv4.ip packetDropNoInterfaceFound:count 0
scalar NetworkPathRIPShowcase.host2.ipv4.ip packetDropNoInterfaceFound:sum(packetBytes) 0
scalar NetworkPathRIPShowcase.host2.ipv4.ip packetDropNoRouteFound:count 0
scalar NetworkPathRIPShowcase.host2.ipv4.ip packetDropNoRouteFound:sum(packetBytes) 0
scalar NetworkPathRIPShowcase.host2.ipv4.ip packetDropUndefined:count 0
scalar NetworkPathRIPShowcase.host2.ipv4.ip packetDropUndefined:sum(packetBytes) 0
scalar NetworkPathRIPShowcase.host2.ipv4.arp arpResolutionFailed:count 0
scalar NetworkPathRIPShowcase.host2.ipv4.arp arpResolutionCompleted:count 0
scalar NetworkPathRIPShowcase.host2.ipv4.arp arpResolutionInitiated:count 0
scalar NetworkPathRIPShowcase.host2.ipv4.arp arpReplySent:count 0
scalar NetworkPathRIPShowcase.host2.ipv4.arp arpReplySent:sum(packetBytes) 0
scalar NetworkPathRIPShowcase.host2.ipv4.arp arpRequestSent:count 0
scalar NetworkPathRIPShowcase.host2.ipv4.arp arpRequestSent:sum(packetBytes) 0
scalar NetworkPathRIPShowcase.host2.udp packetReceived:count 0
scalar NetworkPathRIPShowcase.host2.udp packetReceived:sum(packetBytes) 0
scalar NetworkPathRIPShowcase.host2.udp packetSent:count 0
scalar NetworkPathRIPShowcase.host2.udp packetSent:sum(packetBytes) 0
scalar NetworkPathRIPShowcase.host2.udp passedUpPk:count 0
scalar NetworkPathRIPShowcase.host2.udp droppedPkWrongPort:count 0
scalar NetworkPathRIPShowcase.host2.udp droppedPkBadChecksum:count 0
scalar NetworkPathRIPShowcase.accessPoint0.bridging "processed frames" 0
scalar NetworkPathRIPShowcase.accessPoint0.bridging "discarded frames" 0
scalar NetworkPathRIPShowcase.accessPoint0.bridging "number of received BPDUs from STP module" 0
scalar NetworkPathRIPShowcase.accessPoint0.bridging "number of received frames from network (including BPDUs)" 514
scalar NetworkPathRIPShowcase.accessPoint0.bridging "number of dropped frames (including BPDUs)" 0
scalar NetworkPathRIPShowcase.accessPoint0.bridging "number of delivered BPDUs to the STP module" 0
scalar NetworkPathRIPShowcase.accessPoint0.bridging "number of dispatched BPDU frames to the network" 0
scalar NetworkPathRIPShowcase.accessPoint0.bridging "number of dispatched non-BDPU frames to the network" 0
scalar NetworkPathRIPShowcase.accessPoint0.bridging packetDropped:count 0
scalar NetworkPathRIPShowcase.accessPoint0.bridging packetDropped:sum(packetBytes) 0
scalar NetworkPathRIPShowcase.accessPoint0.ethernet pauseSent:count 0
scalar NetworkPathRIPShowcase.accessPoint0.ethernet pauseSent:sum 0
scalar NetworkPathRIPShowcase.accessPoint0.ethernet decapPk:count 514
scalar NetworkPathRIPShowcase.accessPoint0.ethernet decapPk:sum(packetBytes) 45326
scalar NetworkPathRIPShowcase.accessPoint0.ethernet encapPk:count 514
scalar NetworkPathRIPShowcase.accessPoint0.ethernet encapPk:sum(packetBytes) 45326
scalar NetworkPathRIPShowcase.accessPoint0.wlan[0].mac.dcf.channelAccess.pendingQueue queueLength:last 0
scalar NetworkPathRIPShowcase.accessPoint0.wlan[0].mac.dcf.channelAccess.pendingQueue queueLength:max 2
scalar NetworkPathRIPShowcase.accessPoint0.wlan[0].mac.dcf.channelAccess.pendingQueue queueLength:timeavg 4.2516760123999996e-05
scalar NetworkPathRIPShowcase.accessPoint0.wlan[0].mac.dcf.channelAccess.pendingQueue queueBitLength:last 0
scalar NetworkPathRIPShowcase.accessPoint0.wlan[0].mac.dcf.channelAccess.pendingQueue queueBitLength:max 3744
scalar NetworkPathRIPShowcase.accessPoint0.wlan[0].mac.dcf.channelAccess.pendingQueue queueBitLength:timeavg 0.034404603032832
scalar NetworkPathRIPShowcase.accessPoint0.wlan[0].mac.dcf.channelAccess.pendingQueue outgoingPackets:count 2768
scalar NetworkPathRIPShowcase.accessPoint0.wlan[0].mac.dcf.channelAccess.pendingQueue outgoingPacketLengths:sum 1392432
scalar NetworkPathRIPShowcase.accessPoint0.wlan[0].mac.dcf.channelAccess.pendingQueue incomingPackets:count 2768
scalar NetworkPathRIPShowcase.accessPoint0.wlan[0].mac.dcf.channelAccess.pendingQueue incomingPacketLengths:sum 1392432
scalar NetworkPathRIPShowcase.accessPoint0.wlan[0].mac.dcf.channelAccess.pendingQueue droppedPacketsQueueOverflow:count 0
scalar NetworkPathRIPShowcase.accessPoint0.wlan[0].mac.dcf.channelAccess.pendingQueue droppedPacketLengthsQueueOverflow:sum 0
scalar NetworkPathRIPShowcase.accessPoint0.wlan[0].mac.dcf.channelAccess.inProgressFrames queueLength:max 2
scalar NetworkPathRIPShowcase.accessPoint0.wlan[0].mac.dcf.channelAccess.inProgressFrames queueLength:timeavg 0.00058692400986399683
scalar NetworkPathRIPShowcase.accessPoint0.wlan[0].mac.dcf.channelAccess.contention channelAccessGranted:count 2768
scalar NetworkPathRIPShowcase.accessPoint0.wlan[0].mac.dcf.channelAccess.contention stateChanged:count 24190
scalar NetworkPathRIPShowcase.accessPoint0.wlan[0].mac.dcf.channelAccess channelOwnershipChanged:count 5536
scalar NetworkPathRIPShowcase.accessPoint0.wlan[0].mac.dcf.originatorMacDataService packetAggregated:count 0
scalar NetworkPathRIPShowcase.accessPoint0.wlan[0].mac.dcf.originatorMacDataService packetFragmented:count 0
scalar NetworkPathRIPShowcase.accessPoint0.wlan[0].mac.dcf.recipientMacDataService packetDeaggregated:count 0
scalar NetworkPathRIPShowcase.accessPoint0.wlan[0].mac.dcf.recipientMacDataService packetDefragmented:count 256
scalar NetworkPathRIPShowcase.accessPoint0.wlan[0].mac.dcf.recipientMacDataService packetDropDuplicateDetected:count 0
scalar NetworkPathRIPShowcase.accessPoint0.wlan[0].mac.dcf.recipientMacDataService packetDropDuplicateDetected:sum(packetBytes) 0
scalar NetworkPathRIPShowcase.accessPoint0.wlan[0].mac.dcf.recoveryProcedure retryLimitReached:count 0
scalar NetworkPathRIPShowcase.accessPoint0.wlan[0].mac.dcf frameSequenceFinished:count 2768
scalar NetworkPathRIPShowcase.accessPoint0.wlan[0].mac.dcf packetReceivedFromPeer:count 507
scalar NetworkPathRIPShowcase.accessPoint0.wlan[0].mac.dcf packetReceivedFromPeer:sum(packetBytes) 33730
scalar NetworkPathRIPShowcase.accessPoint0.wlan[0].mac.dcf packetReceivedFromPeerUnicast:count 506
scalar NetworkPathRIPShowcase.accessPoint0.wlan[0].mac.dcf packetReceivedFromPeerUnicast:sum(packetBytes) 33690
scalar NetworkPathRIPShowcase.accessPoint0.wlan[0].mac.dcf packetReceivedFromPeerMulticast:count 1
scalar NetworkPathRIPShowcase.accessPoint0.wlan[0].mac.dcf packetReceivedFromPeerMulticast:sum(packetBytes) 40
scalar NetworkPathRIPShowcase.accessPoint0.wlan[0].mac.dcf packetReceivedFromPeerBroadcast:count 1
scalar NetworkPathRIPShowcase.accessPoint0.wlan[0].mac.dcf packetReceivedFromPeerBroadcast:sum(packetBytes) 40
scalar NetworkPathRIPShowcase.accessPoint0.wlan[0].mac.dcf packetReceivedFromPeerWithRetry:count 0
scalar NetworkPathRIPShowcase.accessPoint0.wlan[0].mac.dcf packetReceivedFromPeerWithRetry:sum(packetBytes) 0
scalar NetworkPathRIPShowcase.accessPoint0.wlan[0].mac.dcf packetReceivedFromPeerWithoutRetry:count 507
scalar NetworkPathRIPShowcase.accessPoint0.wlan[0].mac.dcf packetReceivedFromPeerWithoutRetry:sum(packetBytes) 33730
scalar NetworkPathRIPShowcase.accessPoint0.wlan[0].mac.dcf packetSentToPeer:count 3023
scalar NetworkPathRIPShowcase.accessPoint0.wlan[0].mac.dcf packetSentToPeer:sum(packetBytes) 177624
scalar NetworkPathRIPShowcase.accessPoint0.wlan[0].mac.dcf packetSentToPeerUnicast:count 506
scalar NetworkPathRIPShowcase.accessPoint0.wlan[0].mac.dcf packetSentToPeerUnicast:sum(packetBytes) 33302
scalar NetworkPathRIPShowcase.accessPoint0.wlan[0].mac.dcf packetSentToPeerMulticast:count 2517
scalar NetworkPathRIPShowcase.accessPoint0.wlan[0].mac.dcf packetSentToPeerMulticast:sum(packetBytes) 144322
scalar NetworkPathRIPShowcase.accessPoint0.wlan[0].mac.dcf packetSentToPeerBroadcast:count 2503
scalar NetworkPathRIPShowcase.accessPoint0.wlan[0].mac.dcf packetSentToPeerBroadcast:sum(packetBytes) 140210
scalar NetworkPathRIPShowcase.accessPoint0.wlan[0].mac.dcf packetSentToPeerWithRetry:count 0
scalar NetworkPathRIPShowcase.accessPoint0.wlan[0].mac.dcf packetSentToPeerWithRetry:sum(packetBytes) 0
scalar NetworkPathRIPShowcase.accessPoint0.wlan[0].mac.dcf packetSentToPeerWithoutRetry:count 3023
scalar NetworkPathRIPShowcase.accessPoint0.wlan[0].mac.dcf packetSentToPeerWithoutRetry:sum(packetBytes) 177624
scalar NetworkPathRIPShowcase.accessPoint0.wlan[0].mac.dcf packetDrop:count 0
scalar NetworkPathRIPShowcase.accessPoint0.wlan[0].mac.dcf packetDrop:sum(packetBytes) 0
scalar NetworkPathRIPShowcase.accessPoint0.wlan[0].mac.dcf packetDropNotAddressedToUs:count 0
scalar NetworkPathRIPShowcase.accessPoint0.wlan[0].mac.dcf packetDropNotAddressedToUs:sum(packetBytes) 0
scalar NetworkPathRIPShowcase.accessPoint0.wlan[0].mac.dcf packetDropQueueOverflow:count 0
scalar NetworkPathRIPShowcase.accessPoint0.wlan[0].mac.dcf packetDropQueueOverflow:sum(packetBytes) 0
scalar NetworkPathRIPShowcase.accessPoint0.wlan[0].mac.dcf packetDropRetryLimitReached:count 0
scalar NetworkPathRIPShowcase.accessPoint0.wlan[0].mac.dcf packetDropRetryLimitReached:sum(packetBytes) 0
scalar NetworkPathRIPShowcase.accessPoint0.wlan[0].mac.dcf linkBroken:count 0
scalar NetworkPathRIPShowcase.accessPoint0.wlan[0].mac packetReceivedFromLower:count 507
scalar NetworkPathRIPShowcase.accessPoint0.wlan[0].mac packetReceivedFromLower:sum(packetBytes) 33730
scalar NetworkPathRIPShowcase.accessPoint0.wlan[0].mac packetSentToLower:count 3023
scalar NetworkPathRIPShowcase.accessPoint0.wlan[0].mac packetSentToLower:sum(packetBytes) 177624
scalar NetworkPathRIPShowcase.accessPoint0.wlan[0].mac packetReceivedFromUpper:count 262
scalar NetworkPathRIPShowcase.accessPoint0.wlan[0].mac packetReceivedFromUpper:sum(packetBytes) 26422
scalar NetworkPathRIPShowcase.accessPoint0.wlan[0].mac packetSentToUpper:count 252
scalar NetworkPathRIPShowcase.accessPoint0.wlan[0].mac packetSentToUpper:sum(packetBytes) 23016
scalar NetworkPathRIPShowcase.accessPoint0.wlan[0].mac packetDrop:count 0
scalar NetworkPathRIPShowcase.accessPoint0.wlan[0].mac packetDrop:sum(packetBytes) 0
scalar NetworkPathRIPShowcase.accessPoint0.wlan[0].mac packetDropIncorrectlyReceived:count 0
scalar NetworkPathRIPShowcase.accessPoint0.wlan[0].mac packetDropIncorrectlyReceived:sum(packetBytes) 0
scalar NetworkPathRIPShowcase.accessPoint0.wlan[0].mac packetDropNotAddressedToUs:count 0
scalar NetworkPathRIPShowcase.accessPoint0.wlan[0].mac packetDropNotAddressedToUs:sum(packetBytes) 0
scalar NetworkPathRIPShowcase.accessPoint0.wlan[0].mac packetDropQueueOverflow:count 0
scalar NetworkPathRIPShowcase.accessPoint0.wlan[0].mac packetDropQueueOverflow:sum(packetBytes) 0
scalar NetworkPathRIPShowcase.accessPoint0.wlan[0].mac packetDropRetryLimitReached:count 0
scalar NetworkPathRIPShowcase.accessPoint0.wlan[0].mac packetDropRetryLimitReached:sum(packetBytes) 0
scalar NetworkPathRIPShowcase.accessPoint0.wlan[0].mac packetDropDuplicateDetected:count 0
scalar NetworkPathRIPShowcase.accessPoint0.wlan[0].mac packetDropDuplicateDetected:sum(packetBytes) 0
scalar NetworkPathRIPShowcase.accessPoint0.wlan[0].mac packetDropOther:count 0
scalar NetworkPathRIPShowcase.accessPoint0.wlan[0].mac packetDropOther:sum(packetBytes) 0
scalar NetworkPathRIPShowcase.accessPoint0.wlan[0].mac linkBroken:count 0
scalar NetworkPathRIPShowcase.accessPoint0.wlan[0].radio radioMode:count 6049
scalar NetworkPathRIPShowcase.accessPoint0.wlan[0].radio receptionState:count 7061
scalar NetworkPathRIPShowcase.accessPoint0.wlan[0].radio transmissionState:count 12092
scalar NetworkPathRIPShowcase.accessPoint0.wlan[0] packetDropInterfaceDown:count 0
scalar NetworkPathRIPShowcase.accessPoint0.wlan[0] packetDropInterfaceDown:sum(packetBytes) 0
scalar NetworkPathRIPShowcase.accessPoint0.wlan[0] packetDropNoCarrier:count 0
scalar NetworkPathRIPShowcase.accessPoint0.wlan[0] packetDropNoCarrier:sum(packetBytes) 0
scalar NetworkPathRIPShowcase.accessPoint0.eth[0].queue queueLength:last 0
scalar NetworkPathRIPShowcase.accessPoint0.eth[0].queue queueLength:max 0
scalar NetworkPathRIPShowcase.accessPoint0.eth[0].queue queueLength:timeavg 0
scalar NetworkPathRIPShowcase.accessPoint0.eth[0].queue queueBitLength:last 0
scalar NetworkPathRIPShowcase.accessPoint0.eth[0].queue queueBitLength:max 0
scalar NetworkPathRIPShowcase.accessPoint0.eth[0].queue queueBitLength:timeavg 0
scalar NetworkPathRIPShowcase.accessPoint0.eth[0].queue outgoingPackets:count 252
scalar NetworkPathRIPShowcase.accessPoint0.eth[0].queue outgoingPacketLengths:sum 204288
scalar NetworkPathRIPShowcase.accessPoint0.eth[0].queue incomingPackets:count 252
scalar NetworkPathRIPShowcase.accessPoint0.eth[0].queue incomingPacketLengths:sum 204288
scalar NetworkPathRIPShowcase.accessPoint0.eth[0].queue droppedPacketsQueueOverflow:count 0
scalar NetworkPathRIPShowcase.accessPoint0.eth[0].queue droppedPacketLengthsQueueOverflow:sum 0
scalar NetworkPathRIPShowcase.accessPoint0.eth[0].mac "simulated time" 250
scalar NetworkPathRIPShowcase.accessPoint0.eth[0].mac full-duplex 1
scalar NetworkPathRIPShowcase.accessPoint0.eth[0].mac "frames/sec sent" 1.008
scalar NetworkPathRIPShowcase.accessPoint0.eth[0].mac "frames/sec rcvd" 1.048
scalar NetworkPathRIPShowcase.accessPoint0.eth[0].mac "bits/sec sent" 818.88
scalar NetworkPathRIPShowcase.accessPoint0.eth[0].mac "bits/sec rcvd" 929.34400000000005
scalar NetworkPathRIPShowcase.accessPoint0.eth[0].mac "rx channel idle (%)" 99.999003584000008
scalar NetworkPathRIPShowcase.accessPoint0.eth[0].mac "rx channel utilization (%)" 0.00099641600000000019
scalar NetworkPathRIPShowcase.accessPoint0.eth[0].mac rxPausePkUnits:count 0
scalar NetworkPathRIPShowcase.accessPoint0.eth[0].mac rxPausePkUnits:sum 0
scalar NetworkPathRIPShowcase.accessPoint0.eth[0].mac txPausePkUnits:count 0
scalar NetworkPathRIPShowcase.accessPoint0.eth[0].mac txPausePkUnits:sum 0
scalar NetworkPathRIPShowcase.accessPoint0.eth[0].mac rxPkOk:count 262
scalar NetworkPathRIPShowcase.accessPoint0.eth[0].mac rxPkOk:sum(packetBytes) 29042
scalar NetworkPathRIPShowcase.accessPoint0.eth[0].mac txPk:count 252
scalar NetworkPathRIPShowcase.accessPoint0.eth[0].mac txPk:sum(packetBytes) 25590
scalar NetworkPathRIPShowcase.accessPoint0.eth[0].mac packetReceivedFromUpper:count 252
scalar NetworkPathRIPShowcase.accessPoint0.eth[0].mac packetReceivedFromUpper:sum(packetBytes) 25536
scalar NetworkPathRIPShowcase.accessPoint0.eth[0].mac passedUpPk:count 262
scalar NetworkPathRIPShowcase.accessPoint0.eth[0].mac passedUpPk:sum(packetBytes) 29042
scalar NetworkPathRIPShowcase.accessPoint0.eth[0].mac packetDropIncorrectlyReceived:count 0
scalar NetworkPathRIPShowcase.accessPoint0.eth[0].mac packetDropIncorrectlyReceived:sum(packetBytes) 0
scalar NetworkPathRIPShowcase.accessPoint0.eth[0].mac packetDropInterfaceDown:count 0
scalar NetworkPathRIPShowcase.accessPoint0.eth[0].mac packetDropInterfaceDown:sum(packetBytes) 0
scalar NetworkPathRIPShowcase.accessPoint0.eth[0].mac packetDropNotAddressedToUs:count 0
scalar NetworkPathRIPShowcase.accessPoint0.eth[0].mac packetDropNotAddressedToUs:sum(packetBytes) 0
scalar NetworkPathRIPShowcase.accessPoint0.eth[0] packetDropInterfaceDown:count 0
scalar NetworkPathRIPShowcase.accessPoint0.eth[0] packetDropInterfaceDown:sum(packetBytes) 0
scalar NetworkPathRIPShowcase.accessPoint0.eth[0] packetDropNoCarrier:count 0
scalar NetworkPathRIPShowcase.accessPoint0.eth[0] packetDropNoCarrier:sum(packetBytes) 0
scalar NetworkPathRIPShowcase.accessPoint1.bridging "processed frames" 0
scalar NetworkPathRIPShowcase.accessPoint1.bridging "discarded frames" 0
scalar NetworkPathRIPShowcase.accessPoint1.bridging "number of received BPDUs from STP module" 0
scalar NetworkPathRIPShowcase.accessPoint1.bridging "number of received frames from network (including BPDUs)" 505
scalar NetworkPathRIPShowcase.accessPoint1.bridging "number of dropped frames (including BPDUs)" 0
scalar NetworkPathRIPShowcase.accessPoint1.bridging "number of delivered BPDUs to the STP module" 0
scalar NetworkPathRIPShowcase.accessPoint1.bridging "number of dispatched BPDU frames to the network" 0
scalar NetworkPathRIPShowcase.accessPoint1.bridging "number of dispatched non-BDPU frames to the network" 0
scalar NetworkPathRIPShowcase.accessPoint1.bridging packetDropped:count 0
scalar NetworkPathRIPShowcase.accessPoint1.bridging packetDropped:sum(packetBytes) 0
scalar NetworkPathRIPShowcase.accessPoint1.ethernet pauseSent:count 0
scalar NetworkPathRIPShowcase.accessPoint1.ethernet pauseSent:sum 0
scalar NetworkPathRIPShowcase.accessPoint1.ethernet decapPk:count 505
scalar NetworkPathRIPShowcase.accessPoint1.ethernet decapPk:sum(packetBytes) 44290
scalar NetworkPathRIPShowcase.accessPoint1.ethernet encapPk:count 505
scalar NetworkPathRIPShowcase.accessPoint1.ethernet encapPk:sum(packetBytes) 44290
scalar NetworkPathRIPShowcase.accessPoint1.wlan[0].mac.dcf.channelAccess.pendingQueue queueLength:last 0
scalar NetworkPathRIPShowcase.accessPoint1.wlan[0].mac.dcf.channelAccess.pendingQueue queueLength:max 1
scalar NetworkPathRIPShowcase.accessPoint1.wlan[0].mac.dcf.channelAccess.pendingQueue queueLength:timeavg 1.0760080000000001e-05
scalar NetworkPathRIPShowcase.accessPoint1.wlan[0].mac.dcf.channelAccess.pendingQueue queueBitLength:last 0
scalar NetworkPathRIPShowcase.accessPoint1.wlan[0].mac.dcf.channelAccess.pendingQueue queueBitLength:max 3264
scalar NetworkPathRIPShowcase.accessPoint1.wlan[0].mac.dcf.channelAccess.pendingQueue queueBitLength:timeavg 0.0076966528000000011
scalar NetworkPathRIPShowcase.accessPoint1.wlan[0].mac.dcf.channelAccess.pendingQueue outgoingPackets:count 2761
scalar NetworkPathRIPShowcase.accessPoint1.wlan[0].mac.dcf.channelAccess.pendingQueue outgoingPacketLengths:sum 1404376
scalar NetworkPathRIPShowcase.accessPoint1.wlan[0].mac.dcf.channelAccess.pendingQueue incomingPackets:count 2761
scalar NetworkPathRIPShowcase.accessPoint1.wlan[0].mac.dcf.channelAccess.pendingQueue incomingPacketLengths:sum 1404376
scalar NetworkPathRIPShowcase.accessPoint1.wlan[0].mac.dcf.channelAccess.pendingQueue droppedPacketsQueueOverflow:count 0
scalar NetworkPathRIPShowcase.accessPoint1.wlan[0].mac.dcf.channelAccess.pendingQueue droppedPacketLengthsQueueOverflow:sum 0
scalar NetworkPathRIPShowcase.accessPoint1.wlan[0].mac.dcf.channelAccess.inProgressFrames queueLength:max 1
scalar NetworkPathRIPShowcase.accessPoint1.wlan[0].mac.dcf.channelAccess.inProgressFrames queueLength:timeavg 0.00058003064992799775
scalar NetworkPathRIPShowcase.accessPoint1.wlan[0].mac.dcf.channelAccess.contention channelAccessGranted:count 2761
scalar NetworkPathRIPShowcase.accessPoint1.wlan[0].mac.dcf.channelAccess.contention stateChanged:count 24118
scalar NetworkPathRIPShowcase.accessPoint1.wlan[0].mac.dcf.channelAccess channelOwnershipChanged:count 5522
scalar NetworkPathRIPShowcase.accessPoint1.wlan[0].mac.dcf.originatorMacDataService packetAggregated:count 0
scalar NetworkPathRIPShowcase.accessPoint1.wlan[0].mac.dcf.originatorMacDataService packetFragmented:count 0
scalar NetworkPathRIPShowcase.accessPoint1.wlan[0].mac.dcf.recipientMacDataService packetDeaggregated:count 0
scalar NetworkPathRIPShowcase.accessPoint1.wlan[0].mac.dcf.recipientMacDataService packetDefragmented:count 252
scalar NetworkPathRIPShowcase.accessPoint1.wlan[0].mac.dcf.recipientMacDataService packetDropDuplicateDetected:count 2
scalar NetworkPathRIPShowcase.accessPoint1.wlan[0].mac.dcf.recipientMacDataService packetDropDuplicateDetected:sum(packetBytes) 240
scalar NetworkPathRIPShowcase.accessPoint1.wlan[0].mac.dcf.recoveryProcedure retryLimitReached:count 0
scalar NetworkPathRIPShowcase.accessPoint1.wlan[0].mac.dcf frameSequenceFinished:count 2761
scalar NetworkPathRIPShowcase.accessPoint1.wlan[0].mac.dcf packetReceivedFromPeer:count 503
scalar NetworkPathRIPShowcase.accessPoint1.wlan[0].mac.dcf packetReceivedFromPeer:sum(packetBytes) 33462
scalar NetworkPathRIPShowcase.accessPoint1.wlan[0].mac.dcf packetReceivedFromPeerUnicast:count 502
scalar NetworkPathRIPShowcase.accessPoint1.wlan[0].mac.dcf packetReceivedFromPeerUnicast:sum(packetBytes) 33422
scalar NetworkPathRIPShowcase.accessPoint1.wlan[0].mac.dcf packetReceivedFromPeerMulticast:count 1
scalar NetworkPathRIPShowcase.accessPoint1.wlan[0].mac.dcf packetReceivedFromPeerMulticast:sum(packetBytes) 40
scalar NetworkPathRIPShowcase.accessPoint1.wlan[0].mac.dcf packetReceivedFromPeerBroadcast:count 1
scalar NetworkPathRIPShowcase.accessPoint1.wlan[0].mac.dcf packetReceivedFromPeerBroadcast:sum(packetBytes) 40
scalar NetworkPathRIPShowcase.accessPoint1.wlan[0].mac.dcf packetReceivedFromPeerWithRetry:count 2
scalar NetworkPathRIPShowcase.accessPoint1.wlan[0].mac.dcf packetReceivedFromPeerWithRetry:sum(packetBytes) 240
scalar NetworkPathRIPShowcase.accessPoint1.wlan[0].mac.dcf packetReceivedFromPeerWithoutRetry:count 501
scalar NetworkPathRIPShowcase.accessPoint1.wlan[0].mac.dcf packetReceivedFromPeerWithoutRetry:sum(packetBytes) 33222
scalar NetworkPathRIPShowcase.accessPoint1.wlan[0].mac.dcf packetSentToPeer:count 3014
scalar NetworkPathRIPShowcase.accessPoint1.wlan[0].mac.dcf packetSentToPeer:sum(packetBytes) 179089
scalar NetworkPathRIPShowcase.accessPoint1.wlan[0].mac.dcf packetSentToPeerUnicast:count 502
scalar NetworkPathRIPShowcase.accessPoint1.wlan[0].mac.dcf packetSentToPeerUnicast:sum(packetBytes) 33111
scalar NetworkPathRIPShowcase.accessPoint1.wlan[0].mac.dcf packetSentToPeerMulticast:count 2512
scalar NetworkPathRIPShowcase.accessPoint1.wlan[0].mac.dcf packetSentToPeerMulticast:sum(packetBytes) 145978
scalar NetworkPathRIPShowcase.accessPoint1.wlan[0].mac.dcf packetSentToPeerBroadcast:count 2503
scalar NetworkPathRIPShowcase.accessPoint1.wlan[0].mac.dcf packetSentToPeerBroadcast:sum(packetBytes) 142746
scalar NetworkPathRIPShowcase.accessPoint1.wlan[0].mac.dcf packetSentToPeerWithRetry:count 0
scalar NetworkPathRIPShowcase.accessPoint1.wlan[0].mac.dcf packetSentToPeerWithRetry:sum(packetBytes) 0
scalar NetworkPathRIPShowcase.accessPoint1.wlan[0].mac.dcf packetSentToPeerWithoutRetry:count 3014
scalar NetworkPathRIPShowcase.accessPoint1.wlan[0].mac.dcf packetSentToPeerWithoutRetry:sum(packetBytes) 179089
scalar NetworkPathRIPShowcase.accessPoint1.wlan[0].mac.dcf packetDrop:count 2
scalar NetworkPathRIPShowcase.accessPoint1.wlan[0].mac.dcf packetDrop:sum(packetBytes) 240
scalar NetworkPathRIPShowcase.accessPoint1.wlan[0].mac.dcf packetDropNotAddressedToUs:count 0
scalar NetworkPathRIPShowcase.accessPoint1.wlan[0].mac.dcf packetDropNotAddressedToUs:sum(packetBytes) 0
scalar NetworkPathRIPShowcase.accessPoint1.wlan[0].mac.dcf packetDropQueueOverflow:count 0
scalar NetworkPathRIPShowcase.accessPoint1.wlan[0].mac.dcf packetDropQueueOverflow:sum(packetBytes) 0
scalar NetworkPathRIPShowcase.accessPoint1.wlan[0].mac.dcf packetDropRetryLimitReached:count 0
scalar NetworkPathRIPShowcase.accessPoint1.wlan[0].mac.dcf packetDropRetryLimitReached:sum(packetBytes) 0
scalar NetworkPathRIPShowcase.accessPoint1.wlan[0].mac.dcf linkBroken:count 0
scalar NetworkPathRIPShowcase.accessPoint1.wlan[0].mac packetReceivedFromLower:count 503
scalar NetworkPathRIPShowcase.accessPoint1.wlan[0].mac packetReceivedFromLower:sum(packetBytes) 33462
scalar NetworkPathRIPShowcase.accessPoint1.wlan[0].mac packetSentToLower:count 3014
scalar NetworkPathRIPShowcase.accessPoint1.wlan[0].mac packetSentToLower:sum(packetBytes) 179089
scalar NetworkPathRIPShowcase.accessPoint1.wlan[0].mac packetReceivedFromUpper:count 257
scalar NetworkPathRIPShowcase.accessPoint1.wlan[0].mac packetReceivedFromUpper:sum(packetBytes) 25682
scalar NetworkPathRIPShowcase.accessPoint1.wlan[0].mac packetSentToUpper:count 248
scalar NetworkPathRIPShowcase.accessPoint1.wlan[0].mac packetSentToUpper:sum(packetBytes) 22648
scalar NetworkPathRIPShowcase.accessPoint1.wlan[0].mac packetDrop:count 2
scalar NetworkPathRIPShowcase.accessPoint1.wlan[0].mac packetDrop:sum(packetBytes) 240
scalar NetworkPathRIPShowcase.accessPoint1.wlan[0].mac packetDropIncorrectlyReceived:count 0
scalar NetworkPathRIPShowcase.accessPoint1.wlan[0].mac packetDropIncorrectlyReceived:sum(packetBytes) 0
scalar NetworkPathRIPShowcase.accessPoint1.wlan[0].mac packetDropNotAddressedToUs:count 0
scalar NetworkPathRIPShowcase.accessPoint1.wlan[0].mac packetDropNotAddressedToUs:sum(packetBytes) 0
scalar NetworkPathRIPShowcase.accessPoint1.wlan[0].mac packetDropQueueOverflow:count 0
scalar NetworkPathRIPShowcase.accessPoint1.wlan[0].mac packetDropQueueOverflow:sum(packetBytes) 0
scalar NetworkPathRIPShowcase.accessPoint1.wlan[0].mac packetDropRetryLimitReached:count 0
scalar NetworkPathRIPShowcase.accessPoint1.wlan[0].mac packetDropRetryLimitReached:sum(packetBytes) 0
scalar NetworkPathRIPShowcase.accessPoint1.wlan[0].mac packetDropDuplicateDetected:count 2
scalar NetworkPathRIPShowcase.accessPoint1.wlan[0].mac packetDropDuplicateDetected:sum(packetBytes) 240
scalar NetworkPathRIPShowcase.accessPoint1.wlan[0].mac packetDropOther:count 0
scalar NetworkPathRIPShowcase.accessPoint1.wlan[0].mac packetDropOther:sum(packetBytes) 0
scalar NetworkPathRIPShowcase.accessPoint1.wlan[0].mac linkBroken:count 0
scalar NetworkPathRIPShowcase.accessPoint1.wlan[0].radio radioMode:count 6031
scalar NetworkPathRIPShowcase.accessPoint1.wlan[0].radio receptionState:count 7035
scalar NetworkPathRIPShowcase.accessPoint1.wlan[0].radio transmissionState:count 12056
scalar NetworkPathRIPShowcase.accessPoint1.wlan[0] packetDropInterfaceDown:count 0
scalar NetworkPathRIPShowcase.accessPoint1.wlan[0] packetDropInterfaceDown:sum(packetBytes) 0
[...]
scalar NetworkPathRIPShowcase.router3.ppp[1].ppp packetDropInterfaceDown:vector(packetBytes):sum 0
scalar NetworkPathRIPShowcase.router3.ppp[1].ppp packetDropInterfaceDown:vector(packetBytes):sumweights 0
scalar NetworkPathRIPShowcase.router3.ppp[1].ppp packetDropInterfaceDown:vector(packetBytes):mean -nan
scalar NetworkPathRIPShowcase.router3.ppp[1].ppp packetDropInterfaceDown:vector(packetBytes):stddev nan
scalar NetworkPathRIPShowcase.router3.ppp[1].ppp packetDropInterfaceDown:vector(packetBytes):min inf
scalar NetworkPathRIPShowcase.router3.ppp[1].ppp packetDropInterfaceDown:vector(packetBytes):max -inf
scalar NetworkPathRIPShowcase.router3.ppp[1].ppp packetDropInterfaceDown:vector(packetBytes):starttime nan
scalar NetworkPathRIPShowcase.router3.ppp[1].ppp packetDropInterfaceDown:vector(packetBytes):endtime nan
scalar NetworkPathRIPShowcase.router3.ppp[1].ppp rcvdPkFromHl:vector(packetBytes):count 17
scalar NetworkPathRIPShowcase.router3.ppp[1].ppp rcvdPkFromHl:vector(packetBytes):sum 3568
scalar NetworkPathRIPShowcase.router3.ppp[1].ppp rcvdPkFromHl:vector(packetBytes):sumweights 17
scalar NetworkPathRIPShowcase.router3.ppp[1].ppp rcvdPkFromHl:vector(packetBytes):mean 209.88235294117646
scalar NetworkPathRIPShowcase.router3.ppp[1].ppp rcvdPkFromHl:vector(packetBytes):stddev 131.78860077456491
scalar NetworkPathRIPShowcase.router3.ppp[1].ppp rcvdPkFromHl:vector(packetBytes):min 52
scalar NetworkPathRIPShowcase.router3.ppp[1].ppp rcvdPkFromHl:vector(packetBytes):max 352
scalar NetworkPathRIPShowcase.router3.ppp[1].ppp rcvdPkFromHl:vector(packetBytes):starttime 1.7013892717660004
scalar NetworkPathRIPShowcase.router3.ppp[1].ppp rcvdPkFromHl:vector(packetBytes):endtime 231.70138927176603
scalar NetworkPathRIPShowcase.router3.ppp[1].ppp passedUpPk:vector(packetBytes):count 9
scalar NetworkPathRIPShowcase.router3.ppp[1].ppp passedUpPk:vector(packetBytes):sum 2908
scalar NetworkPathRIPShowcase.router3.ppp[1].ppp passedUpPk:vector(packetBytes):sumweights 9
scalar NetworkPathRIPShowcase.router3.ppp[1].ppp passedUpPk:vector(packetBytes):mean 323.11111111111109
scalar NetworkPathRIPShowcase.router3.ppp[1].ppp passedUpPk:vector(packetBytes):stddev 109.13803695829932
scalar NetworkPathRIPShowcase.router3.ppp[1].ppp passedUpPk:vector(packetBytes):min 52
scalar NetworkPathRIPShowcase.router3.ppp[1].ppp passedUpPk:vector(packetBytes):max 372
scalar NetworkPathRIPShowcase.router3.ppp[1].ppp passedUpPk:vector(packetBytes):starttime 26.753194822696006
scalar NetworkPathRIPShowcase.router3.ppp[1].ppp passedUpPk:vector(packetBytes):endtime 236.75322042269605
scalar NetworkPathRIPShowcase.router3.ppp[1] packetDropInterfaceDown:vector(packetBytes):count 0
scalar NetworkPathRIPShowcase.router3.ppp[1] packetDropInterfaceDown:vector(packetBytes):sum 0
scalar NetworkPathRIPShowcase.router3.ppp[1] packetDropInterfaceDown:vector(packetBytes):sumweights 0
scalar NetworkPathRIPShowcase.router3.ppp[1] packetDropInterfaceDown:vector(packetBytes):mean -nan
scalar NetworkPathRIPShowcase.router3.ppp[1] packetDropInterfaceDown:vector(packetBytes):stddev nan
scalar NetworkPathRIPShowcase.router3.ppp[1] packetDropInterfaceDown:vector(packetBytes):min inf
scalar NetworkPathRIPShowcase.router3.ppp[1] packetDropInterfaceDown:vector(packetBytes):max -inf
scalar NetworkPathRIPShowcase.router3.ppp[1] packetDropInterfaceDown:vector(packetBytes):starttime nan
scalar NetworkPathRIPShowcase.router3.ppp[1] packetDropInterfaceDown:vector(packetBytes):endtime nan
scalar NetworkPathRIPShowcase.router3.ppp[1] packetDropNoCarrier:vector(packetBytes):count 0
scalar NetworkPathRIPShowcase.router3.ppp[1] packetDropNoCarrier:vector(packetBytes):sum 0
scalar NetworkPathRIPShowcase.router3.ppp[1] packetDropNoCarrier:vector(packetBytes):sumweights 0
scalar NetworkPathRIPShowcase.router3.ppp[1] packetDropNoCarrier:vector(packetBytes):mean -nan
scalar NetworkPathRIPShowcase.router3.ppp[1] packetDropNoCarrier:vector(packetBytes):stddev nan
scalar NetworkPathRIPShowcase.router3.ppp[1] packetDropNoCarrier:vector(packetBytes):min inf
scalar NetworkPathRIPShowcase.router3.ppp[1] packetDropNoCarrier:vector(packetBytes):max -inf
scalar NetworkPathRIPShowcase.router3.ppp[1] packetDropNoCarrier:vector(packetBytes):starttime nan
scalar NetworkPathRIPShowcase.router3.ppp[1] packetDropNoCarrier:vector(packetBytes):endtime nan
scalar NetworkPathRIPShowcase.router3.ipv4.ip packetDropAddressResolutionFailed:vector(packetBytes):count 0
scalar NetworkPathRIPShowcase.router3.ipv4.ip packetDropAddressResolutionFailed:vector(packetBytes):sum 0
scalar NetworkPathRIPShowcase.router3.ipv4.ip packetDropAddressResolutionFailed:vector(packetBytes):sumweights 0
scalar NetworkPathRIPShowcase.router3.ipv4.ip packetDropAddressResolutionFailed:vector(packetBytes):mean -nan
scalar NetworkPathRIPShowcase.router3.ipv4.ip packetDropAddressResolutionFailed:vector(packetBytes):stddev nan
scalar NetworkPathRIPShowcase.router3.ipv4.ip packetDropAddressResolutionFailed:vector(packetBytes):min inf
scalar NetworkPathRIPShowcase.router3.ipv4.ip packetDropAddressResolutionFailed:vector(packetBytes):max -inf
scalar NetworkPathRIPShowcase.router3.ipv4.ip packetDropAddressResolutionFailed:vector(packetBytes):starttime nan
scalar NetworkPathRIPShowcase.router3.ipv4.ip packetDropAddressResolutionFailed:vector(packetBytes):endtime nan
scalar NetworkPathRIPShowcase.router3.ipv4.ip packetDropHopLimitReached:vector(packetBytes):count 0
scalar NetworkPathRIPShowcase.router3.ipv4.ip packetDropHopLimitReached:vector(packetBytes):sum 0
scalar NetworkPathRIPShowcase.router3.ipv4.ip packetDropHopLimitReached:vector(packetBytes):sumweights 0
scalar NetworkPathRIPShowcase.router3.ipv4.ip packetDropHopLimitReached:vector(packetBytes):mean -nan
scalar NetworkPathRIPShowcase.router3.ipv4.ip packetDropHopLimitReached:vector(packetBytes):stddev nan
scalar NetworkPathRIPShowcase.router3.ipv4.ip packetDropHopLimitReached:vector(packetBytes):min inf
scalar NetworkPathRIPShowcase.router3.ipv4.ip packetDropHopLimitReached:vector(packetBytes):max -inf
scalar NetworkPathRIPShowcase.router3.ipv4.ip packetDropHopLimitReached:vector(packetBytes):starttime nan
scalar NetworkPathRIPShowcase.router3.ipv4.ip packetDropHopLimitReached:vector(packetBytes):endtime nan
scalar NetworkPathRIPShowcase.router3.ipv4.ip packetDropForwardingDisabled:vector(packetBytes):count 0
scalar NetworkPathRIPShowcase.router3.ipv4.ip packetDropForwardingDisabled:vector(packetBytes):sum 0
scalar NetworkPathRIPShowcase.router3.ipv4.ip packetDropForwardingDisabled:vector(packetBytes):sumweights 0
scalar NetworkPathRIPShowcase.router3.ipv4.ip packetDropForwardingDisabled:vector(packetBytes):mean -nan
scalar NetworkPathRIPShowcase.router3.ipv4.ip packetDropForwardingDisabled:vector(packetBytes):stddev nan
scalar NetworkPathRIPShowcase.router3.ipv4.ip packetDropForwardingDisabled:vector(packetBytes):min inf
scalar NetworkPathRIPShowcase.router3.ipv4.ip packetDropForwardingDisabled:vector(packetBytes):max -inf
scalar NetworkPathRIPShowcase.router3.ipv4.ip packetDropForwardingDisabled:vector(packetBytes):starttime nan
scalar NetworkPathRIPShowcase.router3.ipv4.ip packetDropForwardingDisabled:vector(packetBytes):endtime nan
scalar NetworkPathRIPShowcase.router3.ipv4.ip packetDropLifetimeExpired:vector(packetBytes):count 0
scalar NetworkPathRIPShowcase.router3.ipv4.ip packetDropLifetimeExpired:vector(packetBytes):sum 0
scalar NetworkPathRIPShowcase.router3.ipv4.ip packetDropLifetimeExpired:vector(packetBytes):sumweights 0
scalar NetworkPathRIPShowcase.router3.ipv4.ip packetDropLifetimeExpired:vector(packetBytes):mean -nan
scalar NetworkPathRIPShowcase.router3.ipv4.ip packetDropLifetimeExpired:vector(packetBytes):stddev nan
scalar NetworkPathRIPShowcase.router3.ipv4.ip packetDropLifetimeExpired:vector(packetBytes):min inf
scalar NetworkPathRIPShowcase.router3.ipv4.ip packetDropLifetimeExpired:vector(packetBytes):max -inf
scalar NetworkPathRIPShowcase.router3.ipv4.ip packetDropLifetimeExpired:vector(packetBytes):starttime nan
scalar NetworkPathRIPShowcase.router3.ipv4.ip packetDropLifetimeExpired:vector(packetBytes):endtime nan
scalar NetworkPathRIPShowcase.router3.ipv4.ip packetDropNoInterfaceFound:vector(packetBytes):count 0
scalar NetworkPathRIPShowcase.router3.ipv4.ip packetDropNoInterfaceFound:vector(packetBytes):sum 0
scalar NetworkPathRIPShowcase.router3.ipv4.ip packetDropNoInterfaceFound:vector(packetBytes):sumweights 0
scalar NetworkPathRIPShowcase.router3.ipv4.ip packetDropNoInterfaceFound:vector(packetBytes):mean -nan
scalar NetworkPathRIPShowcase.router3.ipv4.ip packetDropNoInterfaceFound:vector(packetBytes):stddev nan
scalar NetworkPathRIPShowcase.router3.ipv4.ip packetDropNoInterfaceFound:vector(packetBytes):min inf
scalar NetworkPathRIPShowcase.router3.ipv4.ip packetDropNoInterfaceFound:vector(packetBytes):max -inf
scalar NetworkPathRIPShowcase.router3.ipv4.ip packetDropNoInterfaceFound:vector(packetBytes):starttime nan
scalar NetworkPathRIPShowcase.router3.ipv4.ip packetDropNoInterfaceFound:vector(packetBytes):endtime nan
scalar NetworkPathRIPShowcase.router3.ipv4.ip packetDropNoRouteFound:vector(packetBytes):count 0
scalar NetworkPathRIPShowcase.router3.ipv4.ip packetDropNoRouteFound:vector(packetBytes):sum 0
scalar NetworkPathRIPShowcase.router3.ipv4.ip packetDropNoRouteFound:vector(packetBytes):sumweights 0
scalar NetworkPathRIPShowcase.router3.ipv4.ip packetDropNoRouteFound:vector(packetBytes):mean -nan
scalar NetworkPathRIPShowcase.router3.ipv4.ip packetDropNoRouteFound:vector(packetBytes):stddev nan
scalar NetworkPathRIPShowcase.router3.ipv4.ip packetDropNoRouteFound:vector(packetBytes):min inf
scalar NetworkPathRIPShowcase.router3.ipv4.ip packetDropNoRouteFound:vector(packetBytes):max -inf
scalar NetworkPathRIPShowcase.router3.ipv4.ip packetDropNoRouteFound:vector(packetBytes):starttime nan
scalar NetworkPathRIPShowcase.router3.ipv4.ip packetDropNoRouteFound:vector(packetBytes):endtime nan
scalar NetworkPathRIPShowcase.router3.ipv4.ip packetDropUndefined:vector(packetBytes):count 0
scalar NetworkPathRIPShowcase.router3.ipv4.ip packetDropUndefined:vector(packetBytes):sum 0
scalar NetworkPathRIPShowcase.router3.ipv4.ip packetDropUndefined:vector(packetBytes):sumweights 0
scalar NetworkPathRIPShowcase.router3.ipv4.ip packetDropUndefined:vector(packetBytes):mean -nan
scalar NetworkPathRIPShowcase.router3.ipv4.ip packetDropUndefined:vector(packetBytes):stddev nan
scalar NetworkPathRIPShowcase.router3.ipv4.ip packetDropUndefined:vector(packetBytes):min inf
scalar NetworkPathRIPShowcase.router3.ipv4.ip packetDropUndefined:vector(packetBytes):max -inf
scalar NetworkPathRIPShowcase.router3.ipv4.ip packetDropUndefined:vector(packetBytes):starttime nan
scalar NetworkPathRIPShowcase.router3.ipv4.ip packetDropUndefined:vector(packetBytes):endtime nan
scalar NetworkPathRIPShowcase.router3.ipv4.arp arpRequestSent:vector(packetBytes):count 0
scalar NetworkPathRIPShowcase.router3.ipv4.arp arpRequestSent:vector(packetBytes):sum 0
scalar NetworkPathRIPShowcase.router3.ipv4.arp arpRequestSent:vector(packetBytes):sumweights 0
scalar NetworkPathRIPShowcase.router3.ipv4.arp arpRequestSent:vector(packetBytes):mean -nan
scalar NetworkPathRIPShowcase.router3.ipv4.arp arpRequestSent:vector(packetBytes):stddev nan
scalar NetworkPathRIPShowcase.router3.ipv4.arp arpRequestSent:vector(packetBytes):min inf
scalar NetworkPathRIPShowcase.router3.ipv4.arp arpRequestSent:vector(packetBytes):max -inf
scalar NetworkPathRIPShowcase.router3.ipv4.arp arpRequestSent:vector(packetBytes):starttime nan
scalar NetworkPathRIPShowcase.router3.ipv4.arp arpRequestSent:vector(packetBytes):endtime nan
scalar NetworkPathRIPShowcase.router3.ipv4.arp arpReplySent:vector(packetBytes):count 0
scalar NetworkPathRIPShowcase.router3.ipv4.arp arpReplySent:vector(packetBytes):sum 0
scalar NetworkPathRIPShowcase.router3.ipv4.arp arpReplySent:vector(packetBytes):sumweights 0
scalar NetworkPathRIPShowcase.router3.ipv4.arp arpReplySent:vector(packetBytes):mean -nan
scalar NetworkPathRIPShowcase.router3.ipv4.arp arpReplySent:vector(packetBytes):stddev nan
scalar NetworkPathRIPShowcase.router3.ipv4.arp arpReplySent:vector(packetBytes):min inf
scalar NetworkPathRIPShowcase.router3.ipv4.arp arpReplySent:vector(packetBytes):max -inf
scalar NetworkPathRIPShowcase.router3.ipv4.arp arpReplySent:vector(packetBytes):starttime nan
scalar NetworkPathRIPShowcase.router3.ipv4.arp arpReplySent:vector(packetBytes):endtime nan
scalar NetworkPathRIPShowcase.router3.udp packetSent:vector(packetBytes):count 30
scalar NetworkPathRIPShowcase.router3.udp packetSent:vector(packetBytes):sum 6100
scalar NetworkPathRIPShowcase.router3.udp packetSent:vector(packetBytes):sumweights 30
scalar NetworkPathRIPShowcase.router3.udp packetSent:vector(packetBytes):mean 203.33333333333334
scalar NetworkPathRIPShowcase.router3.udp packetSent:vector(packetBytes):stddev 129.26138536750423
scalar NetworkPathRIPShowcase.router3.udp packetSent:vector(packetBytes):min 32
scalar NetworkPathRIPShowcase.router3.udp packetSent:vector(packetBytes):max 332
scalar NetworkPathRIPShowcase.router3.udp packetSent:vector(packetBytes):starttime 1.7013892717660004
scalar NetworkPathRIPShowcase.router3.udp packetSent:vector(packetBytes):endtime 231.70138927176603
scalar NetworkPathRIPShowcase.router3.udp packetReceived:vector(packetBytes):count 23
scalar NetworkPathRIPShowcase.router3.udp packetReceived:vector(packetBytes):sum 6176
scalar NetworkPathRIPShowcase.router3.udp packetReceived:vector(packetBytes):sumweights 23
scalar NetworkPathRIPShowcase.router3.udp packetReceived:vector(packetBytes):mean 268.52173913043481
scalar NetworkPathRIPShowcase.router3.udp packetReceived:vector(packetBytes):stddev 156.51339459530942
scalar NetworkPathRIPShowcase.router3.udp packetReceived:vector(packetBytes):min 32
scalar NetworkPathRIPShowcase.router3.udp packetReceived:vector(packetBytes):max 412
scalar NetworkPathRIPShowcase.router3.udp packetReceived:vector(packetBytes):starttime 13.127621069316003
scalar NetworkPathRIPShowcase.router3.udp packetReceived:vector(packetBytes):endtime 236.75322042269605
scalar NetworkPathRIPShowcase.router3.udp passedUpPk:vector(count):count 24
scalar NetworkPathRIPShowcase.router3.udp passedUpPk:vector(count):sum 276
scalar NetworkPathRIPShowcase.router3.udp passedUpPk:vector(count):sumweights 24
scalar NetworkPathRIPShowcase.router3.udp passedUpPk:vector(count):mean 11.5
scalar NetworkPathRIPShowcase.router3.udp passedUpPk:vector(count):stddev 7.0710678118654755
scalar NetworkPathRIPShowcase.router3.udp passedUpPk:vector(count):min 0
scalar NetworkPathRIPShowcase.router3.udp passedUpPk:vector(count):max 23
scalar NetworkPathRIPShowcase.router3.udp passedUpPk:vector(count):starttime 0
scalar NetworkPathRIPShowcase.router3.udp passedUpPk:vector(count):endtime 236.75322042269605
scalar NetworkPathRIPShowcase.router3.udp droppedPkWrongPort:vector(count):count 1
scalar NetworkPathRIPShowcase.router3.udp droppedPkWrongPort:vector(count):sum 0
scalar NetworkPathRIPShowcase.router3.udp droppedPkWrongPort:vector(count):sumweights 1
scalar NetworkPathRIPShowcase.router3.udp droppedPkWrongPort:vector(count):mean 0
scalar NetworkPathRIPShowcase.router3.udp droppedPkWrongPort:vector(count):stddev nan
scalar NetworkPathRIPShowcase.router3.udp droppedPkWrongPort:vector(count):min 0
scalar NetworkPathRIPShowcase.router3.udp droppedPkWrongPort:vector(count):max 0
scalar NetworkPathRIPShowcase.router3.udp droppedPkWrongPort:vector(count):starttime 0
scalar NetworkPathRIPShowcase.router3.udp droppedPkWrongPort:vector(count):endtime 0
scalar NetworkPathRIPShowcase.router3.udp droppedPkBadChecksum:vector(count):count 1
scalar NetworkPathRIPShowcase.router3.udp droppedPkBadChecksum:vector(count):sum 0
scalar NetworkPathRIPShowcase.router3.udp droppedPkBadChecksum:vector(count):sumweights 1
scalar NetworkPathRIPShowcase.router3.udp droppedPkBadChecksum:vector(count):mean 0
scalar NetworkPathRIPShowcase.router3.udp droppedPkBadChecksum:vector(count):stddev nan
scalar NetworkPathRIPShowcase.router3.udp droppedPkBadChecksum:vector(count):min 0
scalar NetworkPathRIPShowcase.router3.udp droppedPkBadChecksum:vector(count):max 0
scalar NetworkPathRIPShowcase.router3.udp droppedPkBadChecksum:vector(count):starttime 0
scalar NetworkPathRIPShowcase.router3.udp droppedPkBadChecksum:vector(count):endtime 0
scalar NetworkPathRIPShowcase.router3.rip sentRequest:vector(constant1):count 5
scalar NetworkPathRIPShowcase.router3.rip sentRequest:vector(constant1):sum 5
scalar NetworkPathRIPShowcase.router3.rip sentRequest:vector(constant1):sumweights 5
scalar NetworkPathRIPShowcase.router3.rip sentRequest:vector(constant1):mean 1
scalar NetworkPathRIPShowcase.router3.rip sentRequest:vector(constant1):stddev 0
scalar NetworkPathRIPShowcase.router3.rip sentRequest:vector(constant1):min 1
scalar NetworkPathRIPShowcase.router3.rip sentRequest:vector(constant1):max 1
scalar NetworkPathRIPShowcase.router3.rip sentRequest:vector(constant1):starttime 0
scalar NetworkPathRIPShowcase.router3.rip sentRequest:vector(constant1):endtime 21.701389271766004
scalar NetworkPathRIPShowcase.router3.rip sentUpdate:vector(constant1):count 27
scalar NetworkPathRIPShowcase.router3.rip sentUpdate:vector(constant1):sum 27
scalar NetworkPathRIPShowcase.router3.rip sentUpdate:vector(constant1):sumweights 27
scalar NetworkPathRIPShowcase.router3.rip sentUpdate:vector(constant1):mean 1
scalar NetworkPathRIPShowcase.router3.rip sentUpdate:vector(constant1):stddev 0
scalar NetworkPathRIPShowcase.router3.rip sentUpdate:vector(constant1):min 1
scalar NetworkPathRIPShowcase.router3.rip sentUpdate:vector(constant1):max 1
scalar NetworkPathRIPShowcase.router3.rip sentUpdate:vector(constant1):starttime 0
scalar NetworkPathRIPShowcase.router3.rip sentUpdate:vector(constant1):endtime 231.70138927176603
scalar NetworkPathRIPShowcase.router3.rip rcvdResponse:vector(constant1):count 22
scalar NetworkPathRIPShowcase.router3.rip rcvdResponse:vector(constant1):sum 22
scalar NetworkPathRIPShowcase.router3.rip rcvdResponse:vector(constant1):sumweights 22
scalar NetworkPathRIPShowcase.router3.rip rcvdResponse:vector(constant1):mean 1
scalar NetworkPathRIPShowcase.router3.rip rcvdResponse:vector(constant1):stddev 0
scalar NetworkPathRIPShowcase.router3.rip rcvdResponse:vector(constant1):min 1
scalar NetworkPathRIPShowcase.router3.rip rcvdResponse:vector(constant1):max 1
scalar NetworkPathRIPShowcase.router3.rip rcvdResponse:vector(constant1):starttime 0
scalar NetworkPathRIPShowcase.router3.rip rcvdResponse:vector(constant1):endtime 236.75322042269605
scalar NetworkPathRIPShowcase.router3.rip badResponse:vector(constant1):count 1
scalar NetworkPathRIPShowcase.router3.rip badResponse:vector(constant1):sum 1
scalar NetworkPathRIPShowcase.router3.rip badResponse:vector(constant1):sumweights 1
scalar NetworkPathRIPShowcase.router3.rip badResponse:vector(constant1):mean 1
scalar NetworkPathRIPShowcase.router3.rip badResponse:vector(constant1):stddev nan
scalar NetworkPathRIPShowcase.router3.rip badResponse:vector(constant1):min 1
scalar NetworkPathRIPShowcase.router3.rip badResponse:vector(constant1):max 1
scalar NetworkPathRIPShowcase.router3.rip badResponse:vector(constant1):starttime 0
scalar NetworkPathRIPShowcase.router3.rip badResponse:vector(constant1):endtime 0
scalar NetworkPathRIPShowcase.router3.rip numRoutes:vector:count 23
scalar NetworkPathRIPShowcase.router3.rip numRoutes:vector:sum 164
scalar NetworkPathRIPShowcase.router3.rip numRoutes:vector:sumweights 23
scalar NetworkPathRIPShowcase.router3.rip numRoutes:vector:mean 7.1304347826086953
scalar NetworkPathRIPShowcase.router3.rip numRoutes:vector:stddev 4.6053757898794654
scalar NetworkPathRIPShowcase.router3.rip numRoutes:vector:min 1
scalar NetworkPathRIPShowcase.router3.rip numRoutes:vector:max 16
scalar NetworkPathRIPShowcase.router3.rip numRoutes:vector:starttime 1.7013892717660004
scalar NetworkPathRIPShowcase.router3.rip numRoutes:vector:endtime 56.75322042269601

