version 3
run Delay-01us-0-20251118-11:49:19-110971
attr configname Delay-01us
attr datetime 20251118-11:49:19
attr datetimef 20251118-114919
attr experiment Delay-01us
attr inifile omnetpp.ini
attr iterationvars ""
attr iterationvarsd ""
attr iterationvarsf ""
attr measurement ""
attr network ClientServer
attr processid 110971
attr repetition 0
attr replication #0
attr resultdir results
attr runnumber 0
attr seedset 0
config **.param-recording false
config image-path /home/zoli/Projects/OMNET/inet/images
config output-scalar-file results/omnetpp.ini-Delay-01us-#0.sca
config output-scalar-precision 17
config output-vector-file results/omnetpp.ini-Delay-01us-#0.vec
config output-vector-precision 17
config record-eventlog false
config sim-time-limit 100s
config **.channel.delay 0.1us
config network ClientServer
config sim-time-limit 100s
config **.numApps 1
config **.client*.app[*].typename TcpSessionApp
config **.client*.app[0].active true
config **.client*.app[0].localPort -1
config **.client*.app[0].connectAddress "\"server\""
config **.client*.app[0].connectPort 1000
config **.client*.app[0].tOpen 0.1s
config **.client*.app[0].tSend 1s
config **.client*.app[0].sendBytes 1GB
config **.client*.app[0].sendScript "\"\""
config **.server*.app[*].typename TcpEchoApp
config **.server*.app[0].localPort 1000
config **.server*.app[0].echoFactor 0
config **.ppp[*].queue.typename DropTailQueue
config **.ppp[*].queue.packetCapacity 10
config *.configurator.config "xml(\"<config><interface hosts='*' address='192.168.1.x' netmask='255.255.255.0'/></config>\")"

scalar ClientServer.client1.lo[0].lo rcvdPkFromHl:count 0
scalar ClientServer.client1.lo[0].lo rcvdPkFromHl:sum(packetBytes) 0
scalar ClientServer.client1.lo[0].lo passedUpPk:count 0
scalar ClientServer.client1.lo[0].lo passedUpPk:sum(packetBytes) 0
scalar ClientServer.client1.lo[0] packetDropInterfaceDown:count 0
scalar ClientServer.client1.lo[0] packetDropInterfaceDown:sum(packetBytes) 0
scalar ClientServer.client1.lo[0] packetDropNoCarrier:count 0
scalar ClientServer.client1.lo[0] packetDropNoCarrier:sum(packetBytes) 0
scalar ClientServer.client1.ppp[0].queue queueLength:last 9
scalar ClientServer.client1.ppp[0].queue queueLength:max 10
scalar ClientServer.client1.ppp[0].queue queueLength:timeavg 7.6649044722847357
scalar ClientServer.client1.ppp[0].queue queueBitLength:last 41472
scalar ClientServer.client1.ppp[0].queue queueBitLength:max 46080
scalar ClientServer.client1.ppp[0].queue queueBitLength:timeavg 35319.879808437938
scalar ClientServer.client1.ppp[0].queue outgoingPackets:count 208959
scalar ClientServer.client1.ppp[0].queue outgoingPacketLengths:sum 962874528
scalar ClientServer.client1.ppp[0].queue incomingPackets:count 211756
scalar ClientServer.client1.ppp[0].queue incomingPacketLengths:sum 975763104
scalar ClientServer.client1.ppp[0].queue droppedPacketsQueueOverflow:count 2788
scalar ClientServer.client1.ppp[0].queue droppedPacketLengthsQueueOverflow:sum 12847104
scalar ClientServer.client1.ppp[0].ppp transmissionState:timeavg 0.97457419202879025
scalar ClientServer.client1.ppp[0].ppp rxPkOk:count 208957
scalar ClientServer.client1.ppp[0].ppp rxPkOk:sum(packetBytes) 9820983
scalar ClientServer.client1.ppp[0].ppp txPk:count 208959
scalar ClientServer.client1.ppp[0].ppp txPk:sum(packetBytes) 121822029
scalar ClientServer.client1.ppp[0].ppp rcvdPkFromHl:count 208959
scalar ClientServer.client1.ppp[0].ppp rcvdPkFromHl:sum(packetBytes) 120359316
scalar ClientServer.client1.ppp[0].ppp passedUpPk:count 208957
scalar ClientServer.client1.ppp[0].ppp passedUpPk:sum(packetBytes) 8358284
scalar ClientServer.client1.ppp[0].ppp packetDropIncorrectlyReceived:count 0
scalar ClientServer.client1.ppp[0].ppp packetDropIncorrectlyReceived:sum(packetBytes) 0
scalar ClientServer.client1.ppp[0].ppp packetDropInterfaceDown:count 0
scalar ClientServer.client1.ppp[0].ppp packetDropInterfaceDown:sum(packetBytes) 0
scalar ClientServer.client1.ppp[0] packetDropInterfaceDown:count 0
scalar ClientServer.client1.ppp[0] packetDropInterfaceDown:sum(packetBytes) 0
scalar ClientServer.client1.ppp[0] packetDropNoCarrier:count 0
scalar ClientServer.client1.ppp[0] packetDropNoCarrier:sum(packetBytes) 0
scalar ClientServer.client1.ipv4.ip packetDropAddressResolutionFailed:count 0
scalar ClientServer.client1.ipv4.ip packetDropAddressResolutionFailed:sum(packetBytes) 0
scalar ClientServer.client1.ipv4.ip packetDropHopLimitReached:count 0
scalar ClientServer.client1.ipv4.ip packetDropHopLimitReached:sum(packetBytes) 0
scalar ClientServer.client1.ipv4.ip packetDropForwardingDisabled:count 0
scalar ClientServer.client1.ipv4.ip packetDropForwardingDisabled:sum(packetBytes) 0
scalar ClientServer.client1.ipv4.ip packetDropLifetimeExpired:count 0
scalar ClientServer.client1.ipv4.ip packetDropLifetimeExpired:sum(packetBytes) 0
scalar ClientServer.client1.ipv4.ip packetDropNoInterfaceFound:count 0
scalar ClientServer.client1.ipv4.ip packetDropNoInterfaceFound:sum(packetBytes) 0
scalar ClientServer.client1.ipv4.ip packetDropNoRouteFound:count 0
scalar ClientServer.client1.ipv4.ip packetDropNoRouteFound:sum(packetBytes) 0
scalar ClientServer.client1.ipv4.ip packetDropUndefined:count 0
scalar ClientServer.client1.ipv4.ip packetDropUndefined:sum(packetBytes) 0
scalar ClientServer.client1.ipv4.arp arpResolutionFailed:count 0
scalar ClientServer.client1.ipv4.arp arpResolutionCompleted:count 0
scalar ClientServer.client1.ipv4.arp arpResolutionInitiated:count 0
scalar ClientServer.client1.ipv4.arp arpReplySent:count 0
scalar ClientServer.client1.ipv4.arp arpReplySent:sum(packetBytes) 0
scalar ClientServer.client1.ipv4.arp arpRequestSent:count 0
scalar ClientServer.client1.ipv4.arp arpRequestSent:sum(packetBytes) 0
scalar ClientServer.client1.udp packetReceived:count 0
scalar ClientServer.client1.udp packetReceived:sum(packetBytes) 0
scalar ClientServer.client1.udp packetSent:count 0
scalar ClientServer.client1.udp packetSent:sum(packetBytes) 0
scalar ClientServer.client1.udp passedUpPk:count 0
scalar ClientServer.client1.udp droppedPkWrongPort:count 0
scalar ClientServer.client1.udp droppedPkBadChecksum:count 0
scalar ClientServer.client1.app[0] bytesRcvd 0
scalar ClientServer.client1.app[0] bytesSent 1000000000
scalar ClientServer.client1.app[0] packetReceived:count 0
scalar ClientServer.client1.app[0] packetReceived:sum(packetBytes) 0
scalar ClientServer.client1.app[0] packetSent:count 1
scalar ClientServer.client1.app[0] packetSent:sum(packetBytes) 1000000000
scalar ClientServer.server.lo[0].lo rcvdPkFromHl:count 0
scalar ClientServer.server.lo[0].lo rcvdPkFromHl:sum(packetBytes) 0
scalar ClientServer.server.lo[0].lo passedUpPk:count 0
scalar ClientServer.server.lo[0].lo passedUpPk:sum(packetBytes) 0
scalar ClientServer.server.lo[0] packetDropInterfaceDown:count 0
scalar ClientServer.server.lo[0] packetDropInterfaceDown:sum(packetBytes) 0
scalar ClientServer.server.lo[0] packetDropNoCarrier:count 0
scalar ClientServer.server.lo[0] packetDropNoCarrier:sum(packetBytes) 0
scalar ClientServer.server.ppp[0].queue queueLength:last 0
scalar ClientServer.server.ppp[0].queue queueLength:max 0
scalar ClientServer.server.ppp[0].queue queueLength:timeavg 0
scalar ClientServer.server.ppp[0].queue queueBitLength:last 0
scalar ClientServer.server.ppp[0].queue queueBitLength:max 0
scalar ClientServer.server.ppp[0].queue queueBitLength:timeavg 0
scalar ClientServer.server.ppp[0].queue outgoingPackets:count 208957
scalar ClientServer.server.ppp[0].queue outgoingPacketLengths:sum 66866272
scalar ClientServer.server.ppp[0].queue incomingPackets:count 208957
scalar ClientServer.server.ppp[0].queue incomingPacketLengths:sum 66866272
scalar ClientServer.server.ppp[0].queue droppedPacketsQueueOverflow:count 0
scalar ClientServer.server.ppp[0].queue droppedPacketLengthsQueueOverflow:sum 0
scalar ClientServer.server.ppp[0].ppp transmissionState:timeavg 0.078567863999835272
scalar ClientServer.server.ppp[0].ppp rxPkOk:count 208958
scalar ClientServer.server.ppp[0].ppp rxPkOk:sum(packetBytes) 121821446
scalar ClientServer.server.ppp[0].ppp txPk:count 208957
scalar ClientServer.server.ppp[0].ppp txPk:sum(packetBytes) 9820983
scalar ClientServer.server.ppp[0].ppp rcvdPkFromHl:count 208957
scalar ClientServer.server.ppp[0].ppp rcvdPkFromHl:sum(packetBytes) 8358284
scalar ClientServer.server.ppp[0].ppp passedUpPk:count 208958
scalar ClientServer.server.ppp[0].ppp passedUpPk:sum(packetBytes) 120358740
scalar ClientServer.server.ppp[0].ppp packetDropIncorrectlyReceived:count 0
scalar ClientServer.server.ppp[0].ppp packetDropIncorrectlyReceived:sum(packetBytes) 0
scalar ClientServer.server.ppp[0].ppp packetDropInterfaceDown:count 0
scalar ClientServer.server.ppp[0].ppp packetDropInterfaceDown:sum(packetBytes) 0
scalar ClientServer.server.ppp[0] packetDropInterfaceDown:count 0
scalar ClientServer.server.ppp[0] packetDropInterfaceDown:sum(packetBytes) 0
scalar ClientServer.server.ppp[0] packetDropNoCarrier:count 0
scalar ClientServer.server.ppp[0] packetDropNoCarrier:sum(packetBytes) 0
scalar ClientServer.server.ipv4.ip packetDropAddressResolutionFailed:count 0
scalar ClientServer.server.ipv4.ip packetDropAddressResolutionFailed:sum(packetBytes) 0
scalar ClientServer.server.ipv4.ip packetDropHopLimitReached:count 0
scalar ClientServer.server.ipv4.ip packetDropHopLimitReached:sum(packetBytes) 0
scalar ClientServer.server.ipv4.ip packetDropForwardingDisabled:count 0
scalar ClientServer.server.ipv4.ip packetDropForwardingDisabled:sum(packetBytes) 0
scalar ClientServer.server.ipv4.ip packetDropLifetimeExpired:count 0
scalar ClientServer.server.ipv4.ip packetDropLifetimeExpired:sum(packetBytes) 0
scalar ClientServer.server.ipv4.ip packetDropNoInterfaceFound:count 0
scalar ClientServer.server.ipv4.ip packetDropNoInterfaceFound:sum(packetBytes) 0
scalar ClientServer.server.ipv4.ip packetDropNoRouteFound:count 0
scalar ClientServer.server.ipv4.ip packetDropNoRouteFound:sum(packetBytes) 0
scalar ClientServer.server.ipv4.ip packetDropUndefined:count 0
scalar ClientServer.server.ipv4.ip packetDropUndefined:sum(packetBytes) 0
scalar ClientServer.server.ipv4.arp arpResolutionFailed:count 0
scalar ClientServer.server.ipv4.arp arpResolutionCompleted:count 0
scalar ClientServer.server.ipv4.arp arpResolutionInitiated:count 0
scalar ClientServer.server.ipv4.arp arpReplySent:count 0
scalar ClientServer.server.ipv4.arp arpReplySent:sum(packetBytes) 0
scalar ClientServer.server.ipv4.arp arpRequestSent:count 0
scalar ClientServer.server.ipv4.arp arpRequestSent:sum(packetBytes) 0
scalar ClientServer.server.udp packetReceived:count 0
scalar ClientServer.server.udp packetReceived:sum(packetBytes) 0
scalar ClientServer.server.udp packetSent:count 0
scalar ClientServer.server.udp packetSent:sum(packetBytes) 0
scalar ClientServer.server.udp passedUpPk:count 0
scalar ClientServer.server.udp droppedPkWrongPort:count 0
scalar ClientServer.server.udp droppedPkBadChecksum:count 0
scalar ClientServer.server.app[0].thread_5 packetReceived:count 178309
scalar ClientServer.server.app[0].thread_5 packetReceived:sum(packetBytes) 111999880
scalar ClientServer.server.app[0].thread_5 packetSent:count 0
scalar ClientServer.server.app[0].thread_5 packetSent:sum(packetBytes) 0
scalar ClientServer.server.app[0] bytesRcvd 111999880
scalar ClientServer.server.app[0] bytesSent 0
scalar ClientServer.server.app[0] packetReceived:count 178309
scalar ClientServer.server.app[0] packetReceived:sum(packetBytes) 111999880
scalar ClientServer.server.app[0] packetSent:count 0
scalar ClientServer.server.app[0] packetSent:sum(packetBytes) 0
scalar ClientServer.client1.ppp[0].queue queueingTime:histogram:count 208959
scalar ClientServer.client1.ppp[0].queue queueingTime:histogram:sumweights 208959
scalar ClientServer.client1.ppp[0].queue queueingTime:histogram:mean 0.0036680635923775026
scalar ClientServer.client1.ppp[0].queue queueingTime:histogram:stddev 0.00092045972104898884
scalar ClientServer.client1.ppp[0].queue queueingTime:histogram:min 0
scalar ClientServer.client1.ppp[0].queue queueingTime:histogram:max 0.0046261999999999996
scalar ClientServer.client1.ppp[0].queue queueingTime:histogram:numbins 58
scalar ClientServer.client1.ppp[0].queue queueingTime:histogram:rangemin 0
scalar ClientServer.client1.ppp[0].queue queueingTime:histogram:rangemax 0.0058000000000000005
scalar ClientServer.client1.ppp[0].queue queueingTime:histogram:underflows 0
scalar ClientServer.client1.ppp[0].queue queueingTime:histogram:overflows 0
scalar ClientServer.client1.ppp[0].queue outgoingPacketLengths:histogram:count 208959
scalar ClientServer.client1.ppp[0].queue outgoingPacketLengths:histogram:sumweights 208959
scalar ClientServer.client1.ppp[0].queue outgoingPacketLengths:histogram:mean 4607.9591115960548
scalar ClientServer.client1.ppp[0].queue outgoingPacketLengths:histogram:stddev 13.216537972263094
scalar ClientServer.client1.ppp[0].queue outgoingPacketLengths:histogram:min 320
scalar ClientServer.client1.ppp[0].queue outgoingPacketLengths:histogram:max 4608
scalar ClientServer.client1.ppp[0].queue outgoingPacketLengths:histogram:numbins 57
scalar ClientServer.client1.ppp[0].queue outgoingPacketLengths:histogram:rangemin 0
scalar ClientServer.client1.ppp[0].queue outgoingPacketLengths:histogram:rangemax 5700
scalar ClientServer.client1.ppp[0].queue outgoingPacketLengths:histogram:underflows 0
scalar ClientServer.client1.ppp[0].queue outgoingPacketLengths:histogram:overflows 0
scalar ClientServer.client1.ppp[0].queue flowQueueingTime:histogram:count 0
scalar ClientServer.client1.ppp[0].queue flowQueueingTime:histogram:sumweights 0
scalar ClientServer.client1.ppp[0].queue flowQueueingTime:histogram:mean -nan
scalar ClientServer.client1.ppp[0].queue flowQueueingTime:histogram:stddev nan
scalar ClientServer.client1.ppp[0].queue flowQueueingTime:histogram:min nan
scalar ClientServer.client1.ppp[0].queue flowQueueingTime:histogram:max nan
scalar ClientServer.client1.ppp[0].queue flowQueueingTime:histogram:numbins 1
scalar ClientServer.client1.ppp[0].queue flowQueueingTime:histogram:rangemin 0
scalar ClientServer.client1.ppp[0].queue flowQueueingTime:histogram:rangemax 1
scalar ClientServer.client1.ppp[0].queue flowQueueingTime:histogram:underflows 0
scalar ClientServer.client1.ppp[0].queue flowQueueingTime:histogram:overflows 0
scalar ClientServer.client1.ppp[0].queue incomingPacketLengths:histogram:count 211756
scalar ClientServer.client1.ppp[0].queue incomingPacketLengths:histogram:sumweights 211756
scalar ClientServer.client1.ppp[0].queue incomingPacketLengths:histogram:mean 4607.9596516745687
scalar ClientServer.client1.ppp[0].queue incomingPacketLengths:histogram:stddev 13.128962264088482
scalar ClientServer.client1.ppp[0].queue incomingPacketLengths:histogram:min 320
scalar ClientServer.client1.ppp[0].queue incomingPacketLengths:histogram:max 4608
scalar ClientServer.client1.ppp[0].queue incomingPacketLengths:histogram:numbins 57
scalar ClientServer.client1.ppp[0].queue incomingPacketLengths:histogram:rangemin 0
scalar ClientServer.client1.ppp[0].queue incomingPacketLengths:histogram:rangemax 5700
scalar ClientServer.client1.ppp[0].queue incomingPacketLengths:histogram:underflows 0
scalar ClientServer.client1.ppp[0].queue incomingPacketLengths:histogram:overflows 0
scalar ClientServer.client1.app[0] endToEndDelay:histogram:count 0
scalar ClientServer.client1.app[0] endToEndDelay:histogram:sumweights 0
scalar ClientServer.client1.app[0] endToEndDelay:histogram:mean -nan
scalar ClientServer.client1.app[0] endToEndDelay:histogram:stddev nan
scalar ClientServer.client1.app[0] endToEndDelay:histogram:min nan
scalar ClientServer.client1.app[0] endToEndDelay:histogram:max nan
scalar ClientServer.client1.app[0] endToEndDelay:histogram:numbins 1
scalar ClientServer.client1.app[0] endToEndDelay:histogram:rangemin 0
scalar ClientServer.client1.app[0] endToEndDelay:histogram:rangemax 1
scalar ClientServer.client1.app[0] endToEndDelay:histogram:underflows 0
scalar ClientServer.client1.app[0] endToEndDelay:histogram:overflows 0
scalar ClientServer.client1.app[0] endToEndDelay:weightedHistogram:count 0
scalar ClientServer.client1.app[0] endToEndDelay:weightedHistogram:sumweights 0
scalar ClientServer.client1.app[0] endToEndDelay:weightedHistogram:mean -nan
scalar ClientServer.client1.app[0] endToEndDelay:weightedHistogram:stddev nan
scalar ClientServer.client1.app[0] endToEndDelay:weightedHistogram:min nan
scalar ClientServer.client1.app[0] endToEndDelay:weightedHistogram:max nan
scalar ClientServer.client1.app[0] endToEndDelay:weightedHistogram:numbins 1
scalar ClientServer.client1.app[0] endToEndDelay:weightedHistogram:rangemin 0
scalar ClientServer.client1.app[0] endToEndDelay:weightedHistogram:rangemax 1
scalar ClientServer.client1.app[0] endToEndDelay:weightedHistogram:underflows 0
scalar ClientServer.client1.app[0] endToEndDelay:weightedHistogram:overflows 0
scalar ClientServer.server.ppp[0].queue queueingTime:histogram:count 208957
scalar ClientServer.server.ppp[0].queue queueingTime:histogram:sumweights 208957
scalar ClientServer.server.ppp[0].queue queueingTime:histogram:mean 0
scalar ClientServer.server.ppp[0].queue queueingTime:histogram:stddev 0
scalar ClientServer.server.ppp[0].queue queueingTime:histogram:min 0
scalar ClientServer.server.ppp[0].queue queueingTime:histogram:max 0
scalar ClientServer.server.ppp[0].queue queueingTime:histogram:numbins 50
scalar ClientServer.server.ppp[0].queue queueingTime:histogram:rangemin -0.5
scalar ClientServer.server.ppp[0].queue queueingTime:histogram:rangemax 0.5
scalar ClientServer.server.ppp[0].queue queueingTime:histogram:underflows 0
scalar ClientServer.server.ppp[0].queue queueingTime:histogram:overflows 0
scalar ClientServer.server.ppp[0].queue outgoingPacketLengths:histogram:count 208957
scalar ClientServer.server.ppp[0].queue outgoingPacketLengths:histogram:sumweights 208957
scalar ClientServer.server.ppp[0].queue outgoingPacketLengths:histogram:mean 320.00015314155542
scalar ClientServer.server.ppp[0].queue outgoingPacketLengths:histogram:stddev 0.070003783951854553
scalar ClientServer.server.ppp[0].queue outgoingPacketLengths:histogram:min 320
scalar ClientServer.server.ppp[0].queue outgoingPacketLengths:histogram:max 352
scalar ClientServer.server.ppp[0].queue outgoingPacketLengths:histogram:numbins 48
scalar ClientServer.server.ppp[0].queue outgoingPacketLengths:histogram:rangemin 312
scalar ClientServer.server.ppp[0].queue outgoingPacketLengths:histogram:rangemax 360
scalar ClientServer.server.ppp[0].queue outgoingPacketLengths:histogram:underflows 0
scalar ClientServer.server.ppp[0].queue outgoingPacketLengths:histogram:overflows 0
scalar ClientServer.server.ppp[0].queue flowQueueingTime:histogram:count 0
scalar ClientServer.server.ppp[0].queue flowQueueingTime:histogram:sumweights 0
scalar ClientServer.server.ppp[0].queue flowQueueingTime:histogram:mean -nan
scalar ClientServer.server.ppp[0].queue flowQueueingTime:histogram:stddev nan
scalar ClientServer.server.ppp[0].queue flowQueueingTime:histogram:min nan
scalar ClientServer.server.ppp[0].queue flowQueueingTime:histogram:max nan
scalar ClientServer.server.ppp[0].queue flowQueueingTime:histogram:numbins 1
scalar ClientServer.server.ppp[0].queue flowQueueingTime:histogram:rangemin 0
scalar ClientServer.server.ppp[0].queue flowQueueingTime:histogram:rangemax 1
scalar ClientServer.server.ppp[0].queue flowQueueingTime:histogram:underflows 0
scalar ClientServer.server.ppp[0].queue flowQueueingTime:histogram:overflows 0
scalar ClientServer.server.ppp[0].queue incomingPacketLengths:histogram:count 208957
scalar ClientServer.server.ppp[0].queue incomingPacketLengths:histogram:sumweights 208957
scalar ClientServer.server.ppp[0].queue incomingPacketLengths:histogram:mean 320.00015314155542
scalar ClientServer.server.ppp[0].queue incomingPacketLengths:histogram:stddev 0.070003783951854553
scalar ClientServer.server.ppp[0].queue incomingPacketLengths:histogram:min 320
scalar ClientServer.server.ppp[0].queue incomingPacketLengths:histogram:max 352
scalar ClientServer.server.ppp[0].queue incomingPacketLengths:histogram:numbins 48
scalar ClientServer.server.ppp[0].queue incomingPacketLengths:histogram:rangemin 312
scalar ClientServer.server.ppp[0].queue incomingPacketLengths:histogram:rangemax 360
scalar ClientServer.server.ppp[0].queue incomingPacketLengths:histogram:underflows 0
scalar ClientServer.server.ppp[0].queue incomingPacketLengths:histogram:overflows 0
scalar ClientServer.server.app[0].thread_5 endToEndDelay:histogram:count 208955
scalar ClientServer.server.app[0].thread_5 endToEndDelay:histogram:sumweights 208955
scalar ClientServer.server.app[0].thread_5 endToEndDelay:histogram:mean 50.271898099128215
scalar ClientServer.server.app[0].thread_5 endToEndDelay:histogram:stddev 28.133679711393619
scalar ClientServer.server.app[0].thread_5 endToEndDelay:histogram:min 0.00046650000000000001
scalar ClientServer.server.app[0].thread_5 endToEndDelay:histogram:max 98.999737696710994
scalar ClientServer.server.app[0].thread_5 endToEndDelay:histogram:numbins 62
scalar ClientServer.server.app[0].thread_5 endToEndDelay:histogram:rangemin 0
scalar ClientServer.server.app[0].thread_5 endToEndDelay:histogram:rangemax 99.199999999999662
scalar ClientServer.server.app[0].thread_5 endToEndDelay:histogram:underflows 0
scalar ClientServer.server.app[0].thread_5 endToEndDelay:histogram:overflows 0
scalar ClientServer.server.app[0].thread_5 endToEndDelay:weightedHistogram:count 208955
scalar ClientServer.server.app[0].thread_5 endToEndDelay:weightedHistogram:sumweights 895999040
scalar ClientServer.server.app[0].thread_5 endToEndDelay:weightedHistogram:mean 50.271898099126304
scalar ClientServer.server.app[0].thread_5 endToEndDelay:weightedHistogram:stddev 28.1336797113971
scalar ClientServer.server.app[0].thread_5 endToEndDelay:weightedHistogram:min 0.00046650000000000001
scalar ClientServer.server.app[0].thread_5 endToEndDelay:weightedHistogram:max 98.999737696710994
scalar ClientServer.server.app[0].thread_5 endToEndDelay:weightedHistogram:numbins 62
scalar ClientServer.server.app[0].thread_5 endToEndDelay:weightedHistogram:rangemin 0
scalar ClientServer.server.app[0].thread_5 endToEndDelay:weightedHistogram:rangemax 99.199999999999662
scalar ClientServer.server.app[0].thread_5 endToEndDelay:weightedHistogram:underflows 0
scalar ClientServer.server.app[0].thread_5 endToEndDelay:weightedHistogram:overflows 0
scalar ClientServer.server.app[0] endToEndDelay:histogram:count 208955
scalar ClientServer.server.app[0] endToEndDelay:histogram:sumweights 208955
scalar ClientServer.server.app[0] endToEndDelay:histogram:mean 50.271898099128215
scalar ClientServer.server.app[0] endToEndDelay:histogram:stddev 28.133679711393619
scalar ClientServer.server.app[0] endToEndDelay:histogram:min 0.00046650000000000001
scalar ClientServer.server.app[0] endToEndDelay:histogram:max 98.999737696710994
scalar ClientServer.server.app[0] endToEndDelay:histogram:numbins 62
scalar ClientServer.server.app[0] endToEndDelay:histogram:rangemin 0
scalar ClientServer.server.app[0] endToEndDelay:histogram:rangemax 99.199999999999662
scalar ClientServer.server.app[0] endToEndDelay:histogram:underflows 0
scalar ClientServer.server.app[0] endToEndDelay:histogram:overflows 0
scalar ClientServer.server.app[0] endToEndDelay:weightedHistogram:count 208955
scalar ClientServer.server.app[0] endToEndDelay:weightedHistogram:sumweights 895999040
scalar ClientServer.server.app[0] endToEndDelay:weightedHistogram:mean 50.271898099126304
scalar ClientServer.server.app[0] endToEndDelay:weightedHistogram:stddev 28.1336797113971
scalar ClientServer.server.app[0] endToEndDelay:weightedHistogram:min 0.00046650000000000001
scalar ClientServer.server.app[0] endToEndDelay:weightedHistogram:max 98.999737696710994
scalar ClientServer.server.app[0] endToEndDelay:weightedHistogram:numbins 62
scalar ClientServer.server.app[0] endToEndDelay:weightedHistogram:rangemin 0
scalar ClientServer.server.app[0] endToEndDelay:weightedHistogram:rangemax 99.199999999999662
scalar ClientServer.server.app[0] endToEndDelay:weightedHistogram:underflows 0
scalar ClientServer.server.app[0] endToEndDelay:weightedHistogram:overflows 0
statistic ClientServer.client1.ppp[0].queue queueingTime:histogram
field count 208959
field mean 0.0036680635923775026
field stddev 0.00092045972104898884
field min 0
field max 0.0046261999999999996
field sum 766.4749001996106
field sqrsum 2.9885175260546308
bin	-inf	0
bin	0	6
bin	0.0001	0
bin	0.00020000000000000001	0
bin	0.00030000000000000003	0
bin	0.00040000000000000002	4
bin	0.00050000000000000001	0
bin	0.00060000000000000006	0
bin	0.00069999999999999999	0
bin	0.00080000000000000004	2789
bin	0.00090000000000000008	0
bin	0.001	0
bin	0.0011000000000000001	0
bin	0.0012000000000000001	0
bin	0.0013000000000000002	2794
bin	0.0014	0
bin	0.0015	0
bin	0.0016000000000000001	0
bin	0.0017000000000000001	0
bin	0.0018000000000000002	2793
bin	0.0019	0
bin	0.002	0
bin	0.0021000000000000003	0
bin	0.0022000000000000001	19505
bin	0.0023	0
bin	0.0024000000000000002	0
bin	0.0025000000000000001	0
bin	0.0026000000000000003	0
bin	0.0027000000000000001	25075
bin	0.0028	0
bin	0.0029000000000000002	0
bin	0.0030000000000000001	0
bin	0.0031000000000000003	0
bin	0.0032000000000000002	25077
bin	0.0033	0
bin	0.0034000000000000002	0
bin	0.0035000000000000001	0
bin	0.0036000000000000003	33426
bin	0.0037000000000000002	0
bin	0.0038	0
bin	0.0039000000000000003	0
bin	0.0040000000000000001	0
bin	0.0041000000000000003	30638
bin	0.0042000000000000006	0
bin	0.0043	0
bin	0.0044000000000000003	0
bin	0.0045000000000000005	0
bin	0.0045999999999999999	66852
bin	0.0047000000000000002	0
bin	0.0048000000000000004	0
bin	0.0048999999999999998	0
bin	0.0050000000000000001	0
bin	0.0051000000000000004	0
bin	0.0052000000000000006	0
bin	0.0053	0
bin	0.0054000000000000003	0
bin	0.0055000000000000005	0
bin	0.0055999999999999999	0
bin	0.0057000000000000002	0
bin	0.0058000000000000005	0
statistic ClientServer.client1.ppp[0].queue outgoingPacketLengths:histogram
field count 208959
field mean 4607.9591115960548
field stddev 13.216537972263094
field min 320
field max 4608
field sum 962874528
field sqrsum 4436922954752
bin	-inf	0
bin	0	0
bin	100	0
bin	200	0
bin	300	2
bin	400	0
bin	500	0
bin	600	0
bin	700	0
bin	800	0
bin	900	0
bin	1000	0
bin	1100	0
bin	1200	0
bin	1300	0
bin	1400	0
bin	1500	0
bin	1600	0
bin	1700	0
bin	1800	0
bin	1900	0
bin	2000	0
bin	2100	0
bin	2200	0
bin	2300	0
bin	2400	0
bin	2500	0
bin	2600	0
bin	2700	0
bin	2800	0
bin	2900	0
bin	3000	0
bin	3100	0
bin	3200	0
bin	3300	0
bin	3400	0
bin	3500	0
bin	3600	0
bin	3700	0
bin	3800	0
bin	3900	0
bin	4000	0
bin	4100	0
bin	4200	0
bin	4300	0
bin	4400	0
bin	4500	0
bin	4600	208957
bin	4700	0
bin	4800	0
bin	4900	0
bin	5000	0
bin	5100	0
bin	5200	0
bin	5300	0
bin	5400	0
bin	5500	0
bin	5600	0
bin	5700	0
statistic ClientServer.client1.ppp[0].queue flowQueueingTime:histogram
field count 0
field mean -nan
field stddev nan
field min nan
field max nan
field sum 0
field sqrsum 0
bin	-inf	0
bin	0	0
bin	1	0
statistic ClientServer.client1.ppp[0].queue incomingPacketLengths:histogram
field count 211756
field mean 4607.9596516745687
field stddev 13.128962264088482
field min 320
field max 4608
field sum 975763104
field sqrsum 4496313512960
bin	-inf	0
bin	0	0
bin	100	0
bin	200	0
bin	300	2
bin	400	0
bin	500	0
bin	600	0
bin	700	0
bin	800	0
bin	900	0
bin	1000	0
bin	1100	0
bin	1200	0
bin	1300	0
bin	1400	0
bin	1500	0
bin	1600	0
bin	1700	0
bin	1800	0
bin	1900	0
bin	2000	0
bin	2100	0
bin	2200	0
bin	2300	0
bin	2400	0
bin	2500	0
bin	2600	0
bin	2700	0
bin	2800	0
bin	2900	0
bin	3000	0
bin	3100	0
bin	3200	0
bin	3300	0
bin	3400	0
bin	3500	0
bin	3600	0
bin	3700	0
bin	3800	0
bin	3900	0
bin	4000	0
bin	4100	0
bin	4200	0
bin	4300	0
bin	4400	0
bin	4500	0
bin	4600	211754
bin	4700	0
bin	4800	0
bin	4900	0
bin	5000	0
bin	5100	0
bin	5200	0
bin	5300	0
bin	5400	0
bin	5500	0
bin	5600	0
bin	5700	0
statistic ClientServer.client1.app[0] endToEndDelay:histogram
field count 0
field mean -nan
field stddev nan
field min nan
field max nan
field sum 0
field sqrsum 0
bin	-inf	0
bin	0	0
bin	1	0
statistic ClientServer.client1.app[0] endToEndDelay:weightedHistogram
field count 0
field mean -nan
field stddev nan
field min nan
field max nan
field weights 0
field weightedSum 0
field sqrSumWeights 0
field weightedSqrSum 0
bin	-inf	0
bin	0	0
bin	1	0
statistic ClientServer.server.ppp[0].queue queueingTime:histogram
field count 208957
field mean 0
field stddev 0
field min 0
field max 0
field sum 0
field sqrsum 0
bin	-inf	0
bin	-0.5	0
bin	-0.47999999999999998	0
bin	-0.46000000000000002	0
bin	-0.44	0
bin	-0.41999999999999998	0
bin	-0.40000000000000002	0
bin	-0.38	0
bin	-0.35999999999999999	0
bin	-0.33999999999999997	0
bin	-0.32000000000000001	0
bin	-0.29999999999999999	0
bin	-0.28000000000000003	0
bin	-0.26000000000000001	0
bin	-0.23999999999999999	0
bin	-0.21999999999999997	0
bin	-0.20000000000000001	0
bin	-0.17999999999999999	0
bin	-0.15999999999999998	0
bin	-0.14000000000000001	0
bin	-0.12	0
bin	-0.099999999999999978	0
bin	-0.080000000000000016	0
bin	-0.059999999999999998	0
bin	-0.03999999999999998	0
bin	-0.020000000000000018	0
bin	0	208957
bin	0.020000000000000018	0
bin	0.040000000000000036	0
bin	0.060000000000000053	0
bin	0.07999999999999996	0
bin	0.099999999999999978	0
bin	0.12	0
bin	0.14000000000000001	0
bin	0.16000000000000003	0
bin	0.18000000000000005	0
bin	0.20000000000000007	0
bin	0.21999999999999997	0
bin	0.23999999999999999	0
bin	0.26000000000000001	0
bin	0.28000000000000003	0
bin	0.30000000000000004	0
bin	0.32000000000000006	0
bin	0.33999999999999997	0
bin	0.35999999999999999	0
bin	0.38	0
bin	0.40000000000000002	0
bin	0.42000000000000004	0
bin	0.44000000000000006	0
bin	0.45999999999999996	0
bin	0.47999999999999998	0
bin	0.5	0
statistic ClientServer.server.ppp[0].queue outgoingPacketLengths:histogram
field count 208957
field mean 320.00015314155542
field stddev 0.070003783951854553
field min 320
field max 352
field sum 66866272
field sqrsum 21397218304
bin	-inf	0
bin	312	0
bin	313	0
bin	314	0
bin	315	0
bin	316	0
bin	317	0
bin	318	0
bin	319	0
bin	320	208956
bin	321	0
bin	322	0
bin	323	0
bin	324	0
bin	325	0
bin	326	0
bin	327	0
bin	328	0
bin	329	0
bin	330	0
bin	331	0
bin	332	0
bin	333	0
bin	334	0
bin	335	0
bin	336	0
bin	337	0
bin	338	0
bin	339	0
bin	340	0
bin	341	0
bin	342	0
bin	343	0
bin	344	0
bin	345	0
bin	346	0
bin	347	0
bin	348	0
bin	349	0
bin	350	0
bin	351	0
bin	352	1
bin	353	0
bin	354	0
bin	355	0
bin	356	0
bin	357	0
bin	358	0
bin	359	0
bin	360	0
statistic ClientServer.server.ppp[0].queue flowQueueingTime:histogram
field count 0
field mean -nan
field stddev nan
field min nan
field max nan
field sum 0
field sqrsum 0
bin	-inf	0
bin	0	0
bin	1	0
statistic ClientServer.server.ppp[0].queue incomingPacketLengths:histogram
field count 208957
field mean 320.00015314155542
field stddev 0.070003783951854553
field min 320
field max 352
field sum 66866272
field sqrsum 21397218304
bin	-inf	0
bin	312	0
bin	313	0
bin	314	0
bin	315	0
bin	316	0
bin	317	0
bin	318	0
bin	319	0
bin	320	208956
bin	321	0
bin	322	0
bin	323	0
bin	324	0
bin	325	0
bin	326	0
bin	327	0
bin	328	0
bin	329	0
bin	330	0
bin	331	0
bin	332	0
bin	333	0
bin	334	0
bin	335	0
bin	336	0
bin	337	0
bin	338	0
bin	339	0
bin	340	0
bin	341	0
bin	342	0
bin	343	0
bin	344	0
bin	345	0
bin	346	0
bin	347	0
bin	348	0
bin	349	0
bin	350	0
bin	351	0
bin	352	1
bin	353	0
bin	354	0
bin	355	0
bin	356	0
bin	357	0
bin	358	0
bin	359	0
bin	360	0
statistic ClientServer.server.app[0].thread_5 endToEndDelay:histogram
field count 208955
field mean 50.271898099128215
field stddev 28.133679711393619
field min 0.00046650000000000001
field max 98.999737696710994
field sum 10504564.467303336
field sqrsum 693472307.52261329
bin	-inf	0
bin	0	112
bin	1.6000000000000001	3440
bin	3.199999999999998	3431
bin	4.7999999999999927	3430
bin	6.399999999999987	3424
bin	7.9999999999999813	3437
bin	9.5999999999999766	3431
bin	11.199999999999971	3430
bin	12.799999999999965	3427
bin	14.399999999999959	3434
bin	15.999999999999954	3431
bin	17.599999999999948	3430
bin	19.199999999999942	3430
bin	20.799999999999937	3431
bin	22.399999999999931	3431
bin	23.999999999999925	3430
bin	25.59999999999992	3431
bin	27.199999999999914	3430
bin	28.799999999999908	3431
bin	30.399999999999903	3431
bin	31.999999999999897	3430
bin	33.599999999999895	3431
bin	35.199999999999889	3430
bin	36.799999999999883	3431
bin	38.399999999999878	3430
bin	39.999999999999872	3431
bin	41.599999999999866	3430
bin	43.199999999999861	3422
bin	44.799999999999855	3439
bin	46.399999999999849	3431
bin	47.999999999999844	3430
bin	49.599999999999838	3425
bin	51.199999999999832	3436
bin	52.799999999999827	3431
bin	54.399999999999821	3431
bin	55.999999999999815	3427
bin	57.59999999999981	3434
bin	59.199999999999804	3430
bin	60.799999999999798	3431
bin	62.399999999999793	3430
bin	63.999999999999787	3431
bin	65.599999999999781	3430
bin	67.199999999999775	3431
bin	68.79999999999977	3430
bin	70.399999999999764	3431
bin	71.999999999999758	3430
bin	73.599999999999753	3431
bin	75.199999999999747	3430
bin	76.799999999999741	3431
bin	78.399999999999736	3430
bin	79.99999999999973	3420
bin	81.599999999999724	3442
bin	83.199999999999719	3430
bin	84.799999999999713	3431
bin	86.399999999999707	3422
bin	87.999999999999702	3439
bin	89.599999999999696	3430
bin	91.19999999999969	3431
bin	92.799999999999685	3425
bin	94.399999999999679	3436
bin	95.999999999999673	3430
bin	97.599999999999667	3002
bin	99.199999999999662	0
statistic ClientServer.server.app[0].thread_5 endToEndDelay:weightedHistogram
field count 208955
field mean 50.271898099126304
field stddev 28.1336797113971
field min 0.00046650000000000001
field max 98.999737696710994
field weights 895999040
field weightedSum 45043572435.794991
field sqrSumWeights 3842043883520
field weightedSqrSum 2973609254656.9692
bin	-inf	0
bin	0	480256
bin	1.6000000000000001	14750720
bin	3.199999999999998	14712128
bin	4.7999999999999927	14707840
bin	6.399999999999987	14682112
bin	7.9999999999999813	14737856
bin	9.5999999999999766	14712128
bin	11.199999999999971	14707840
bin	12.799999999999965	14694976
bin	14.399999999999959	14724992
bin	15.999999999999954	14712128
bin	17.599999999999948	14707840
bin	19.199999999999942	14707840
bin	20.799999999999937	14712128
bin	22.399999999999931	14712128
bin	23.999999999999925	14707840
bin	25.59999999999992	14712128
bin	27.199999999999914	14707840
bin	28.799999999999908	14712128
bin	30.399999999999903	14712128
bin	31.999999999999897	14707840
bin	33.599999999999895	14712128
bin	35.199999999999889	14707840
bin	36.799999999999883	14712128
bin	38.399999999999878	14707840
bin	39.999999999999872	14712128
bin	41.599999999999866	14707840
bin	43.199999999999861	14673536
bin	44.799999999999855	14746432
bin	46.399999999999849	14712128
bin	47.999999999999844	14707840
bin	49.599999999999838	14686400
bin	51.199999999999832	14733568
bin	52.799999999999827	14712128
bin	54.399999999999821	14712128
bin	55.999999999999815	14694976
bin	57.59999999999981	14724992
bin	59.199999999999804	14707840
bin	60.799999999999798	14712128
bin	62.399999999999793	14707840
bin	63.999999999999787	14712128
bin	65.599999999999781	14707840
bin	67.199999999999775	14712128
bin	68.79999999999977	14707840
bin	70.399999999999764	14712128
bin	71.999999999999758	14707840
bin	73.599999999999753	14712128
bin	75.199999999999747	14707840
bin	76.799999999999741	14712128
bin	78.399999999999736	14707840
bin	79.99999999999973	14664960
bin	81.599999999999724	14759296
bin	83.199999999999719	14707840
bin	84.799999999999713	14712128
bin	86.399999999999707	14673536
bin	87.999999999999702	14746432
bin	89.599999999999696	14707840
bin	91.19999999999969	14712128
bin	92.799999999999685	14686400
bin	94.399999999999679	14733568
bin	95.999999999999673	14707840
bin	97.599999999999667	12872576
bin	99.199999999999662	0
statistic ClientServer.server.app[0] endToEndDelay:histogram
field count 208955
field mean 50.271898099128215
field stddev 28.133679711393619
field min 0.00046650000000000001
field max 98.999737696710994
field sum 10504564.467303336
field sqrsum 693472307.52261329
bin	-inf	0
bin	0	112
bin	1.6000000000000001	3440
bin	3.199999999999998	3431
bin	4.7999999999999927	3430
bin	6.399999999999987	3424
bin	7.9999999999999813	3437
bin	9.5999999999999766	3431
bin	11.199999999999971	3430
bin	12.799999999999965	3427
bin	14.399999999999959	3434
bin	15.999999999999954	3431
bin	17.599999999999948	3430
bin	19.199999999999942	3430
bin	20.799999999999937	3431
bin	22.399999999999931	3431
bin	23.999999999999925	3430
bin	25.59999999999992	3431
bin	27.199999999999914	3430
bin	28.799999999999908	3431
bin	30.399999999999903	3431
bin	31.999999999999897	3430
bin	33.599999999999895	3431
bin	35.199999999999889	3430
bin	36.799999999999883	3431
bin	38.399999999999878	3430
bin	39.999999999999872	3431
bin	41.599999999999866	3430
bin	43.199999999999861	3422
bin	44.799999999999855	3439
bin	46.399999999999849	3431
bin	47.999999999999844	3430
bin	49.599999999999838	3425
bin	51.199999999999832	3436
bin	52.799999999999827	3431
bin	54.399999999999821	3431
bin	55.999999999999815	3427
bin	57.59999999999981	3434
bin	59.199999999999804	3430
bin	60.799999999999798	3431
bin	62.399999999999793	3430
bin	63.999999999999787	3431
bin	65.599999999999781	3430
bin	67.199999999999775	3431
bin	68.79999999999977	3430
bin	70.399999999999764	3431
bin	71.999999999999758	3430
bin	73.599999999999753	3431
bin	75.199999999999747	3430
bin	76.799999999999741	3431
bin	78.399999999999736	3430
bin	79.99999999999973	3420
bin	81.599999999999724	3442
bin	83.199999999999719	3430
bin	84.799999999999713	3431
bin	86.399999999999707	3422
bin	87.999999999999702	3439
bin	89.599999999999696	3430
bin	91.19999999999969	3431
bin	92.799999999999685	3425
bin	94.399999999999679	3436
bin	95.999999999999673	3430
bin	97.599999999999667	3002
bin	99.199999999999662	0
statistic ClientServer.server.app[0] endToEndDelay:weightedHistogram
field count 208955
field mean 50.271898099126304
field stddev 28.1336797113971
field min 0.00046650000000000001
field max 98.999737696710994
field weights 895999040
field weightedSum 45043572435.794991
field sqrSumWeights 3842043883520
field weightedSqrSum 2973609254656.9692
bin	-inf	0
bin	0	480256
bin	1.6000000000000001	14750720
bin	3.199999999999998	14712128
bin	4.7999999999999927	14707840
bin	6.399999999999987	14682112
bin	7.9999999999999813	14737856
bin	9.5999999999999766	14712128
bin	11.199999999999971	14707840
bin	12.799999999999965	14694976
bin	14.399999999999959	14724992
bin	15.999999999999954	14712128
bin	17.599999999999948	14707840
bin	19.199999999999942	14707840
bin	20.799999999999937	14712128
bin	22.399999999999931	14712128
bin	23.999999999999925	14707840
bin	25.59999999999992	14712128
bin	27.199999999999914	14707840
bin	28.799999999999908	14712128
bin	30.399999999999903	14712128
bin	31.999999999999897	14707840
bin	33.599999999999895	14712128
bin	35.199999999999889	14707840
bin	36.799999999999883	14712128
bin	38.399999999999878	14707840
bin	39.999999999999872	14712128
bin	41.599999999999866	14707840
bin	43.199999999999861	14673536
bin	44.799999999999855	14746432
bin	46.399999999999849	14712128
bin	47.999999999999844	14707840
bin	49.599999999999838	14686400
bin	51.199999999999832	14733568
bin	52.799999999999827	14712128
bin	54.399999999999821	14712128
bin	55.999999999999815	14694976
bin	57.59999999999981	14724992
bin	59.199999999999804	14707840
bin	60.799999999999798	14712128
bin	62.399999999999793	14707840
bin	63.999999999999787	14712128
bin	65.599999999999781	14707840
bin	67.199999999999775	14712128
bin	68.79999999999977	14707840
bin	70.399999999999764	14712128
bin	71.999999999999758	14707840
bin	73.599999999999753	14712128
bin	75.199999999999747	14707840
bin	76.799999999999741	14712128
bin	78.399999999999736	14707840
bin	79.99999999999973	14664960
bin	81.599999999999724	14759296
bin	83.199999999999719	14707840
bin	84.799999999999713	14712128
bin	86.399999999999707	14673536
bin	87.999999999999702	14746432
bin	89.599999999999696	14707840
bin	91.19999999999969	14712128
bin	92.799999999999685	14686400
bin	94.399999999999679	14733568
bin	95.999999999999673	14707840
bin	97.599999999999667	12872576
bin	99.199999999999662	0
scalar ClientServer.client1.lo[0].lo rcvdPkFromHl:vector(packetBytes):count 0
scalar ClientServer.client1.lo[0].lo rcvdPkFromHl:vector(packetBytes):sum 0
scalar ClientServer.client1.lo[0].lo rcvdPkFromHl:vector(packetBytes):sumweights 0
scalar ClientServer.client1.lo[0].lo rcvdPkFromHl:vector(packetBytes):mean -nan
scalar ClientServer.client1.lo[0].lo rcvdPkFromHl:vector(packetBytes):stddev nan
scalar ClientServer.client1.lo[0].lo rcvdPkFromHl:vector(packetBytes):min inf
scalar ClientServer.client1.lo[0].lo rcvdPkFromHl:vector(packetBytes):max -inf
scalar ClientServer.client1.lo[0].lo rcvdPkFromHl:vector(packetBytes):starttime nan
scalar ClientServer.client1.lo[0].lo rcvdPkFromHl:vector(packetBytes):endtime nan
scalar ClientServer.client1.lo[0].lo passedUpPk:vector(packetBytes):count 0
scalar ClientServer.client1.lo[0].lo passedUpPk:vector(packetBytes):sum 0
scalar ClientServer.client1.lo[0].lo passedUpPk:vector(packetBytes):sumweights 0
scalar ClientServer.client1.lo[0].lo passedUpPk:vector(packetBytes):mean -nan
scalar ClientServer.client1.lo[0].lo passedUpPk:vector(packetBytes):stddev nan
scalar ClientServer.client1.lo[0].lo passedUpPk:vector(packetBytes):min inf
scalar ClientServer.client1.lo[0].lo passedUpPk:vector(packetBytes):max -inf
scalar ClientServer.client1.lo[0].lo passedUpPk:vector(packetBytes):starttime nan
scalar ClientServer.client1.lo[0].lo passedUpPk:vector(packetBytes):endtime nan
scalar ClientServer.client1.lo[0] packetDropInterfaceDown:vector(packetBytes):count 0
scalar ClientServer.client1.lo[0] packetDropInterfaceDown:vector(packetBytes):sum 0
scalar ClientServer.client1.lo[0] packetDropInterfaceDown:vector(packetBytes):sumweights 0
scalar ClientServer.client1.lo[0] packetDropInterfaceDown:vector(packetBytes):mean -nan
scalar ClientServer.client1.lo[0] packetDropInterfaceDown:vector(packetBytes):stddev nan
scalar ClientServer.client1.lo[0] packetDropInterfaceDown:vector(packetBytes):min inf
scalar ClientServer.client1.lo[0] packetDropInterfaceDown:vector(packetBytes):max -inf
scalar ClientServer.client1.lo[0] packetDropInterfaceDown:vector(packetBytes):starttime nan
scalar ClientServer.client1.lo[0] packetDropInterfaceDown:vector(packetBytes):endtime nan
scalar ClientServer.client1.lo[0] packetDropNoCarrier:vector(packetBytes):count 0
scalar ClientServer.client1.lo[0] packetDropNoCarrier:vector(packetBytes):sum 0
scalar ClientServer.client1.lo[0] packetDropNoCarrier:vector(packetBytes):sumweights 0
scalar ClientServer.client1.lo[0] packetDropNoCarrier:vector(packetBytes):mean -nan
scalar ClientServer.client1.lo[0] packetDropNoCarrier:vector(packetBytes):stddev nan
scalar ClientServer.client1.lo[0] packetDropNoCarrier:vector(packetBytes):min inf
scalar ClientServer.client1.lo[0] packetDropNoCarrier:vector(packetBytes):max -inf
scalar ClientServer.client1.lo[0] packetDropNoCarrier:vector(packetBytes):starttime nan
scalar ClientServer.client1.lo[0] packetDropNoCarrier:vector(packetBytes):endtime nan
scalar ClientServer.client1.ppp[0].queue queueLength:vector:count 420714
scalar ClientServer.client1.ppp[0].queue queueLength:vector:sum 3139670
scalar ClientServer.client1.ppp[0].queue queueLength:vector:sumweights 420714
scalar ClientServer.client1.ppp[0].queue queueLength:vector:mean 7.4627181410649515
scalar ClientServer.client1.ppp[0].queue queueLength:vector:stddev 2.039502716982089
scalar ClientServer.client1.ppp[0].queue queueLength:vector:min 0
scalar ClientServer.client1.ppp[0].queue queueLength:vector:max 10
scalar ClientServer.client1.ppp[0].queue queueLength:vector:starttime 0
scalar ClientServer.client1.ppp[0].queue queueLength:vector:endtime 99.999775396711016
scalar ClientServer.client1.ppp[0].queue queueBitLength:vector:count 420714
scalar ClientServer.client1.ppp[0].queue queueBitLength:vector:sum 14467599360
scalar ClientServer.client1.ppp[0].queue queueBitLength:vector:sumweights 420714
scalar ClientServer.client1.ppp[0].queue queueBitLength:vector:mean 34388.205194027294
scalar ClientServer.client1.ppp[0].queue queueBitLength:vector:stddev 9398.0285198534657
scalar ClientServer.client1.ppp[0].queue queueBitLength:vector:min 0
scalar ClientServer.client1.ppp[0].queue queueBitLength:vector:max 46080
scalar ClientServer.client1.ppp[0].queue queueBitLength:vector:starttime 0
scalar ClientServer.client1.ppp[0].queue queueBitLength:vector:endtime 99.999775396711016
scalar ClientServer.client1.ppp[0].queue queueingTime:vector:count 208959
scalar ClientServer.client1.ppp[0].queue queueingTime:vector:sum 766.47490019999555
scalar ClientServer.client1.ppp[0].queue queueingTime:vector:sumweights 208959
scalar ClientServer.client1.ppp[0].queue queueingTime:vector:mean 0.0036680635923793448
scalar ClientServer.client1.ppp[0].queue queueingTime:vector:stddev 0.00092045972104078881
scalar ClientServer.client1.ppp[0].queue queueingTime:vector:min 0
scalar ClientServer.client1.ppp[0].queue queueingTime:vector:max 0.0046261999999999996
scalar ClientServer.client1.ppp[0].queue queueingTime:vector:starttime 0.10000000000000001
scalar ClientServer.client1.ppp[0].queue queueingTime:vector:endtime 99.999737596711014
scalar ClientServer.client1.ppp[0].queue incomingPacketLengths:vector:count 211756
scalar ClientServer.client1.ppp[0].queue incomingPacketLengths:vector:sum 975763104
scalar ClientServer.client1.ppp[0].queue incomingPacketLengths:vector:sumweights 211756
scalar ClientServer.client1.ppp[0].queue incomingPacketLengths:vector:mean 4607.9596516745687
scalar ClientServer.client1.ppp[0].queue incomingPacketLengths:vector:stddev 13.128962264088482
scalar ClientServer.client1.ppp[0].queue incomingPacketLengths:vector:min 320
scalar ClientServer.client1.ppp[0].queue incomingPacketLengths:vector:max 4608
scalar ClientServer.client1.ppp[0].queue incomingPacketLengths:vector:starttime 0.10000000000000001
scalar ClientServer.client1.ppp[0].queue incomingPacketLengths:vector:endtime 99.999775396711016
scalar ClientServer.client1.ppp[0].queue incomingDataRate:vector:count 2143
scalar ClientServer.client1.ppp[0].queue incomingDataRate:vector:sum 21224276593.668037
scalar ClientServer.client1.ppp[0].queue incomingDataRate:vector:sumweights 2143
scalar ClientServer.client1.ppp[0].queue incomingDataRate:vector:mean 9904002.1435688455
scalar ClientServer.client1.ppp[0].queue incomingDataRate:vector:stddev 1122716.8501655569
scalar ClientServer.client1.ppp[0].queue incomingDataRate:vector:min 0
scalar ClientServer.client1.ppp[0].queue incomingDataRate:vector:max 11157135.359576259
scalar ClientServer.client1.ppp[0].queue incomingDataRate:vector:starttime 0.10000000000000001
scalar ClientServer.client1.ppp[0].queue incomingDataRate:vector:endtime 100
scalar ClientServer.client1.ppp[0].queue outgoingPacketLengths:vector:count 208959
scalar ClientServer.client1.ppp[0].queue outgoingPacketLengths:vector:sum 962874528
scalar ClientServer.client1.ppp[0].queue outgoingPacketLengths:vector:sumweights 208959
scalar ClientServer.client1.ppp[0].queue outgoingPacketLengths:vector:mean 4607.9591115960548
scalar ClientServer.client1.ppp[0].queue outgoingPacketLengths:vector:stddev 13.216537972263094
scalar ClientServer.client1.ppp[0].queue outgoingPacketLengths:vector:min 320
scalar ClientServer.client1.ppp[0].queue outgoingPacketLengths:vector:max 4608
scalar ClientServer.client1.ppp[0].queue outgoingPacketLengths:vector:starttime 0.10000000000000001
scalar ClientServer.client1.ppp[0].queue outgoingPacketLengths:vector:endtime 99.999737596711014
scalar ClientServer.client1.ppp[0].queue outgoingDataRate:vector:count 2115
scalar ClientServer.client1.ppp[0].queue outgoingDataRate:vector:sum 20644778768.745728
scalar ClientServer.client1.ppp[0].queue outgoingDataRate:vector:sumweights 2115
scalar ClientServer.client1.ppp[0].queue outgoingDataRate:vector:mean 9761124.7133549545
scalar ClientServer.client1.ppp[0].queue outgoingDataRate:vector:stddev 1068882.8491433379
scalar ClientServer.client1.ppp[0].queue outgoingDataRate:vector:min 0
scalar ClientServer.client1.ppp[0].queue outgoingDataRate:vector:max 9973086.2633818053
scalar ClientServer.client1.ppp[0].queue outgoingDataRate:vector:starttime 0.10000000000000001
scalar ClientServer.client1.ppp[0].queue outgoingDataRate:vector:endtime 100
scalar ClientServer.client1.ppp[0].queue droppedPacketLengthsQueueOverflow:vector:count 2788
scalar ClientServer.client1.ppp[0].queue droppedPacketLengthsQueueOverflow:vector:sum 12847104
scalar ClientServer.client1.ppp[0].queue droppedPacketLengthsQueueOverflow:vector:sumweights 2788
scalar ClientServer.client1.ppp[0].queue droppedPacketLengthsQueueOverflow:vector:mean 4608
scalar ClientServer.client1.ppp[0].queue droppedPacketLengthsQueueOverflow:vector:stddev 0
scalar ClientServer.client1.ppp[0].queue droppedPacketLengthsQueueOverflow:vector:min 4608
scalar ClientServer.client1.ppp[0].queue droppedPacketLengthsQueueOverflow:vector:max 4608
scalar ClientServer.client1.ppp[0].queue droppedPacketLengthsQueueOverflow:vector:starttime 1.0052060000000003
scalar ClientServer.client1.ppp[0].queue droppedPacketLengthsQueueOverflow:vector:endtime 99.974589796711015
scalar ClientServer.client1.ppp[0].queue flowQueueingTime:vector:count 0
scalar ClientServer.client1.ppp[0].queue flowQueueingTime:vector:sum 0
scalar ClientServer.client1.ppp[0].queue flowQueueingTime:vector:sumweights 0
scalar ClientServer.client1.ppp[0].queue flowQueueingTime:vector:mean -nan
scalar ClientServer.client1.ppp[0].queue flowQueueingTime:vector:stddev nan
scalar ClientServer.client1.ppp[0].queue flowQueueingTime:vector:min inf
scalar ClientServer.client1.ppp[0].queue flowQueueingTime:vector:max -inf
scalar ClientServer.client1.ppp[0].queue flowQueueingTime:vector:starttime nan
scalar ClientServer.client1.ppp[0].queue flowQueueingTime:vector:endtime nan
scalar ClientServer.client1.ppp[0].queue flowIncomingDataRate:vector:count 1000
scalar ClientServer.client1.ppp[0].queue flowIncomingDataRate:vector:sum 0
scalar ClientServer.client1.ppp[0].queue flowIncomingDataRate:vector:sumweights 1000
scalar ClientServer.client1.ppp[0].queue flowIncomingDataRate:vector:mean 0
scalar ClientServer.client1.ppp[0].queue flowIncomingDataRate:vector:stddev 0
scalar ClientServer.client1.ppp[0].queue flowIncomingDataRate:vector:min 0
scalar ClientServer.client1.ppp[0].queue flowIncomingDataRate:vector:max 0
scalar ClientServer.client1.ppp[0].queue flowIncomingDataRate:vector:starttime 0.10000000000000001
scalar ClientServer.client1.ppp[0].queue flowIncomingDataRate:vector:endtime 100
scalar ClientServer.client1.ppp[0].queue flowOutgoingDataRate:vector:count 1000
scalar ClientServer.client1.ppp[0].queue flowOutgoingDataRate:vector:sum 0
scalar ClientServer.client1.ppp[0].queue flowOutgoingDataRate:vector:sumweights 1000
scalar ClientServer.client1.ppp[0].queue flowOutgoingDataRate:vector:mean 0
scalar ClientServer.client1.ppp[0].queue flowOutgoingDataRate:vector:stddev 0
scalar ClientServer.client1.ppp[0].queue flowOutgoingDataRate:vector:min 0
scalar ClientServer.client1.ppp[0].queue flowOutgoingDataRate:vector:max 0
scalar ClientServer.client1.ppp[0].queue flowOutgoingDataRate:vector:starttime 0.10000000000000001
scalar ClientServer.client1.ppp[0].queue flowOutgoingDataRate:vector:endtime 100
scalar ClientServer.client1.ppp[0].ppp transmissionState:vector:count 417918
scalar ClientServer.client1.ppp[0].ppp transmissionState:vector:sum 208959
scalar ClientServer.client1.ppp[0].ppp transmissionState:vector:sumweights 417918
scalar ClientServer.client1.ppp[0].ppp transmissionState:vector:mean 0.5
scalar ClientServer.client1.ppp[0].ppp transmissionState:vector:stddev 0.5000005982045489
scalar ClientServer.client1.ppp[0].ppp transmissionState:vector:min 0
scalar ClientServer.client1.ppp[0].ppp transmissionState:vector:max 1
scalar ClientServer.client1.ppp[0].ppp transmissionState:vector:starttime 0
scalar ClientServer.client1.ppp[0].ppp transmissionState:vector:endtime 99.999737596711014
scalar ClientServer.client1.ppp[0].ppp txPk:vector(packetBytes):count 208959
scalar ClientServer.client1.ppp[0].ppp txPk:vector(packetBytes):sum 121822029
scalar ClientServer.client1.ppp[0].ppp txPk:vector(packetBytes):sumweights 208959
scalar ClientServer.client1.ppp[0].ppp txPk:vector(packetBytes):mean 582.99488894950684
scalar ClientServer.client1.ppp[0].ppp txPk:vector(packetBytes):stddev 1.6520672465328867
scalar ClientServer.client1.ppp[0].ppp txPk:vector(packetBytes):min 47
scalar ClientServer.client1.ppp[0].ppp txPk:vector(packetBytes):max 583
scalar ClientServer.client1.ppp[0].ppp txPk:vector(packetBytes):starttime 0.10000000000000001
scalar ClientServer.client1.ppp[0].ppp txPk:vector(packetBytes):endtime 99.999737596711014
scalar ClientServer.client1.ppp[0].ppp rxPkOk:vector(packetBytes):count 208957
scalar ClientServer.client1.ppp[0].ppp rxPkOk:vector(packetBytes):sum 9820983
scalar ClientServer.client1.ppp[0].ppp rxPkOk:vector(packetBytes):sumweights 208957
scalar ClientServer.client1.ppp[0].ppp rxPkOk:vector(packetBytes):mean 47.000019142694427
scalar ClientServer.client1.ppp[0].ppp rxPkOk:vector(packetBytes):stddev 0.0087504729939818192
scalar ClientServer.client1.ppp[0].ppp rxPkOk:vector(packetBytes):min 47
scalar ClientServer.client1.ppp[0].ppp rxPkOk:vector(packetBytes):max 51
scalar ClientServer.client1.ppp[0].ppp rxPkOk:vector(packetBytes):starttime 0.10008180000000003
scalar ClientServer.client1.ppp[0].ppp rxPkOk:vector(packetBytes):endtime 99.999775396711016
scalar ClientServer.client1.ppp[0].ppp packetDropIncorrectlyReceived:vector(packetBytes):count 0
scalar ClientServer.client1.ppp[0].ppp packetDropIncorrectlyReceived:vector(packetBytes):sum 0
scalar ClientServer.client1.ppp[0].ppp packetDropIncorrectlyReceived:vector(packetBytes):sumweights 0
scalar ClientServer.client1.ppp[0].ppp packetDropIncorrectlyReceived:vector(packetBytes):mean -nan
scalar ClientServer.client1.ppp[0].ppp packetDropIncorrectlyReceived:vector(packetBytes):stddev nan
scalar ClientServer.client1.ppp[0].ppp packetDropIncorrectlyReceived:vector(packetBytes):min inf
scalar ClientServer.client1.ppp[0].ppp packetDropIncorrectlyReceived:vector(packetBytes):max -inf
scalar ClientServer.client1.ppp[0].ppp packetDropIncorrectlyReceived:vector(packetBytes):starttime nan
scalar ClientServer.client1.ppp[0].ppp packetDropIncorrectlyReceived:vector(packetBytes):endtime nan
scalar ClientServer.client1.ppp[0].ppp packetDropInterfaceDown:vector(packetBytes):count 0
scalar ClientServer.client1.ppp[0].ppp packetDropInterfaceDown:vector(packetBytes):sum 0
scalar ClientServer.client1.ppp[0].ppp packetDropInterfaceDown:vector(packetBytes):sumweights 0
scalar ClientServer.client1.ppp[0].ppp packetDropInterfaceDown:vector(packetBytes):mean -nan
scalar ClientServer.client1.ppp[0].ppp packetDropInterfaceDown:vector(packetBytes):stddev nan
scalar ClientServer.client1.ppp[0].ppp packetDropInterfaceDown:vector(packetBytes):min inf
scalar ClientServer.client1.ppp[0].ppp packetDropInterfaceDown:vector(packetBytes):max -inf
scalar ClientServer.client1.ppp[0].ppp packetDropInterfaceDown:vector(packetBytes):starttime nan
scalar ClientServer.client1.ppp[0].ppp packetDropInterfaceDown:vector(packetBytes):endtime nan
scalar ClientServer.client1.ppp[0].ppp rcvdPkFromHl:vector(packetBytes):count 208959
scalar ClientServer.client1.ppp[0].ppp rcvdPkFromHl:vector(packetBytes):sum 120359316
scalar ClientServer.client1.ppp[0].ppp rcvdPkFromHl:vector(packetBytes):sumweights 208959
scalar ClientServer.client1.ppp[0].ppp rcvdPkFromHl:vector(packetBytes):mean 575.99488894950684
scalar ClientServer.client1.ppp[0].ppp rcvdPkFromHl:vector(packetBytes):stddev 1.6520672465328867
scalar ClientServer.client1.ppp[0].ppp rcvdPkFromHl:vector(packetBytes):min 40
scalar ClientServer.client1.ppp[0].ppp rcvdPkFromHl:vector(packetBytes):max 576
scalar ClientServer.client1.ppp[0].ppp rcvdPkFromHl:vector(packetBytes):starttime 0.10000000000000001
scalar ClientServer.client1.ppp[0].ppp rcvdPkFromHl:vector(packetBytes):endtime 99.999737596711014
scalar ClientServer.client1.ppp[0].ppp passedUpPk:vector(packetBytes):count 208957
scalar ClientServer.client1.ppp[0].ppp passedUpPk:vector(packetBytes):sum 8358284
scalar ClientServer.client1.ppp[0].ppp passedUpPk:vector(packetBytes):sumweights 208957
scalar ClientServer.client1.ppp[0].ppp passedUpPk:vector(packetBytes):mean 40.000019142694427
scalar ClientServer.client1.ppp[0].ppp passedUpPk:vector(packetBytes):stddev 0.0087504729939818192
scalar ClientServer.client1.ppp[0].ppp passedUpPk:vector(packetBytes):min 40
scalar ClientServer.client1.ppp[0].ppp passedUpPk:vector(packetBytes):max 44
scalar ClientServer.client1.ppp[0].ppp passedUpPk:vector(packetBytes):starttime 0.10008180000000003
scalar ClientServer.client1.ppp[0].ppp passedUpPk:vector(packetBytes):endtime 99.999775396711016
scalar ClientServer.client1.ppp[0] packetDropInterfaceDown:vector(packetBytes):count 0
scalar ClientServer.client1.ppp[0] packetDropInterfaceDown:vector(packetBytes):sum 0
scalar ClientServer.client1.ppp[0] packetDropInterfaceDown:vector(packetBytes):sumweights 0
scalar ClientServer.client1.ppp[0] packetDropInterfaceDown:vector(packetBytes):mean -nan
scalar ClientServer.client1.ppp[0] packetDropInterfaceDown:vector(packetBytes):stddev nan
scalar ClientServer.client1.ppp[0] packetDropInterfaceDown:vector(packetBytes):min inf
scalar ClientServer.client1.ppp[0] packetDropInterfaceDown:vector(packetBytes):max -inf
scalar ClientServer.client1.ppp[0] packetDropInterfaceDown:vector(packetBytes):starttime nan
scalar ClientServer.client1.ppp[0] packetDropInterfaceDown:vector(packetBytes):endtime nan
scalar ClientServer.client1.ppp[0] packetDropNoCarrier:vector(packetBytes):count 0
scalar ClientServer.client1.ppp[0] packetDropNoCarrier:vector(packetBytes):sum 0
scalar ClientServer.client1.ppp[0] packetDropNoCarrier:vector(packetBytes):sumweights 0
scalar ClientServer.client1.ppp[0] packetDropNoCarrier:vector(packetBytes):mean -nan
scalar ClientServer.client1.ppp[0] packetDropNoCarrier:vector(packetBytes):stddev nan
scalar ClientServer.client1.ppp[0] packetDropNoCarrier:vector(packetBytes):min inf
scalar ClientServer.client1.ppp[0] packetDropNoCarrier:vector(packetBytes):max -inf
scalar ClientServer.client1.ppp[0] packetDropNoCarrier:vector(packetBytes):starttime nan
scalar ClientServer.client1.ppp[0] packetDropNoCarrier:vector(packetBytes):endtime nan
scalar ClientServer.client1.ipv4.ip packetDropAddressResolutionFailed:vector(packetBytes):count 0
scalar ClientServer.client1.ipv4.ip packetDropAddressResolutionFailed:vector(packetBytes):sum 0
scalar ClientServer.client1.ipv4.ip packetDropAddressResolutionFailed:vector(packetBytes):sumweights 0
scalar ClientServer.client1.ipv4.ip packetDropAddressResolutionFailed:vector(packetBytes):mean -nan
scalar ClientServer.client1.ipv4.ip packetDropAddressResolutionFailed:vector(packetBytes):stddev nan
scalar ClientServer.client1.ipv4.ip packetDropAddressResolutionFailed:vector(packetBytes):min inf
scalar ClientServer.client1.ipv4.ip packetDropAddressResolutionFailed:vector(packetBytes):max -inf
scalar ClientServer.client1.ipv4.ip packetDropAddressResolutionFailed:vector(packetBytes):starttime nan
scalar ClientServer.client1.ipv4.ip packetDropAddressResolutionFailed:vector(packetBytes):endtime nan
scalar ClientServer.client1.ipv4.ip packetDropHopLimitReached:vector(packetBytes):count 0
scalar ClientServer.client1.ipv4.ip packetDropHopLimitReached:vector(packetBytes):sum 0
scalar ClientServer.client1.ipv4.ip packetDropHopLimitReached:vector(packetBytes):sumweights 0
scalar ClientServer.client1.ipv4.ip packetDropHopLimitReached:vector(packetBytes):mean -nan
scalar ClientServer.client1.ipv4.ip packetDropHopLimitReached:vector(packetBytes):stddev nan
scalar ClientServer.client1.ipv4.ip packetDropHopLimitReached:vector(packetBytes):min inf
scalar ClientServer.client1.ipv4.ip packetDropHopLimitReached:vector(packetBytes):max -inf
scalar ClientServer.client1.ipv4.ip packetDropHopLimitReached:vector(packetBytes):starttime nan
scalar ClientServer.client1.ipv4.ip packetDropHopLimitReached:vector(packetBytes):endtime nan
scalar ClientServer.client1.ipv4.ip packetDropForwardingDisabled:vector(packetBytes):count 0
scalar ClientServer.client1.ipv4.ip packetDropForwardingDisabled:vector(packetBytes):sum 0
scalar ClientServer.client1.ipv4.ip packetDropForwardingDisabled:vector(packetBytes):sumweights 0
scalar ClientServer.client1.ipv4.ip packetDropForwardingDisabled:vector(packetBytes):mean -nan
scalar ClientServer.client1.ipv4.ip packetDropForwardingDisabled:vector(packetBytes):stddev nan
scalar ClientServer.client1.ipv4.ip packetDropForwardingDisabled:vector(packetBytes):min inf
scalar ClientServer.client1.ipv4.ip packetDropForwardingDisabled:vector(packetBytes):max -inf
scalar ClientServer.client1.ipv4.ip packetDropForwardingDisabled:vector(packetBytes):starttime nan
scalar ClientServer.client1.ipv4.ip packetDropForwardingDisabled:vector(packetBytes):endtime nan
scalar ClientServer.client1.ipv4.ip packetDropLifetimeExpired:vector(packetBytes):count 0
scalar ClientServer.client1.ipv4.ip packetDropLifetimeExpired:vector(packetBytes):sum 0
scalar ClientServer.client1.ipv4.ip packetDropLifetimeExpired:vector(packetBytes):sumweights 0
scalar ClientServer.client1.ipv4.ip packetDropLifetimeExpired:vector(packetBytes):mean -nan
scalar ClientServer.client1.ipv4.ip packetDropLifetimeExpired:vector(packetBytes):stddev nan
scalar ClientServer.client1.ipv4.ip packetDropLifetimeExpired:vector(packetBytes):min inf
scalar ClientServer.client1.ipv4.ip packetDropLifetimeExpired:vector(packetBytes):max -inf
scalar ClientServer.client1.ipv4.ip packetDropLifetimeExpired:vector(packetBytes):starttime nan
scalar ClientServer.client1.ipv4.ip packetDropLifetimeExpired:vector(packetBytes):endtime nan
scalar ClientServer.client1.ipv4.ip packetDropNoInterfaceFound:vector(packetBytes):count 0
scalar ClientServer.client1.ipv4.ip packetDropNoInterfaceFound:vector(packetBytes):sum 0
scalar ClientServer.client1.ipv4.ip packetDropNoInterfaceFound:vector(packetBytes):sumweights 0
scalar ClientServer.client1.ipv4.ip packetDropNoInterfaceFound:vector(packetBytes):mean -nan
scalar ClientServer.client1.ipv4.ip packetDropNoInterfaceFound:vector(packetBytes):stddev nan
scalar ClientServer.client1.ipv4.ip packetDropNoInterfaceFound:vector(packetBytes):min inf
scalar ClientServer.client1.ipv4.ip packetDropNoInterfaceFound:vector(packetBytes):max -inf
scalar ClientServer.client1.ipv4.ip packetDropNoInterfaceFound:vector(packetBytes):starttime nan
scalar ClientServer.client1.ipv4.ip packetDropNoInterfaceFound:vector(packetBytes):endtime nan
scalar ClientServer.client1.ipv4.ip packetDropNoRouteFound:vector(packetBytes):count 0
scalar ClientServer.client1.ipv4.ip packetDropNoRouteFound:vector(packetBytes):sum 0
scalar ClientServer.client1.ipv4.ip packetDropNoRouteFound:vector(packetBytes):sumweights 0
scalar ClientServer.client1.ipv4.ip packetDropNoRouteFound:vector(packetBytes):mean -nan
scalar ClientServer.client1.ipv4.ip packetDropNoRouteFound:vector(packetBytes):stddev nan
scalar ClientServer.client1.ipv4.ip packetDropNoRouteFound:vector(packetBytes):min inf
scalar ClientServer.client1.ipv4.ip packetDropNoRouteFound:vector(packetBytes):max -inf
scalar ClientServer.client1.ipv4.ip packetDropNoRouteFound:vector(packetBytes):starttime nan
scalar ClientServer.client1.ipv4.ip packetDropNoRouteFound:vector(packetBytes):endtime nan
scalar ClientServer.client1.ipv4.ip packetDropUndefined:vector(packetBytes):count 0
scalar ClientServer.client1.ipv4.ip packetDropUndefined:vector(packetBytes):sum 0
scalar ClientServer.client1.ipv4.ip packetDropUndefined:vector(packetBytes):sumweights 0
scalar ClientServer.client1.ipv4.ip packetDropUndefined:vector(packetBytes):mean -nan
scalar ClientServer.client1.ipv4.ip packetDropUndefined:vector(packetBytes):stddev nan
scalar ClientServer.client1.ipv4.ip packetDropUndefined:vector(packetBytes):min inf
scalar ClientServer.client1.ipv4.ip packetDropUndefined:vector(packetBytes):max -inf
scalar ClientServer.client1.ipv4.ip packetDropUndefined:vector(packetBytes):starttime nan
scalar ClientServer.client1.ipv4.ip packetDropUndefined:vector(packetBytes):endtime nan
scalar ClientServer.client1.ipv4.arp arpRequestSent:vector(packetBytes):count 0
scalar ClientServer.client1.ipv4.arp arpRequestSent:vector(packetBytes):sum 0
scalar ClientServer.client1.ipv4.arp arpRequestSent:vector(packetBytes):sumweights 0
scalar ClientServer.client1.ipv4.arp arpRequestSent:vector(packetBytes):mean -nan
scalar ClientServer.client1.ipv4.arp arpRequestSent:vector(packetBytes):stddev nan
scalar ClientServer.client1.ipv4.arp arpRequestSent:vector(packetBytes):min inf
scalar ClientServer.client1.ipv4.arp arpRequestSent:vector(packetBytes):max -inf
scalar ClientServer.client1.ipv4.arp arpRequestSent:vector(packetBytes):starttime nan
scalar ClientServer.client1.ipv4.arp arpRequestSent:vector(packetBytes):endtime nan
scalar ClientServer.client1.ipv4.arp arpReplySent:vector(packetBytes):count 0
scalar ClientServer.client1.ipv4.arp arpReplySent:vector(packetBytes):sum 0
scalar ClientServer.client1.ipv4.arp arpReplySent:vector(packetBytes):sumweights 0
scalar ClientServer.client1.ipv4.arp arpReplySent:vector(packetBytes):mean -nan
scalar ClientServer.client1.ipv4.arp arpReplySent:vector(packetBytes):stddev nan
scalar ClientServer.client1.ipv4.arp arpReplySent:vector(packetBytes):min inf
scalar ClientServer.client1.ipv4.arp arpReplySent:vector(packetBytes):max -inf
scalar ClientServer.client1.ipv4.arp arpReplySent:vector(packetBytes):starttime nan
scalar ClientServer.client1.ipv4.arp arpReplySent:vector(packetBytes):endtime nan
scalar ClientServer.client1.udp packetSent:vector(packetBytes):count 0
scalar ClientServer.client1.udp packetSent:vector(packetBytes):sum 0
scalar ClientServer.client1.udp packetSent:vector(packetBytes):sumweights 0
scalar ClientServer.client1.udp packetSent:vector(packetBytes):mean -nan
scalar ClientServer.client1.udp packetSent:vector(packetBytes):stddev nan
scalar ClientServer.client1.udp packetSent:vector(packetBytes):min inf
scalar ClientServer.client1.udp packetSent:vector(packetBytes):max -inf
scalar ClientServer.client1.udp packetSent:vector(packetBytes):starttime nan
scalar ClientServer.client1.udp packetSent:vector(packetBytes):endtime nan
scalar ClientServer.client1.udp packetReceived:vector(packetBytes):count 0
scalar ClientServer.client1.udp packetReceived:vector(packetBytes):sum 0
scalar ClientServer.client1.udp packetReceived:vector(packetBytes):sumweights 0
scalar ClientServer.client1.udp packetReceived:vector(packetBytes):mean -nan
scalar ClientServer.client1.udp packetReceived:vector(packetBytes):stddev nan
scalar ClientServer.client1.udp packetReceived:vector(packetBytes):min inf
scalar ClientServer.client1.udp packetReceived:vector(packetBytes):max -inf
scalar ClientServer.client1.udp packetReceived:vector(packetBytes):starttime nan
scalar ClientServer.client1.udp packetReceived:vector(packetBytes):endtime nan
scalar ClientServer.client1.udp passedUpPk:vector(count):count 1
scalar ClientServer.client1.udp passedUpPk:vector(count):sum 0
scalar ClientServer.client1.udp passedUpPk:vector(count):sumweights 1
scalar ClientServer.client1.udp passedUpPk:vector(count):mean 0
scalar ClientServer.client1.udp passedUpPk:vector(count):stddev nan
scalar ClientServer.client1.udp passedUpPk:vector(count):min 0
scalar ClientServer.client1.udp passedUpPk:vector(count):max 0
scalar ClientServer.client1.udp passedUpPk:vector(count):starttime 0
scalar ClientServer.client1.udp passedUpPk:vector(count):endtime 0
scalar ClientServer.client1.udp droppedPkWrongPort:vector(count):count 1
scalar ClientServer.client1.udp droppedPkWrongPort:vector(count):sum 0
scalar ClientServer.client1.udp droppedPkWrongPort:vector(count):sumweights 1
scalar ClientServer.client1.udp droppedPkWrongPort:vector(count):mean 0
scalar ClientServer.client1.udp droppedPkWrongPort:vector(count):stddev nan
scalar ClientServer.client1.udp droppedPkWrongPort:vector(count):min 0
scalar ClientServer.client1.udp droppedPkWrongPort:vector(count):max 0
scalar ClientServer.client1.udp droppedPkWrongPort:vector(count):starttime 0
scalar ClientServer.client1.udp droppedPkWrongPort:vector(count):endtime 0
scalar ClientServer.client1.udp droppedPkBadChecksum:vector(count):count 1
scalar ClientServer.client1.udp droppedPkBadChecksum:vector(count):sum 0
scalar ClientServer.client1.udp droppedPkBadChecksum:vector(count):sumweights 1
scalar ClientServer.client1.udp droppedPkBadChecksum:vector(count):mean 0
scalar ClientServer.client1.udp droppedPkBadChecksum:vector(count):stddev nan
scalar ClientServer.client1.udp droppedPkBadChecksum:vector(count):min 0
scalar ClientServer.client1.udp droppedPkBadChecksum:vector(count):max 0
scalar ClientServer.client1.udp droppedPkBadChecksum:vector(count):starttime 0
scalar ClientServer.client1.udp droppedPkBadChecksum:vector(count):endtime 0
scalar ClientServer.client1.app[0] packetReceived:vector(packetBytes):count 0
scalar ClientServer.client1.app[0] packetReceived:vector(packetBytes):sum 0
scalar ClientServer.client1.app[0] packetReceived:vector(packetBytes):sumweights 0
scalar ClientServer.client1.app[0] packetReceived:vector(packetBytes):mean -nan
scalar ClientServer.client1.app[0] packetReceived:vector(packetBytes):stddev nan
scalar ClientServer.client1.app[0] packetReceived:vector(packetBytes):min inf
scalar ClientServer.client1.app[0] packetReceived:vector(packetBytes):max -inf
scalar ClientServer.client1.app[0] packetReceived:vector(packetBytes):starttime nan
scalar ClientServer.client1.app[0] packetReceived:vector(packetBytes):endtime nan
scalar ClientServer.client1.app[0] packetSent:vector(packetBytes):count 1
scalar ClientServer.client1.app[0] packetSent:vector(packetBytes):sum 1000000000
scalar ClientServer.client1.app[0] packetSent:vector(packetBytes):sumweights 1
scalar ClientServer.client1.app[0] packetSent:vector(packetBytes):mean 1000000000
scalar ClientServer.client1.app[0] packetSent:vector(packetBytes):stddev nan
scalar ClientServer.client1.app[0] packetSent:vector(packetBytes):min 1000000000
scalar ClientServer.client1.app[0] packetSent:vector(packetBytes):max 1000000000
scalar ClientServer.client1.app[0] packetSent:vector(packetBytes):starttime 1
scalar ClientServer.client1.app[0] packetSent:vector(packetBytes):endtime 1
scalar ClientServer.client1.app[0] endToEndDelay:vector:count 0
scalar ClientServer.client1.app[0] endToEndDelay:vector:sum 0
scalar ClientServer.client1.app[0] endToEndDelay:vector:sumweights 0
scalar ClientServer.client1.app[0] endToEndDelay:vector:mean -nan
scalar ClientServer.client1.app[0] endToEndDelay:vector:stddev nan
scalar ClientServer.client1.app[0] endToEndDelay:vector:min inf
scalar ClientServer.client1.app[0] endToEndDelay:vector:max -inf
scalar ClientServer.client1.app[0] endToEndDelay:vector:starttime nan
scalar ClientServer.client1.app[0] endToEndDelay:vector:endtime nan
scalar ClientServer.server.lo[0].lo rcvdPkFromHl:vector(packetBytes):count 0
scalar ClientServer.server.lo[0].lo rcvdPkFromHl:vector(packetBytes):sum 0
scalar ClientServer.server.lo[0].lo rcvdPkFromHl:vector(packetBytes):sumweights 0
scalar ClientServer.server.lo[0].lo rcvdPkFromHl:vector(packetBytes):mean -nan
scalar ClientServer.server.lo[0].lo rcvdPkFromHl:vector(packetBytes):stddev nan
scalar ClientServer.server.lo[0].lo rcvdPkFromHl:vector(packetBytes):min inf
scalar ClientServer.server.lo[0].lo rcvdPkFromHl:vector(packetBytes):max -inf
scalar ClientServer.server.lo[0].lo rcvdPkFromHl:vector(packetBytes):starttime nan
scalar ClientServer.server.lo[0].lo rcvdPkFromHl:vector(packetBytes):endtime nan
scalar ClientServer.server.lo[0].lo passedUpPk:vector(packetBytes):count 0
scalar ClientServer.server.lo[0].lo passedUpPk:vector(packetBytes):sum 0
scalar ClientServer.server.lo[0].lo passedUpPk:vector(packetBytes):sumweights 0
scalar ClientServer.server.lo[0].lo passedUpPk:vector(packetBytes):mean -nan
scalar ClientServer.server.lo[0].lo passedUpPk:vector(packetBytes):stddev nan
scalar ClientServer.server.lo[0].lo passedUpPk:vector(packetBytes):min inf
scalar ClientServer.server.lo[0].lo passedUpPk:vector(packetBytes):max -inf
scalar ClientServer.server.lo[0].lo passedUpPk:vector(packetBytes):starttime nan
scalar ClientServer.server.lo[0].lo passedUpPk:vector(packetBytes):endtime nan
scalar ClientServer.server.lo[0] packetDropInterfaceDown:vector(packetBytes):count 0
scalar ClientServer.server.lo[0] packetDropInterfaceDown:vector(packetBytes):sum 0
scalar ClientServer.server.lo[0] packetDropInterfaceDown:vector(packetBytes):sumweights 0
scalar ClientServer.server.lo[0] packetDropInterfaceDown:vector(packetBytes):mean -nan
scalar ClientServer.server.lo[0] packetDropInterfaceDown:vector(packetBytes):stddev nan
scalar ClientServer.server.lo[0] packetDropInterfaceDown:vector(packetBytes):min inf
scalar ClientServer.server.lo[0] packetDropInterfaceDown:vector(packetBytes):max -inf
scalar ClientServer.server.lo[0] packetDropInterfaceDown:vector(packetBytes):starttime nan
scalar ClientServer.server.lo[0] packetDropInterfaceDown:vector(packetBytes):endtime nan
scalar ClientServer.server.lo[0] packetDropNoCarrier:vector(packetBytes):count 0
scalar ClientServer.server.lo[0] packetDropNoCarrier:vector(packetBytes):sum 0
scalar ClientServer.server.lo[0] packetDropNoCarrier:vector(packetBytes):sumweights 0
scalar ClientServer.server.lo[0] packetDropNoCarrier:vector(packetBytes):mean -nan
scalar ClientServer.server.lo[0] packetDropNoCarrier:vector(packetBytes):stddev nan
scalar ClientServer.server.lo[0] packetDropNoCarrier:vector(packetBytes):min inf
scalar ClientServer.server.lo[0] packetDropNoCarrier:vector(packetBytes):max -inf
scalar ClientServer.server.lo[0] packetDropNoCarrier:vector(packetBytes):starttime nan
scalar ClientServer.server.lo[0] packetDropNoCarrier:vector(packetBytes):endtime nan
scalar ClientServer.server.ppp[0].queue queueLength:vector:count 208962
scalar ClientServer.server.ppp[0].queue queueLength:vector:sum 0
scalar ClientServer.server.ppp[0].queue queueLength:vector:sumweights 208962
scalar ClientServer.server.ppp[0].queue queueLength:vector:mean 0
scalar ClientServer.server.ppp[0].queue queueLength:vector:stddev 0
scalar ClientServer.server.ppp[0].queue queueLength:vector:min 0
scalar ClientServer.server.ppp[0].queue queueLength:vector:max 0
scalar ClientServer.server.ppp[0].queue queueLength:vector:starttime 0
scalar ClientServer.server.ppp[0].queue queueLength:vector:endtime 99.999737696711023
scalar ClientServer.server.ppp[0].queue queueBitLength:vector:count 208962
scalar ClientServer.server.ppp[0].queue queueBitLength:vector:sum 0
scalar ClientServer.server.ppp[0].queue queueBitLength:vector:sumweights 208962
scalar ClientServer.server.ppp[0].queue queueBitLength:vector:mean 0
scalar ClientServer.server.ppp[0].queue queueBitLength:vector:stddev 0
scalar ClientServer.server.ppp[0].queue queueBitLength:vector:min 0
scalar ClientServer.server.ppp[0].queue queueBitLength:vector:max 0
scalar ClientServer.server.ppp[0].queue queueBitLength:vector:starttime 0
scalar ClientServer.server.ppp[0].queue queueBitLength:vector:endtime 99.999737696711023
scalar ClientServer.server.ppp[0].queue queueingTime:vector:count 208957
scalar ClientServer.server.ppp[0].queue queueingTime:vector:sum 0
scalar ClientServer.server.ppp[0].queue queueingTime:vector:sumweights 208957
scalar ClientServer.server.ppp[0].queue queueingTime:vector:mean 0
scalar ClientServer.server.ppp[0].queue queueingTime:vector:stddev 0
scalar ClientServer.server.ppp[0].queue queueingTime:vector:min 0
scalar ClientServer.server.ppp[0].queue queueingTime:vector:max 0
scalar ClientServer.server.ppp[0].queue queueingTime:vector:starttime 0.10004090000000002
scalar ClientServer.server.ppp[0].queue queueingTime:vector:endtime 99.999737696711023
scalar ClientServer.server.ppp[0].queue incomingPacketLengths:vector:count 208957
scalar ClientServer.server.ppp[0].queue incomingPacketLengths:vector:sum 66866272
scalar ClientServer.server.ppp[0].queue incomingPacketLengths:vector:sumweights 208957
scalar ClientServer.server.ppp[0].queue incomingPacketLengths:vector:mean 320.00015314155542
scalar ClientServer.server.ppp[0].queue incomingPacketLengths:vector:stddev 0.070003783951854553
scalar ClientServer.server.ppp[0].queue incomingPacketLengths:vector:min 320
scalar ClientServer.server.ppp[0].queue incomingPacketLengths:vector:max 352
scalar ClientServer.server.ppp[0].queue incomingPacketLengths:vector:starttime 0.10004090000000002
scalar ClientServer.server.ppp[0].queue incomingPacketLengths:vector:endtime 99.999737696711023
scalar ClientServer.server.ppp[0].queue incomingDataRate:vector:count 2115
scalar ClientServer.server.ppp[0].queue incomingDataRate:vector:sum 1433665048.4328613
scalar ClientServer.server.ppp[0].queue incomingDataRate:vector:sumweights 2115
scalar ClientServer.server.ppp[0].queue incomingDataRate:vector:mean 677855.81486187293
scalar ClientServer.server.ppp[0].queue incomingDataRate:vector:stddev 74222.872342088929
scalar ClientServer.server.ppp[0].queue incomingDataRate:vector:min 0
scalar ClientServer.server.ppp[0].queue incomingDataRate:vector:max 692573.95086144726
scalar ClientServer.server.ppp[0].queue incomingDataRate:vector:starttime 0.10000000000000001
scalar ClientServer.server.ppp[0].queue incomingDataRate:vector:endtime 100
scalar ClientServer.server.ppp[0].queue outgoingPacketLengths:vector:count 208957
scalar ClientServer.server.ppp[0].queue outgoingPacketLengths:vector:sum 66866272
scalar ClientServer.server.ppp[0].queue outgoingPacketLengths:vector:sumweights 208957
scalar ClientServer.server.ppp[0].queue outgoingPacketLengths:vector:mean 320.00015314155542
scalar ClientServer.server.ppp[0].queue outgoingPacketLengths:vector:stddev 0.070003783951854553
scalar ClientServer.server.ppp[0].queue outgoingPacketLengths:vector:min 320
scalar ClientServer.server.ppp[0].queue outgoingPacketLengths:vector:max 352
scalar ClientServer.server.ppp[0].queue outgoingPacketLengths:vector:starttime 0.10004090000000002
scalar ClientServer.server.ppp[0].queue outgoingPacketLengths:vector:endtime 99.999737696711023
scalar ClientServer.server.ppp[0].queue outgoingDataRate:vector:count 2115
scalar ClientServer.server.ppp[0].queue outgoingDataRate:vector:sum 1433665048.4328613
scalar ClientServer.server.ppp[0].queue outgoingDataRate:vector:sumweights 2115
scalar ClientServer.server.ppp[0].queue outgoingDataRate:vector:mean 677855.81486187293
scalar ClientServer.server.ppp[0].queue outgoingDataRate:vector:stddev 74222.872342088929
scalar ClientServer.server.ppp[0].queue outgoingDataRate:vector:min 0
scalar ClientServer.server.ppp[0].queue outgoingDataRate:vector:max 692573.95086144726
scalar ClientServer.server.ppp[0].queue outgoingDataRate:vector:starttime 0.10000000000000001
scalar ClientServer.server.ppp[0].queue outgoingDataRate:vector:endtime 100
scalar ClientServer.server.ppp[0].queue droppedPacketLengthsQueueOverflow:vector:count 0
scalar ClientServer.server.ppp[0].queue droppedPacketLengthsQueueOverflow:vector:sum 0
scalar ClientServer.server.ppp[0].queue droppedPacketLengthsQueueOverflow:vector:sumweights 0
scalar ClientServer.server.ppp[0].queue droppedPacketLengthsQueueOverflow:vector:mean -nan
scalar ClientServer.server.ppp[0].queue droppedPacketLengthsQueueOverflow:vector:stddev nan
scalar ClientServer.server.ppp[0].queue droppedPacketLengthsQueueOverflow:vector:min inf
scalar ClientServer.server.ppp[0].queue droppedPacketLengthsQueueOverflow:vector:max -inf
scalar ClientServer.server.ppp[0].queue droppedPacketLengthsQueueOverflow:vector:starttime nan
scalar ClientServer.server.ppp[0].queue droppedPacketLengthsQueueOverflow:vector:endtime nan
scalar ClientServer.server.ppp[0].queue flowQueueingTime:vector:count 0
[...]
scalar ClientServer.client1.tcp.conn-4 markingProb:vector:max -inf
scalar ClientServer.client1.tcp.conn-4 markingProb:vector:starttime nan
scalar ClientServer.client1.tcp.conn-4 markingProb:vector:endtime nan
scalar ClientServer.server.tcp.conn-5 state:vector:count 2
scalar ClientServer.server.tcp.conn-5 state:vector:sum 9
scalar ClientServer.server.tcp.conn-5 state:vector:sumweights 2
scalar ClientServer.server.tcp.conn-5 state:vector:mean 4.5
scalar ClientServer.server.tcp.conn-5 state:vector:stddev 0.70710678118654757
scalar ClientServer.server.tcp.conn-5 state:vector:min 4
scalar ClientServer.server.tcp.conn-5 state:vector:max 5
scalar ClientServer.server.tcp.conn-5 state:vector:starttime 0.10004090000000002
scalar ClientServer.server.tcp.conn-5 state:vector:endtime 0.10011950000000003
scalar ClientServer.server.tcp.conn-5 sndWnd:vector:count 2
scalar ClientServer.server.tcp.conn-5 sndWnd:vector:sum 15008
scalar ClientServer.server.tcp.conn-5 sndWnd:vector:sumweights 2
scalar ClientServer.server.tcp.conn-5 sndWnd:vector:mean 7504
scalar ClientServer.server.tcp.conn-5 sndWnd:vector:stddev 0
scalar ClientServer.server.tcp.conn-5 sndWnd:vector:min 7504
scalar ClientServer.server.tcp.conn-5 sndWnd:vector:max 7504
scalar ClientServer.server.tcp.conn-5 sndWnd:vector:starttime 0.10004090000000002
scalar ClientServer.server.tcp.conn-5 sndWnd:vector:endtime 0.10011950000000003
scalar ClientServer.server.tcp.conn-5 rcvWnd:vector:count 208957
scalar ClientServer.server.tcp.conn-5 rcvWnd:vector:sum 1568010112
scalar ClientServer.server.tcp.conn-5 rcvWnd:vector:sumweights 208957
scalar ClientServer.server.tcp.conn-5 rcvWnd:vector:mean 7503.984609273678
scalar ClientServer.server.tcp.conn-5 rcvWnd:vector:stddev 5.2438528220200906
scalar ClientServer.server.tcp.conn-5 rcvWnd:vector:min 5360
scalar ClientServer.server.tcp.conn-5 rcvWnd:vector:max 7504
scalar ClientServer.server.tcp.conn-5 rcvWnd:vector:starttime 0.10004090000000002
scalar ClientServer.server.tcp.conn-5 rcvWnd:vector:endtime 99.999737696711023
scalar ClientServer.server.tcp.conn-5 rcvAdv:vector:count 208958
scalar ClientServer.server.tcp.conn-5 rcvAdv:vector:sum 11708216881832
scalar ClientServer.server.tcp.conn-5 rcvAdv:vector:sumweights 208958
scalar ClientServer.server.tcp.conn-5 rcvAdv:vector:mean 56031436.37396989
scalar ClientServer.server.tcp.conn-5 rcvAdv:vector:stddev 32332121.908128444
scalar ClientServer.server.tcp.conn-5 rcvAdv:vector:min 32504
scalar ClientServer.server.tcp.conn-5 rcvAdv:vector:max 112032384
scalar ClientServer.server.tcp.conn-5 rcvAdv:vector:starttime 0.10004090000000002
scalar ClientServer.server.tcp.conn-5 rcvAdv:vector:endtime 99.999737696711023
scalar ClientServer.server.tcp.conn-5 sndNxt:vector:count 0
scalar ClientServer.server.tcp.conn-5 sndNxt:vector:sum 0
scalar ClientServer.server.tcp.conn-5 sndNxt:vector:sumweights 0
scalar ClientServer.server.tcp.conn-5 sndNxt:vector:mean -nan
scalar ClientServer.server.tcp.conn-5 sndNxt:vector:stddev nan
scalar ClientServer.server.tcp.conn-5 sndNxt:vector:min inf
scalar ClientServer.server.tcp.conn-5 sndNxt:vector:max -inf
scalar ClientServer.server.tcp.conn-5 sndNxt:vector:starttime nan
scalar ClientServer.server.tcp.conn-5 sndNxt:vector:endtime nan
scalar ClientServer.server.tcp.conn-5 sndAck:vector:count 208957
scalar ClientServer.server.tcp.conn-5 sndAck:vector:sum 11706648839216
scalar ClientServer.server.tcp.conn-5 sndAck:vector:sumweights 208957
scalar ClientServer.server.tcp.conn-5 sndAck:vector:mean 56024200.381973326
scalar ClientServer.server.tcp.conn-5 sndAck:vector:stddev 32331967.164399467
scalar ClientServer.server.tcp.conn-5 sndAck:vector:min 25000
scalar ClientServer.server.tcp.conn-5 sndAck:vector:max 112024880
scalar ClientServer.server.tcp.conn-5 sndAck:vector:starttime 0.10004090000000002
scalar ClientServer.server.tcp.conn-5 sndAck:vector:endtime 99.999737696711023
scalar ClientServer.server.tcp.conn-5 rcvSeq:vector:count 208957
scalar ClientServer.server.tcp.conn-5 rcvSeq:vector:sum 11706635402232
scalar ClientServer.server.tcp.conn-5 rcvSeq:vector:sumweights 208957
scalar ClientServer.server.tcp.conn-5 rcvSeq:vector:mean 56024136.076953635
scalar ClientServer.server.tcp.conn-5 rcvSeq:vector:stddev 32331967.124921728
scalar ClientServer.server.tcp.conn-5 rcvSeq:vector:min 25000
scalar ClientServer.server.tcp.conn-5 rcvSeq:vector:max 112024344
scalar ClientServer.server.tcp.conn-5 rcvSeq:vector:starttime 0.10011950000000003
scalar ClientServer.server.tcp.conn-5 rcvSeq:vector:endtime 99.999737696711023
scalar ClientServer.server.tcp.conn-5 rcvAck:vector:count 208957
scalar ClientServer.server.tcp.conn-5 rcvAck:vector:sum 5226223527
scalar ClientServer.server.tcp.conn-5 rcvAck:vector:sumweights 208957
scalar ClientServer.server.tcp.conn-5 rcvAck:vector:mean 25011
scalar ClientServer.server.tcp.conn-5 rcvAck:vector:stddev 0
scalar ClientServer.server.tcp.conn-5 rcvAck:vector:min 25011
scalar ClientServer.server.tcp.conn-5 rcvAck:vector:max 25011
scalar ClientServer.server.tcp.conn-5 rcvAck:vector:starttime 0.10011950000000003
scalar ClientServer.server.tcp.conn-5 rcvAck:vector:endtime 99.999737696711023
scalar ClientServer.server.tcp.conn-5 unacked:vector:count 1
scalar ClientServer.server.tcp.conn-5 unacked:vector:sum 0
scalar ClientServer.server.tcp.conn-5 unacked:vector:sumweights 1
scalar ClientServer.server.tcp.conn-5 unacked:vector:mean 0
scalar ClientServer.server.tcp.conn-5 unacked:vector:stddev nan
scalar ClientServer.server.tcp.conn-5 unacked:vector:min 0
scalar ClientServer.server.tcp.conn-5 unacked:vector:max 0
scalar ClientServer.server.tcp.conn-5 unacked:vector:starttime 0.10011950000000003
scalar ClientServer.server.tcp.conn-5 unacked:vector:endtime 0.10011950000000003
scalar ClientServer.server.tcp.conn-5 dupAcks:vector:count 208955
scalar ClientServer.server.tcp.conn-5 dupAcks:vector:sum 0
scalar ClientServer.server.tcp.conn-5 dupAcks:vector:sumweights 208955
scalar ClientServer.server.tcp.conn-5 dupAcks:vector:mean 0
scalar ClientServer.server.tcp.conn-5 dupAcks:vector:stddev 0
scalar ClientServer.server.tcp.conn-5 dupAcks:vector:min 0
scalar ClientServer.server.tcp.conn-5 dupAcks:vector:max 0
scalar ClientServer.server.tcp.conn-5 dupAcks:vector:starttime 1.0004665000000001
scalar ClientServer.server.tcp.conn-5 dupAcks:vector:endtime 99.999737696711023
scalar ClientServer.server.tcp.conn-5 pipe:vector:count 0
scalar ClientServer.server.tcp.conn-5 pipe:vector:sum 0
scalar ClientServer.server.tcp.conn-5 pipe:vector:sumweights 0
scalar ClientServer.server.tcp.conn-5 pipe:vector:mean -nan
scalar ClientServer.server.tcp.conn-5 pipe:vector:stddev nan
scalar ClientServer.server.tcp.conn-5 pipe:vector:min inf
scalar ClientServer.server.tcp.conn-5 pipe:vector:max -inf
scalar ClientServer.server.tcp.conn-5 pipe:vector:starttime nan
scalar ClientServer.server.tcp.conn-5 pipe:vector:endtime nan
scalar ClientServer.server.tcp.conn-5 sndSacks:vector:count 0
scalar ClientServer.server.tcp.conn-5 sndSacks:vector:sum 0
scalar ClientServer.server.tcp.conn-5 sndSacks:vector:sumweights 0
scalar ClientServer.server.tcp.conn-5 sndSacks:vector:mean -nan
scalar ClientServer.server.tcp.conn-5 sndSacks:vector:stddev nan
scalar ClientServer.server.tcp.conn-5 sndSacks:vector:min inf
scalar ClientServer.server.tcp.conn-5 sndSacks:vector:max -inf
scalar ClientServer.server.tcp.conn-5 sndSacks:vector:starttime nan
scalar ClientServer.server.tcp.conn-5 sndSacks:vector:endtime nan
scalar ClientServer.server.tcp.conn-5 rcvSacks:vector:count 0
scalar ClientServer.server.tcp.conn-5 rcvSacks:vector:sum 0
scalar ClientServer.server.tcp.conn-5 rcvSacks:vector:sumweights 0
scalar ClientServer.server.tcp.conn-5 rcvSacks:vector:mean -nan
scalar ClientServer.server.tcp.conn-5 rcvSacks:vector:stddev nan
scalar ClientServer.server.tcp.conn-5 rcvSacks:vector:min inf
scalar ClientServer.server.tcp.conn-5 rcvSacks:vector:max -inf
scalar ClientServer.server.tcp.conn-5 rcvSacks:vector:starttime nan
scalar ClientServer.server.tcp.conn-5 rcvSacks:vector:endtime nan
scalar ClientServer.server.tcp.conn-5 rcvOooSeg:vector:count 30646
scalar ClientServer.server.tcp.conn-5 rcvOooSeg:vector:sum 469603981
scalar ClientServer.server.tcp.conn-5 rcvOooSeg:vector:sumweights 30646
scalar ClientServer.server.tcp.conn-5 rcvOooSeg:vector:mean 15323.5
scalar ClientServer.server.tcp.conn-5 rcvOooSeg:vector:stddev 8846.8825111824935
scalar ClientServer.server.tcp.conn-5 rcvOooSeg:vector:min 1
scalar ClientServer.server.tcp.conn-5 rcvOooSeg:vector:max 30646
scalar ClientServer.server.tcp.conn-5 rcvOooSeg:vector:starttime 1.0107651000000002
scalar ClientServer.server.tcp.conn-5 rcvOooSeg:vector:endtime 99.98481289671102
scalar ClientServer.server.tcp.conn-5 rcvNASeg:vector:count 1
scalar ClientServer.server.tcp.conn-5 rcvNASeg:vector:sum 1
scalar ClientServer.server.tcp.conn-5 rcvNASeg:vector:sumweights 1
scalar ClientServer.server.tcp.conn-5 rcvNASeg:vector:mean 1
scalar ClientServer.server.tcp.conn-5 rcvNASeg:vector:stddev nan
scalar ClientServer.server.tcp.conn-5 rcvNASeg:vector:min 1
scalar ClientServer.server.tcp.conn-5 rcvNASeg:vector:max 1
scalar ClientServer.server.tcp.conn-5 rcvNASeg:vector:starttime 2.5599160967110004
scalar ClientServer.server.tcp.conn-5 rcvNASeg:vector:endtime 2.5599160967110004
scalar ClientServer.server.tcp.conn-5 sackedBytes:vector:count 0
scalar ClientServer.server.tcp.conn-5 sackedBytes:vector:sum 0
scalar ClientServer.server.tcp.conn-5 sackedBytes:vector:sumweights 0
scalar ClientServer.server.tcp.conn-5 sackedBytes:vector:mean -nan
scalar ClientServer.server.tcp.conn-5 sackedBytes:vector:stddev nan
scalar ClientServer.server.tcp.conn-5 sackedBytes:vector:min inf
scalar ClientServer.server.tcp.conn-5 sackedBytes:vector:max -inf
scalar ClientServer.server.tcp.conn-5 sackedBytes:vector:starttime nan
scalar ClientServer.server.tcp.conn-5 sackedBytes:vector:endtime nan
scalar ClientServer.server.tcp.conn-5 tcpRcvQueueBytes:vector:count 417912
scalar ClientServer.server.tcp.conn-5 tcpRcvQueueBytes:vector:sum 197135440
scalar ClientServer.server.tcp.conn-5 tcpRcvQueueBytes:vector:sumweights 417912
scalar ClientServer.server.tcp.conn-5 tcpRcvQueueBytes:vector:mean 471.7151936292808
scalar ClientServer.server.tcp.conn-5 tcpRcvQueueBytes:vector:stddev 1309.9513087846444
scalar ClientServer.server.tcp.conn-5 tcpRcvQueueBytes:vector:min 0
scalar ClientServer.server.tcp.conn-5 tcpRcvQueueBytes:vector:max 5896
scalar ClientServer.server.tcp.conn-5 tcpRcvQueueBytes:vector:starttime 0.10004090000000002
scalar ClientServer.server.tcp.conn-5 tcpRcvQueueBytes:vector:endtime 99.999737696711023
scalar ClientServer.server.tcp.conn-5 tcpRcvQueueDrops:vector:count 0
scalar ClientServer.server.tcp.conn-5 tcpRcvQueueDrops:vector:sum 0
scalar ClientServer.server.tcp.conn-5 tcpRcvQueueDrops:vector:sumweights 0
scalar ClientServer.server.tcp.conn-5 tcpRcvQueueDrops:vector:mean -nan
scalar ClientServer.server.tcp.conn-5 tcpRcvQueueDrops:vector:stddev nan
scalar ClientServer.server.tcp.conn-5 tcpRcvQueueDrops:vector:min inf
scalar ClientServer.server.tcp.conn-5 tcpRcvQueueDrops:vector:max -inf
scalar ClientServer.server.tcp.conn-5 tcpRcvQueueDrops:vector:starttime nan
scalar ClientServer.server.tcp.conn-5 tcpRcvQueueDrops:vector:endtime nan
scalar ClientServer.server.tcp.conn-5 tcpRcvPayloadBytes:vector:count 208957
scalar ClientServer.server.tcp.conn-5 tcpRcvPayloadBytes:vector:sum 112000416
scalar ClientServer.server.tcp.conn-5 tcpRcvPayloadBytes:vector:sumweights 208957
scalar ClientServer.server.tcp.conn-5 tcpRcvPayloadBytes:vector:mean 535.99743487894636
scalar ClientServer.server.tcp.conn-5 tcpRcvPayloadBytes:vector:stddev 1.1725633819627841
scalar ClientServer.server.tcp.conn-5 tcpRcvPayloadBytes:vector:min 0
scalar ClientServer.server.tcp.conn-5 tcpRcvPayloadBytes:vector:max 536
scalar ClientServer.server.tcp.conn-5 tcpRcvPayloadBytes:vector:starttime 0.10011950000000003
scalar ClientServer.server.tcp.conn-5 tcpRcvPayloadBytes:vector:endtime 99.999737696711023
scalar ClientServer.server.tcp.conn-5 cwnd:vector:count 0
scalar ClientServer.server.tcp.conn-5 cwnd:vector:sum 0
scalar ClientServer.server.tcp.conn-5 cwnd:vector:sumweights 0
scalar ClientServer.server.tcp.conn-5 cwnd:vector:mean -nan
scalar ClientServer.server.tcp.conn-5 cwnd:vector:stddev nan
scalar ClientServer.server.tcp.conn-5 cwnd:vector:min inf
scalar ClientServer.server.tcp.conn-5 cwnd:vector:max -inf
scalar ClientServer.server.tcp.conn-5 cwnd:vector:starttime nan
scalar ClientServer.server.tcp.conn-5 cwnd:vector:endtime nan
scalar ClientServer.server.tcp.conn-5 ssthresh:vector:count 0
scalar ClientServer.server.tcp.conn-5 ssthresh:vector:sum 0
scalar ClientServer.server.tcp.conn-5 ssthresh:vector:sumweights 0
scalar ClientServer.server.tcp.conn-5 ssthresh:vector:mean -nan
scalar ClientServer.server.tcp.conn-5 ssthresh:vector:stddev nan
scalar ClientServer.server.tcp.conn-5 ssthresh:vector:min inf
scalar ClientServer.server.tcp.conn-5 ssthresh:vector:max -inf
scalar ClientServer.server.tcp.conn-5 ssthresh:vector:starttime nan
scalar ClientServer.server.tcp.conn-5 ssthresh:vector:endtime nan
scalar ClientServer.server.tcp.conn-5 rtt:vector:count 0
scalar ClientServer.server.tcp.conn-5 rtt:vector:sum 0
scalar ClientServer.server.tcp.conn-5 rtt:vector:sumweights 0
scalar ClientServer.server.tcp.conn-5 rtt:vector:mean -nan
scalar ClientServer.server.tcp.conn-5 rtt:vector:stddev nan
scalar ClientServer.server.tcp.conn-5 rtt:vector:min inf
scalar ClientServer.server.tcp.conn-5 rtt:vector:max -inf
scalar ClientServer.server.tcp.conn-5 rtt:vector:starttime nan
scalar ClientServer.server.tcp.conn-5 rtt:vector:endtime nan
scalar ClientServer.server.tcp.conn-5 srtt:vector:count 0
scalar ClientServer.server.tcp.conn-5 srtt:vector:sum 0
scalar ClientServer.server.tcp.conn-5 srtt:vector:sumweights 0
scalar ClientServer.server.tcp.conn-5 srtt:vector:mean -nan
scalar ClientServer.server.tcp.conn-5 srtt:vector:stddev nan
scalar ClientServer.server.tcp.conn-5 srtt:vector:min inf
scalar ClientServer.server.tcp.conn-5 srtt:vector:max -inf
scalar ClientServer.server.tcp.conn-5 srtt:vector:starttime nan
scalar ClientServer.server.tcp.conn-5 srtt:vector:endtime nan
scalar ClientServer.server.tcp.conn-5 rttvar:vector:count 0
scalar ClientServer.server.tcp.conn-5 rttvar:vector:sum 0
scalar ClientServer.server.tcp.conn-5 rttvar:vector:sumweights 0
scalar ClientServer.server.tcp.conn-5 rttvar:vector:mean -nan
scalar ClientServer.server.tcp.conn-5 rttvar:vector:stddev nan
scalar ClientServer.server.tcp.conn-5 rttvar:vector:min inf
scalar ClientServer.server.tcp.conn-5 rttvar:vector:max -inf
scalar ClientServer.server.tcp.conn-5 rttvar:vector:starttime nan
scalar ClientServer.server.tcp.conn-5 rttvar:vector:endtime nan
scalar ClientServer.server.tcp.conn-5 rto:vector:count 0
scalar ClientServer.server.tcp.conn-5 rto:vector:sum 0
scalar ClientServer.server.tcp.conn-5 rto:vector:sumweights 0
scalar ClientServer.server.tcp.conn-5 rto:vector:mean -nan
scalar ClientServer.server.tcp.conn-5 rto:vector:stddev nan
scalar ClientServer.server.tcp.conn-5 rto:vector:min inf
scalar ClientServer.server.tcp.conn-5 rto:vector:max -inf
scalar ClientServer.server.tcp.conn-5 rto:vector:starttime nan
scalar ClientServer.server.tcp.conn-5 rto:vector:endtime nan
scalar ClientServer.server.tcp.conn-5 numRtos:vector:count 0
scalar ClientServer.server.tcp.conn-5 numRtos:vector:sum 0
scalar ClientServer.server.tcp.conn-5 numRtos:vector:sumweights 0
scalar ClientServer.server.tcp.conn-5 numRtos:vector:mean -nan
scalar ClientServer.server.tcp.conn-5 numRtos:vector:stddev nan
scalar ClientServer.server.tcp.conn-5 numRtos:vector:min inf
scalar ClientServer.server.tcp.conn-5 numRtos:vector:max -inf
scalar ClientServer.server.tcp.conn-5 numRtos:vector:starttime nan
scalar ClientServer.server.tcp.conn-5 numRtos:vector:endtime nan
scalar ClientServer.server.tcp.conn-5 load:vector:count 0
scalar ClientServer.server.tcp.conn-5 load:vector:sum 0
scalar ClientServer.server.tcp.conn-5 load:vector:sumweights 0
scalar ClientServer.server.tcp.conn-5 load:vector:mean -nan
scalar ClientServer.server.tcp.conn-5 load:vector:stddev nan
scalar ClientServer.server.tcp.conn-5 load:vector:min inf
scalar ClientServer.server.tcp.conn-5 load:vector:max -inf
scalar ClientServer.server.tcp.conn-5 load:vector:starttime nan
scalar ClientServer.server.tcp.conn-5 load:vector:endtime nan
scalar ClientServer.server.tcp.conn-5 calcLoad:vector:count 0
scalar ClientServer.server.tcp.conn-5 calcLoad:vector:sum 0
scalar ClientServer.server.tcp.conn-5 calcLoad:vector:sumweights 0
scalar ClientServer.server.tcp.conn-5 calcLoad:vector:mean -nan
scalar ClientServer.server.tcp.conn-5 calcLoad:vector:stddev nan
scalar ClientServer.server.tcp.conn-5 calcLoad:vector:min inf
scalar ClientServer.server.tcp.conn-5 calcLoad:vector:max -inf
scalar ClientServer.server.tcp.conn-5 calcLoad:vector:starttime nan
scalar ClientServer.server.tcp.conn-5 calcLoad:vector:endtime nan
scalar ClientServer.server.tcp.conn-5 markingProb:vector:count 0
scalar ClientServer.server.tcp.conn-5 markingProb:vector:sum 0
scalar ClientServer.server.tcp.conn-5 markingProb:vector:sumweights 0
scalar ClientServer.server.tcp.conn-5 markingProb:vector:mean -nan
scalar ClientServer.server.tcp.conn-5 markingProb:vector:stddev nan
scalar ClientServer.server.tcp.conn-5 markingProb:vector:min inf
scalar ClientServer.server.tcp.conn-5 markingProb:vector:max -inf
scalar ClientServer.server.tcp.conn-5 markingProb:vector:starttime nan
scalar ClientServer.server.tcp.conn-5 markingProb:vector:endtime nan
scalar ClientServer.server.app[0].thread_5 packetReceived:vector(packetBytes):count 178309
scalar ClientServer.server.app[0].thread_5 packetReceived:vector(packetBytes):sum 111999880
scalar ClientServer.server.app[0].thread_5 packetReceived:vector(packetBytes):sumweights 178309
scalar ClientServer.server.app[0].thread_5 packetReceived:vector(packetBytes):mean 628.12241670358765
scalar ClientServer.server.app[0].thread_5 packetReceived:vector(packetBytes):stddev 731.16961156373532
scalar ClientServer.server.app[0].thread_5 packetReceived:vector(packetBytes):min 536
scalar ClientServer.server.app[0].thread_5 packetReceived:vector(packetBytes):max 6432
scalar ClientServer.server.app[0].thread_5 packetReceived:vector(packetBytes):starttime 1.0004665000000001
scalar ClientServer.server.app[0].thread_5 packetReceived:vector(packetBytes):endtime 99.999737696711023
scalar ClientServer.server.app[0].thread_5 packetSent:vector(packetBytes):count 0
scalar ClientServer.server.app[0].thread_5 packetSent:vector(packetBytes):sum 0
scalar ClientServer.server.app[0].thread_5 packetSent:vector(packetBytes):sumweights 0
scalar ClientServer.server.app[0].thread_5 packetSent:vector(packetBytes):mean -nan
scalar ClientServer.server.app[0].thread_5 packetSent:vector(packetBytes):stddev nan
scalar ClientServer.server.app[0].thread_5 packetSent:vector(packetBytes):min inf
scalar ClientServer.server.app[0].thread_5 packetSent:vector(packetBytes):max -inf
scalar ClientServer.server.app[0].thread_5 packetSent:vector(packetBytes):starttime nan
scalar ClientServer.server.app[0].thread_5 packetSent:vector(packetBytes):endtime nan
scalar ClientServer.server.app[0].thread_5 endToEndDelay:vector:count 208955
scalar ClientServer.server.app[0].thread_5 endToEndDelay:vector:sum 10504564.467302918
scalar ClientServer.server.app[0].thread_5 endToEndDelay:vector:sumweights 208955
scalar ClientServer.server.app[0].thread_5 endToEndDelay:vector:mean 50.271898099126219
scalar ClientServer.server.app[0].thread_5 endToEndDelay:vector:stddev 28.133679711397079
scalar ClientServer.server.app[0].thread_5 endToEndDelay:vector:min 0.00046650000000000001
scalar ClientServer.server.app[0].thread_5 endToEndDelay:vector:max 98.999737696710994
scalar ClientServer.server.app[0].thread_5 endToEndDelay:vector:starttime 1.0004665000000001
scalar ClientServer.server.app[0].thread_5 endToEndDelay:vector:endtime 99.999737696711023

