version 3
run Multicast6-0-20260630-11:06:20-3460498
attr configname Multicast6
attr datetime 20260630-11:06:20
attr datetimef 20260630-110620
attr experiment Multicast6
attr inifile ipv6.ini
attr iterationvars ""
attr iterationvarsd ""
attr iterationvarsf ""
attr measurement ""
attr network TwoHosts6
attr processid 3460498
attr repetition 0
attr replication #0
attr resultdir results
attr runnumber 0
attr seedset 0
config **.param-recording false
config image-path /home/andras/projects/inet/images
config output-scalar-file results/ipv6.ini-Multicast6-#0.sca
config output-scalar-precision 17
config output-vector-file results/ipv6.ini-Multicast6-#0.vec
config output-vector-precision 17
config record-eventlog false
config sim-time-limit 200s
config extends UDPTraffic6
config description "IPsec over IPv6 with multicast traffic (just BYPASS'd)"
config sim-time-limit 200s
config **.multicastForwarding true
config **.numApps 1
config **.client1.app[0].typename UdpBasicApp
config **.client1.app[0].destAddresses "\"ff0e::8\""
config **.client1.app[0].destPort 2100
config **.server*.app[0].typename UdpSink
config **.server*.app[0].localPort 2100
config **.server*.app[0].multicastGroup "\"ff0e::8\""
config description "IPsec over IPv6 with UDP traffic"
config sim-time-limit 200s
config **.numApps 3
config **.client*.app[*].typename UdpBasicApp
config **.client*.app[0].localPort 1000
config **.client*.app[1].localPort 1001
config **.client*.app[2].localPort 1002
config **.client*.app[*].destAddresses "\"server\""
config **.client*.app[0].destPort 2000
config **.client*.app[1].destPort 2001
config **.client*.app[2].destPort 2002
config **.client*.app[*].startTime 1s
config **.client*.app[*].stopTime 5s
config **.client*.app[*].sendInterval 0.1s
config **.client*.app[*].messageLength 1024B
config **.server*.app[*].typename UdpSink
config **.server*.app[0].localPort 2000
config **.server*.app[1].localPort 2001
config **.server*.app[2].localPort 2002
config network TwoHosts6
config **.ppp[*].queueType "\"DropTailQueue\""
config **.ppp[*].queue.frameCapacity 10
config **.ipv6.configurator.networkConfiguratorModule "\"configurator\""
config **.client*.**.hasIpsec true
config **.server.**.hasIpsec true
config **.client1.**spdConfig "xmldoc(\"ipsecConfig.xml\", \"ipsecConfig/Devices/Device[@id='client1']/\")"
config **.server.**spdConfig "xmldoc(\"ipsecConfig.xml\", \"ipsecConfig/Devices/Device[@id='server']/\")"
config **.ipsec.ahProtectOutDelay 7us
config **.ipsec.ahProtectInDelay 9us
config **.ipsec.espProtectOutDelay 7us
config **.ipsec.espProtectInDelay 9us

scalar TwoHosts6.client1.lo[0].lo rcvdPkFromHl:count 0
scalar TwoHosts6.client1.lo[0].lo rcvdPkFromHl:sum(packetBytes) 0
scalar TwoHosts6.client1.lo[0].lo passedUpPk:count 0
scalar TwoHosts6.client1.lo[0].lo passedUpPk:sum(packetBytes) 0
scalar TwoHosts6.client1.lo[0] packetDropInterfaceDown:count 0
scalar TwoHosts6.client1.lo[0] packetDropInterfaceDown:sum(packetBytes) 0
scalar TwoHosts6.client1.lo[0] packetDropNoCarrier:count 0
scalar TwoHosts6.client1.lo[0] packetDropNoCarrier:sum(packetBytes) 0
scalar TwoHosts6.client1.ppp[0].queue queueLength:last 0
scalar TwoHosts6.client1.ppp[0].queue queueLength:max 0
scalar TwoHosts6.client1.ppp[0].queue queueLength:timeavg 0
scalar TwoHosts6.client1.ppp[0].queue queueBitLength:last 0
scalar TwoHosts6.client1.ppp[0].queue queueBitLength:max 0
scalar TwoHosts6.client1.ppp[0].queue queueBitLength:timeavg 0
scalar TwoHosts6.client1.ppp[0].queue outgoingPackets:count 44
scalar TwoHosts6.client1.ppp[0].queue outgoingPacketLengths:sum 344896
scalar TwoHosts6.client1.ppp[0].queue incomingPackets:count 44
scalar TwoHosts6.client1.ppp[0].queue incomingPacketLengths:sum 344896
scalar TwoHosts6.client1.ppp[0].queue droppedPacketsQueueOverflow:count 0
scalar TwoHosts6.client1.ppp[0].queue droppedPacketLengthsQueueOverflow:sum 0
scalar TwoHosts6.client1.ppp[0].ppp transmissionState:timeavg 0.00017367999999999998
scalar TwoHosts6.client1.ppp[0].ppp rxPkOk:count 4
scalar TwoHosts6.client1.ppp[0].ppp rxPkOk:sum(packetBytes) 260
scalar TwoHosts6.client1.ppp[0].ppp txPk:count 44
scalar TwoHosts6.client1.ppp[0].ppp txPk:sum(packetBytes) 43420
scalar TwoHosts6.client1.ppp[0].ppp rcvdPkFromHl:count 44
scalar TwoHosts6.client1.ppp[0].ppp rcvdPkFromHl:sum(packetBytes) 43112
scalar TwoHosts6.client1.ppp[0].ppp passedUpPk:count 4
scalar TwoHosts6.client1.ppp[0].ppp passedUpPk:sum(packetBytes) 232
scalar TwoHosts6.client1.ppp[0].ppp packetDropIncorrectlyReceived:count 0
scalar TwoHosts6.client1.ppp[0].ppp packetDropIncorrectlyReceived:sum(packetBytes) 0
scalar TwoHosts6.client1.ppp[0].ppp packetDropInterfaceDown:count 0
scalar TwoHosts6.client1.ppp[0].ppp packetDropInterfaceDown:sum(packetBytes) 0
scalar TwoHosts6.client1.ppp[0] packetDropInterfaceDown:count 0
scalar TwoHosts6.client1.ppp[0] packetDropInterfaceDown:sum(packetBytes) 0
scalar TwoHosts6.client1.ppp[0] packetDropNoCarrier:count 0
scalar TwoHosts6.client1.ppp[0] packetDropNoCarrier:sum(packetBytes) 0
scalar TwoHosts6.client1.ipv6.neighbourDiscovery dadFailed:count 0
scalar TwoHosts6.client1.ipv6.neighbourDiscovery dadCompleted:count 1
scalar TwoHosts6.client1.ipv6.neighbourDiscovery startDad:count 1
scalar TwoHosts6.client1.ipv6.ipsec outDrop:count 0
scalar TwoHosts6.client1.ipv6.ipsec outProtect:count 0
scalar TwoHosts6.client1.ipv6.ipsec outBypass:count 44
scalar TwoHosts6.client1.ipv6.ipsec inUnprotectedDrop:count 0
scalar TwoHosts6.client1.ipv6.ipsec inUnprotectedBypass:count 4
scalar TwoHosts6.client1.ipv6.ipsec inProtectedDrop:count 0
scalar TwoHosts6.client1.ipv6.ipsec inProtectedAccept:count 0
scalar TwoHosts6.client1.udp packetReceived:count 0
scalar TwoHosts6.client1.udp packetReceived:sum(packetBytes) 0
scalar TwoHosts6.client1.udp packetSent:count 40
scalar TwoHosts6.client1.udp packetSent:sum(packetBytes) 41280
scalar TwoHosts6.client1.udp passedUpPk:count 0
scalar TwoHosts6.client1.udp droppedPkWrongPort:count 0
scalar TwoHosts6.client1.udp droppedPkBadChecksum:count 0
scalar TwoHosts6.client1.app[0] "packets sent" 40
scalar TwoHosts6.client1.app[0] "packets received" 0
scalar TwoHosts6.client1.app[0] packetReceived:count 0
scalar TwoHosts6.client1.app[0] packetReceived:sum(packetBytes) 0
scalar TwoHosts6.client1.app[0] packetSent:count 40
scalar TwoHosts6.client1.app[0] packetSent:sum(packetBytes) 40960
scalar TwoHosts6.server.lo[0].lo rcvdPkFromHl:count 0
scalar TwoHosts6.server.lo[0].lo rcvdPkFromHl:sum(packetBytes) 0
scalar TwoHosts6.server.lo[0].lo passedUpPk:count 0
scalar TwoHosts6.server.lo[0].lo passedUpPk:sum(packetBytes) 0
scalar TwoHosts6.server.lo[0] packetDropInterfaceDown:count 0
scalar TwoHosts6.server.lo[0] packetDropInterfaceDown:sum(packetBytes) 0
scalar TwoHosts6.server.lo[0] packetDropNoCarrier:count 0
scalar TwoHosts6.server.lo[0] packetDropNoCarrier:sum(packetBytes) 0
scalar TwoHosts6.server.ppp[0].queue queueLength:last 0
scalar TwoHosts6.server.ppp[0].queue queueLength:max 0
scalar TwoHosts6.server.ppp[0].queue queueLength:timeavg 0
scalar TwoHosts6.server.ppp[0].queue queueBitLength:last 0
scalar TwoHosts6.server.ppp[0].queue queueBitLength:max 0
scalar TwoHosts6.server.ppp[0].queue queueBitLength:timeavg 0
scalar TwoHosts6.server.ppp[0].queue outgoingPackets:count 4
scalar TwoHosts6.server.ppp[0].queue outgoingPacketLengths:sum 1856
scalar TwoHosts6.server.ppp[0].queue incomingPackets:count 4
scalar TwoHosts6.server.ppp[0].queue incomingPacketLengths:sum 1856
scalar TwoHosts6.server.ppp[0].queue droppedPacketsQueueOverflow:count 0
scalar TwoHosts6.server.ppp[0].queue droppedPacketLengthsQueueOverflow:sum 0
scalar TwoHosts6.server.ppp[0].ppp transmissionState:timeavg 1.04e-06
scalar TwoHosts6.server.ppp[0].ppp rxPkOk:count 44
scalar TwoHosts6.server.ppp[0].ppp rxPkOk:sum(packetBytes) 43420
scalar TwoHosts6.server.ppp[0].ppp txPk:count 4
scalar TwoHosts6.server.ppp[0].ppp txPk:sum(packetBytes) 260
scalar TwoHosts6.server.ppp[0].ppp rcvdPkFromHl:count 4
scalar TwoHosts6.server.ppp[0].ppp rcvdPkFromHl:sum(packetBytes) 232
scalar TwoHosts6.server.ppp[0].ppp passedUpPk:count 44
scalar TwoHosts6.server.ppp[0].ppp passedUpPk:sum(packetBytes) 43112
scalar TwoHosts6.server.ppp[0].ppp packetDropIncorrectlyReceived:count 0
scalar TwoHosts6.server.ppp[0].ppp packetDropIncorrectlyReceived:sum(packetBytes) 0
scalar TwoHosts6.server.ppp[0].ppp packetDropInterfaceDown:count 0
scalar TwoHosts6.server.ppp[0].ppp packetDropInterfaceDown:sum(packetBytes) 0
scalar TwoHosts6.server.ppp[0] packetDropInterfaceDown:count 0
scalar TwoHosts6.server.ppp[0] packetDropInterfaceDown:sum(packetBytes) 0
scalar TwoHosts6.server.ppp[0] packetDropNoCarrier:count 0
scalar TwoHosts6.server.ppp[0] packetDropNoCarrier:sum(packetBytes) 0
scalar TwoHosts6.server.ipv6.neighbourDiscovery dadFailed:count 0
scalar TwoHosts6.server.ipv6.neighbourDiscovery dadCompleted:count 1
scalar TwoHosts6.server.ipv6.neighbourDiscovery startDad:count 1
scalar TwoHosts6.server.ipv6.ipsec outDrop:count 0
scalar TwoHosts6.server.ipv6.ipsec outProtect:count 0
scalar TwoHosts6.server.ipv6.ipsec outBypass:count 4
scalar TwoHosts6.server.ipv6.ipsec inUnprotectedDrop:count 0
scalar TwoHosts6.server.ipv6.ipsec inUnprotectedBypass:count 44
scalar TwoHosts6.server.ipv6.ipsec inProtectedDrop:count 0
scalar TwoHosts6.server.ipv6.ipsec inProtectedAccept:count 0
scalar TwoHosts6.server.udp packetReceived:count 40
scalar TwoHosts6.server.udp packetReceived:sum(packetBytes) 41280
scalar TwoHosts6.server.udp packetSent:count 0
scalar TwoHosts6.server.udp packetSent:sum(packetBytes) 0
scalar TwoHosts6.server.udp passedUpPk:count 40
scalar TwoHosts6.server.udp droppedPkWrongPort:count 0
scalar TwoHosts6.server.udp droppedPkBadChecksum:count 0
scalar TwoHosts6.server.app[0] packetReceived:count 40
scalar TwoHosts6.server.app[0] packetReceived:sum(packetBytes) 40960
scalar TwoHosts6.client1.ipv6.ipsec outProcessDelay:stats:count 0
scalar TwoHosts6.client1.ipv6.ipsec outProcessDelay:stats:sumweights 0
scalar TwoHosts6.client1.ipv6.ipsec outProcessDelay:stats:mean nan
scalar TwoHosts6.client1.ipv6.ipsec outProcessDelay:stats:stddev nan
scalar TwoHosts6.client1.ipv6.ipsec outProcessDelay:stats:min nan
scalar TwoHosts6.client1.ipv6.ipsec outProcessDelay:stats:max nan
scalar TwoHosts6.client1.ipv6.ipsec outProcessDelay:stats:numbins 0
scalar TwoHosts6.client1.ipv6.ipsec inProcessDelay:stats:count 0
scalar TwoHosts6.client1.ipv6.ipsec inProcessDelay:stats:sumweights 0
scalar TwoHosts6.client1.ipv6.ipsec inProcessDelay:stats:mean nan
scalar TwoHosts6.client1.ipv6.ipsec inProcessDelay:stats:stddev nan
scalar TwoHosts6.client1.ipv6.ipsec inProcessDelay:stats:min nan
scalar TwoHosts6.client1.ipv6.ipsec inProcessDelay:stats:max nan
scalar TwoHosts6.client1.ipv6.ipsec inProcessDelay:stats:numbins 0
scalar TwoHosts6.client1.app[0] rcvdPkLifetime:stats:count 0
scalar TwoHosts6.client1.app[0] rcvdPkLifetime:stats:sumweights 0
scalar TwoHosts6.client1.app[0] rcvdPkLifetime:stats:mean nan
scalar TwoHosts6.client1.app[0] rcvdPkLifetime:stats:stddev nan
scalar TwoHosts6.client1.app[0] rcvdPkLifetime:stats:min nan
scalar TwoHosts6.client1.app[0] rcvdPkLifetime:stats:max nan
scalar TwoHosts6.client1.app[0] rcvdPkLifetime:stats:numbins 0
scalar TwoHosts6.server.ipv6.ipsec outProcessDelay:stats:count 0
scalar TwoHosts6.server.ipv6.ipsec outProcessDelay:stats:sumweights 0
scalar TwoHosts6.server.ipv6.ipsec outProcessDelay:stats:mean nan
scalar TwoHosts6.server.ipv6.ipsec outProcessDelay:stats:stddev nan
scalar TwoHosts6.server.ipv6.ipsec outProcessDelay:stats:min nan
scalar TwoHosts6.server.ipv6.ipsec outProcessDelay:stats:max nan
scalar TwoHosts6.server.ipv6.ipsec outProcessDelay:stats:numbins 0
scalar TwoHosts6.server.ipv6.ipsec inProcessDelay:stats:count 0
scalar TwoHosts6.server.ipv6.ipsec inProcessDelay:stats:sumweights 0
scalar TwoHosts6.server.ipv6.ipsec inProcessDelay:stats:mean nan
scalar TwoHosts6.server.ipv6.ipsec inProcessDelay:stats:stddev nan
scalar TwoHosts6.server.ipv6.ipsec inProcessDelay:stats:min nan
scalar TwoHosts6.server.ipv6.ipsec inProcessDelay:stats:max nan
scalar TwoHosts6.server.ipv6.ipsec inProcessDelay:stats:numbins 0
scalar TwoHosts6.client1.ppp[0].queue queueingTime:histogram:count 44
scalar TwoHosts6.client1.ppp[0].queue queueingTime:histogram:sumweights 44
scalar TwoHosts6.client1.ppp[0].queue queueingTime:histogram:mean 0
scalar TwoHosts6.client1.ppp[0].queue queueingTime:histogram:stddev 0
scalar TwoHosts6.client1.ppp[0].queue queueingTime:histogram:min 0
scalar TwoHosts6.client1.ppp[0].queue queueingTime:histogram:max 0
scalar TwoHosts6.client1.ppp[0].queue queueingTime:histogram:numbins 50
scalar TwoHosts6.client1.ppp[0].queue queueingTime:histogram:rangemin -0.5
scalar TwoHosts6.client1.ppp[0].queue queueingTime:histogram:rangemax 0.5
scalar TwoHosts6.client1.ppp[0].queue queueingTime:histogram:underflows 0
scalar TwoHosts6.client1.ppp[0].queue queueingTime:histogram:overflows 0
scalar TwoHosts6.client1.ppp[0].queue outgoingPacketLengths:histogram:count 44
scalar TwoHosts6.client1.ppp[0].queue outgoingPacketLengths:histogram:sumweights 44
scalar TwoHosts6.client1.ppp[0].queue outgoingPacketLengths:histogram:mean 7838.545454545455
scalar TwoHosts6.client1.ppp[0].queue outgoingPacketLengths:histogram:stddev 2359.012026690809
scalar TwoHosts6.client1.ppp[0].queue outgoingPacketLengths:histogram:min 448
scalar TwoHosts6.client1.ppp[0].queue outgoingPacketLengths:histogram:max 8576
scalar TwoHosts6.client1.ppp[0].queue outgoingPacketLengths:histogram:numbins 54
scalar TwoHosts6.client1.ppp[0].queue outgoingPacketLengths:histogram:rangemin 0
scalar TwoHosts6.client1.ppp[0].queue outgoingPacketLengths:histogram:rangemax 10800
scalar TwoHosts6.client1.ppp[0].queue outgoingPacketLengths:histogram:underflows 0
scalar TwoHosts6.client1.ppp[0].queue outgoingPacketLengths:histogram:overflows 0
scalar TwoHosts6.client1.ppp[0].queue flowQueueingTime:histogram:count 0
scalar TwoHosts6.client1.ppp[0].queue flowQueueingTime:histogram:sumweights 0
scalar TwoHosts6.client1.ppp[0].queue flowQueueingTime:histogram:mean nan
scalar TwoHosts6.client1.ppp[0].queue flowQueueingTime:histogram:stddev nan
scalar TwoHosts6.client1.ppp[0].queue flowQueueingTime:histogram:min nan
scalar TwoHosts6.client1.ppp[0].queue flowQueueingTime:histogram:max nan
scalar TwoHosts6.client1.ppp[0].queue flowQueueingTime:histogram:numbins 1
scalar TwoHosts6.client1.ppp[0].queue flowQueueingTime:histogram:rangemin 0
scalar TwoHosts6.client1.ppp[0].queue flowQueueingTime:histogram:rangemax 1
scalar TwoHosts6.client1.ppp[0].queue flowQueueingTime:histogram:underflows 0
scalar TwoHosts6.client1.ppp[0].queue flowQueueingTime:histogram:overflows 0
scalar TwoHosts6.client1.ppp[0].queue incomingPacketLengths:histogram:count 44
scalar TwoHosts6.client1.ppp[0].queue incomingPacketLengths:histogram:sumweights 44
scalar TwoHosts6.client1.ppp[0].queue incomingPacketLengths:histogram:mean 7838.545454545455
scalar TwoHosts6.client1.ppp[0].queue incomingPacketLengths:histogram:stddev 2359.012026690809
scalar TwoHosts6.client1.ppp[0].queue incomingPacketLengths:histogram:min 448
scalar TwoHosts6.client1.ppp[0].queue incomingPacketLengths:histogram:max 8576
scalar TwoHosts6.client1.ppp[0].queue incomingPacketLengths:histogram:numbins 54
scalar TwoHosts6.client1.ppp[0].queue incomingPacketLengths:histogram:rangemin 0
scalar TwoHosts6.client1.ppp[0].queue incomingPacketLengths:histogram:rangemax 10800
scalar TwoHosts6.client1.ppp[0].queue incomingPacketLengths:histogram:underflows 0
scalar TwoHosts6.client1.ppp[0].queue incomingPacketLengths:histogram:overflows 0
scalar TwoHosts6.server.ppp[0].queue queueingTime:histogram:count 4
scalar TwoHosts6.server.ppp[0].queue queueingTime:histogram:sumweights 4
scalar TwoHosts6.server.ppp[0].queue queueingTime:histogram:mean 0
scalar TwoHosts6.server.ppp[0].queue queueingTime:histogram:stddev 0
scalar TwoHosts6.server.ppp[0].queue queueingTime:histogram:min 0
scalar TwoHosts6.server.ppp[0].queue queueingTime:histogram:max 0
scalar TwoHosts6.server.ppp[0].queue queueingTime:histogram:numbins 50
scalar TwoHosts6.server.ppp[0].queue queueingTime:histogram:rangemin -0.5
scalar TwoHosts6.server.ppp[0].queue queueingTime:histogram:rangemax 0.5
scalar TwoHosts6.server.ppp[0].queue queueingTime:histogram:underflows 0
scalar TwoHosts6.server.ppp[0].queue queueingTime:histogram:overflows 0
scalar TwoHosts6.server.ppp[0].queue outgoingPacketLengths:histogram:count 4
scalar TwoHosts6.server.ppp[0].queue outgoingPacketLengths:histogram:sumweights 4
scalar TwoHosts6.server.ppp[0].queue outgoingPacketLengths:histogram:mean 464
scalar TwoHosts6.server.ppp[0].queue outgoingPacketLengths:histogram:stddev 32
scalar TwoHosts6.server.ppp[0].queue outgoingPacketLengths:histogram:min 448
scalar TwoHosts6.server.ppp[0].queue outgoingPacketLengths:histogram:max 512
scalar TwoHosts6.server.ppp[0].queue outgoingPacketLengths:histogram:numbins 48
scalar TwoHosts6.server.ppp[0].queue outgoingPacketLengths:histogram:rangemin 432
scalar TwoHosts6.server.ppp[0].queue outgoingPacketLengths:histogram:rangemax 528
scalar TwoHosts6.server.ppp[0].queue outgoingPacketLengths:histogram:underflows 0
scalar TwoHosts6.server.ppp[0].queue outgoingPacketLengths:histogram:overflows 0
scalar TwoHosts6.server.ppp[0].queue flowQueueingTime:histogram:count 0
scalar TwoHosts6.server.ppp[0].queue flowQueueingTime:histogram:sumweights 0
scalar TwoHosts6.server.ppp[0].queue flowQueueingTime:histogram:mean nan
scalar TwoHosts6.server.ppp[0].queue flowQueueingTime:histogram:stddev nan
scalar TwoHosts6.server.ppp[0].queue flowQueueingTime:histogram:min nan
scalar TwoHosts6.server.ppp[0].queue flowQueueingTime:histogram:max nan
scalar TwoHosts6.server.ppp[0].queue flowQueueingTime:histogram:numbins 1
scalar TwoHosts6.server.ppp[0].queue flowQueueingTime:histogram:rangemin 0
scalar TwoHosts6.server.ppp[0].queue flowQueueingTime:histogram:rangemax 1
scalar TwoHosts6.server.ppp[0].queue flowQueueingTime:histogram:underflows 0
scalar TwoHosts6.server.ppp[0].queue flowQueueingTime:histogram:overflows 0
scalar TwoHosts6.server.ppp[0].queue incomingPacketLengths:histogram:count 4
scalar TwoHosts6.server.ppp[0].queue incomingPacketLengths:histogram:sumweights 4
scalar TwoHosts6.server.ppp[0].queue incomingPacketLengths:histogram:mean 464
scalar TwoHosts6.server.ppp[0].queue incomingPacketLengths:histogram:stddev 32
scalar TwoHosts6.server.ppp[0].queue incomingPacketLengths:histogram:min 448
scalar TwoHosts6.server.ppp[0].queue incomingPacketLengths:histogram:max 512
scalar TwoHosts6.server.ppp[0].queue incomingPacketLengths:histogram:numbins 48
scalar TwoHosts6.server.ppp[0].queue incomingPacketLengths:histogram:rangemin 432
scalar TwoHosts6.server.ppp[0].queue incomingPacketLengths:histogram:rangemax 528
scalar TwoHosts6.server.ppp[0].queue incomingPacketLengths:histogram:underflows 0
scalar TwoHosts6.server.ppp[0].queue incomingPacketLengths:histogram:overflows 0
scalar TwoHosts6.server.app[0] endToEndDelay:histogram:count 40
scalar TwoHosts6.server.app[0] endToEndDelay:histogram:sumweights 40
scalar TwoHosts6.server.app[0] endToEndDelay:histogram:mean 0.0008633
scalar TwoHosts6.server.app[0] endToEndDelay:histogram:stddev 0
scalar TwoHosts6.server.app[0] endToEndDelay:histogram:min 0.0008633
scalar TwoHosts6.server.app[0] endToEndDelay:histogram:max 0.0008633
scalar TwoHosts6.server.app[0] endToEndDelay:histogram:numbins 51
scalar TwoHosts6.server.app[0] endToEndDelay:histogram:rangemin 0
scalar TwoHosts6.server.app[0] endToEndDelay:histogram:rangemax 0.51
scalar TwoHosts6.server.app[0] endToEndDelay:histogram:underflows 0
scalar TwoHosts6.server.app[0] endToEndDelay:histogram:overflows 0
statistic TwoHosts6.client1.ipv6.ipsec outProcessDelay:stats
field count 0
field mean nan
field stddev nan
field min nan
field max nan
field sum 0
field sqrsum 0
statistic TwoHosts6.client1.ipv6.ipsec inProcessDelay:stats
field count 0
field mean nan
field stddev nan
field min nan
field max nan
field sum 0
field sqrsum 0
statistic TwoHosts6.client1.app[0] rcvdPkLifetime:stats
field count 0
field mean nan
field stddev nan
field min nan
field max nan
field sum 0
field sqrsum 0
statistic TwoHosts6.server.ipv6.ipsec outProcessDelay:stats
field count 0
field mean nan
field stddev nan
field min nan
field max nan
field sum 0
field sqrsum 0
statistic TwoHosts6.server.ipv6.ipsec inProcessDelay:stats
field count 0
field mean nan
field stddev nan
field min nan
field max nan
field sum 0
field sqrsum 0
statistic TwoHosts6.client1.ppp[0].queue queueingTime:histogram
field count 44
field mean 0
field stddev 0
field min 0
field max 0
field sum 0
field sqrsum 0
bin	-inf	0
bin	-0.5	0
bin	-0.48	0
bin	-0.46	0
bin	-0.44	0
bin	-0.42	0
bin	-0.4	0
bin	-0.38	0
bin	-0.36	0
bin	-0.33999999999999997	0
bin	-0.32	0
bin	-0.3	0
bin	-0.28	0
bin	-0.26	0
bin	-0.24	0
bin	-0.21999999999999997	0
bin	-0.2	0
bin	-0.18	0
bin	-0.15999999999999998	0
bin	-0.14	0
bin	-0.12	0
bin	-0.09999999999999998	0
bin	-0.08000000000000002	0
bin	-0.06	0
bin	-0.03999999999999998	0
bin	-0.020000000000000018	0
bin	0	44
bin	0.020000000000000018	0
bin	0.040000000000000036	0
bin	0.06000000000000005	0
bin	0.07999999999999996	0
bin	0.09999999999999998	0
bin	0.12	0
bin	0.14	0
bin	0.16000000000000003	0
bin	0.18000000000000005	0
bin	0.20000000000000007	0
bin	0.21999999999999997	0
bin	0.24	0
bin	0.26	0
bin	0.28	0
bin	0.30000000000000004	0
bin	0.32000000000000006	0
bin	0.33999999999999997	0
bin	0.36	0
bin	0.38	0
bin	0.4	0
bin	0.42000000000000004	0
bin	0.44000000000000006	0
bin	0.45999999999999996	0
bin	0.48	0
bin	0.5	0
statistic TwoHosts6.client1.ppp[0].queue outgoingPacketLengths:histogram
field count 44
field mean 7838.545454545455
field stddev 2359.012026690809
field min 448
field max 8576
field sum 344896
field sqrsum 2942775296
bin	-inf	0
bin	0	0
bin	200	0
bin	400	4
bin	600	0
bin	800	0
bin	1000	0
bin	1200	0
bin	1400	0
bin	1600	0
bin	1800	0
bin	2000	0
bin	2200	0
bin	2400	0
bin	2600	0
bin	2800	0
bin	3000	0
bin	3200	0
bin	3400	0
bin	3600	0
bin	3800	0
bin	4000	0
bin	4200	0
bin	4400	0
bin	4600	0
bin	4800	0
bin	5000	0
bin	5200	0
bin	5400	0
bin	5600	0
bin	5800	0
bin	6000	0
bin	6200	0
bin	6400	0
bin	6600	0
bin	6800	0
bin	7000	0
bin	7200	0
bin	7400	0
bin	7600	0
bin	7800	0
bin	8000	0
bin	8200	0
bin	8400	40
bin	8600	0
bin	8800	0
bin	9000	0
bin	9200	0
bin	9400	0
bin	9600	0
bin	9800	0
bin	10000	0
bin	10200	0
bin	10400	0
bin	10600	0
bin	10800	0
statistic TwoHosts6.client1.ppp[0].queue flowQueueingTime:histogram
field count 0
field mean nan
field stddev nan
field min nan
field max nan
field sum 0
field sqrsum 0
bin	-inf	0
bin	0	0
bin	1	0
statistic TwoHosts6.client1.ppp[0].queue incomingPacketLengths:histogram
field count 44
field mean 7838.545454545455
field stddev 2359.012026690809
field min 448
field max 8576
field sum 344896
field sqrsum 2942775296
bin	-inf	0
bin	0	0
bin	200	0
bin	400	4
bin	600	0
bin	800	0
bin	1000	0
bin	1200	0
bin	1400	0
bin	1600	0
bin	1800	0
bin	2000	0
bin	2200	0
bin	2400	0
bin	2600	0
bin	2800	0
bin	3000	0
bin	3200	0
bin	3400	0
bin	3600	0
bin	3800	0
bin	4000	0
bin	4200	0
bin	4400	0
bin	4600	0
bin	4800	0
bin	5000	0
bin	5200	0
bin	5400	0
bin	5600	0
bin	5800	0
bin	6000	0
bin	6200	0
bin	6400	0
bin	6600	0
bin	6800	0
bin	7000	0
bin	7200	0
bin	7400	0
bin	7600	0
bin	7800	0
bin	8000	0
bin	8200	0
bin	8400	40
bin	8600	0
bin	8800	0
bin	9000	0
bin	9200	0
bin	9400	0
bin	9600	0
bin	9800	0
bin	10000	0
bin	10200	0
bin	10400	0
bin	10600	0
bin	10800	0
statistic TwoHosts6.server.ppp[0].queue queueingTime:histogram
field count 4
field mean 0
field stddev 0
field min 0
field max 0
field sum 0
field sqrsum 0
bin	-inf	0
bin	-0.5	0
bin	-0.48	0
bin	-0.46	0
bin	-0.44	0
bin	-0.42	0
bin	-0.4	0
bin	-0.38	0
bin	-0.36	0
bin	-0.33999999999999997	0
bin	-0.32	0
bin	-0.3	0
bin	-0.28	0
bin	-0.26	0
bin	-0.24	0
bin	-0.21999999999999997	0
bin	-0.2	0
bin	-0.18	0
bin	-0.15999999999999998	0
bin	-0.14	0
bin	-0.12	0
bin	-0.09999999999999998	0
bin	-0.08000000000000002	0
bin	-0.06	0
bin	-0.03999999999999998	0
bin	-0.020000000000000018	0
bin	0	4
bin	0.020000000000000018	0
bin	0.040000000000000036	0
bin	0.06000000000000005	0
bin	0.07999999999999996	0
bin	0.09999999999999998	0
bin	0.12	0
bin	0.14	0
bin	0.16000000000000003	0
bin	0.18000000000000005	0
bin	0.20000000000000007	0
bin	0.21999999999999997	0
bin	0.24	0
bin	0.26	0
bin	0.28	0
bin	0.30000000000000004	0
bin	0.32000000000000006	0
bin	0.33999999999999997	0
bin	0.36	0
bin	0.38	0
bin	0.4	0
bin	0.42000000000000004	0
bin	0.44000000000000006	0
bin	0.45999999999999996	0
bin	0.48	0
bin	0.5	0
statistic TwoHosts6.server.ppp[0].queue outgoingPacketLengths:histogram
field count 4
field mean 464
field stddev 32
field min 448
field max 512
field sum 1856
field sqrsum 864256
bin	-inf	0
bin	432	0
bin	434	0
bin	436	0
bin	438	0
bin	440	0
bin	442	0
bin	444	0
bin	446	0
bin	448	3
bin	450	0
bin	452	0
bin	454	0
bin	456	0
bin	458	0
bin	460	0
bin	462	0
bin	464	0
bin	466	0
bin	468	0
bin	470	0
bin	472	0
bin	474	0
bin	476	0
bin	478	0
bin	480	0
bin	482	0
bin	484	0
bin	486	0
bin	488	0
bin	490	0
bin	492	0
bin	494	0
bin	496	0
bin	498	0
bin	500	0
bin	502	0
bin	504	0
bin	506	0
bin	508	0
bin	510	0
bin	512	1
bin	514	0
bin	516	0
bin	518	0
bin	520	0
bin	522	0
bin	524	0
bin	526	0
bin	528	0
statistic TwoHosts6.server.ppp[0].queue flowQueueingTime:histogram
field count 0
field mean nan
field stddev nan
field min nan
field max nan
field sum 0
field sqrsum 0
bin	-inf	0
bin	0	0
bin	1	0
statistic TwoHosts6.server.ppp[0].queue incomingPacketLengths:histogram
field count 4
field mean 464
field stddev 32
field min 448
field max 512
field sum 1856
field sqrsum 864256
bin	-inf	0
bin	432	0
bin	434	0
bin	436	0
bin	438	0
bin	440	0
bin	442	0
bin	444	0
bin	446	0
bin	448	3
bin	450	0
bin	452	0
bin	454	0
bin	456	0
bin	458	0
bin	460	0
bin	462	0
bin	464	0
bin	466	0
bin	468	0
bin	470	0
bin	472	0
bin	474	0
bin	476	0
bin	478	0
bin	480	0
bin	482	0
bin	484	0
bin	486	0
bin	488	0
bin	490	0
bin	492	0
bin	494	0
bin	496	0
bin	498	0
bin	500	0
bin	502	0
bin	504	0
bin	506	0
bin	508	0
bin	510	0
bin	512	1
bin	514	0
bin	516	0
bin	518	0
bin	520	0
bin	522	0
bin	524	0
bin	526	0
bin	528	0
statistic TwoHosts6.server.app[0] endToEndDelay:histogram
field count 40
field mean 0.0008633
field stddev 0
field min 0.0008633
field max 0.0008633
field sum 0.034532
field sqrsum 2.98114756e-05
bin	-inf	0
bin	0	40
bin	0.01	0
bin	0.02	0
bin	0.03	0
bin	0.04	0
bin	0.05	0
bin	0.06	0
bin	0.07	0
bin	0.08	0
bin	0.09	0
bin	0.1	0
bin	0.11	0
bin	0.12	0
bin	0.13	0
bin	0.14	0
bin	0.15	0
bin	0.16	0
bin	0.17	0
bin	0.18	0
bin	0.19	0
bin	0.2	0
bin	0.21	0
bin	0.22	0
bin	0.23	0
bin	0.24	0
bin	0.25	0
bin	0.26	0
bin	0.27	0
bin	0.28	0
bin	0.29	0
bin	0.3	0
bin	0.31	0
bin	0.32	0
bin	0.33	0
bin	0.34	0
bin	0.35000000000000003	0
bin	0.36	0
bin	0.37	0
bin	0.38	0
bin	0.39	0
bin	0.4	0
bin	0.41000000000000003	0
bin	0.42	0
bin	0.43	0
bin	0.44	0
bin	0.45	0
bin	0.46	0
bin	0.47000000000000003	0
bin	0.48	0
bin	0.49	0
bin	0.5	0
bin	0.51	0
scalar TwoHosts6.client1.lo[0].lo rcvdPkFromHl:vector(packetBytes):count 0
scalar TwoHosts6.client1.lo[0].lo rcvdPkFromHl:vector(packetBytes):sum 0
scalar TwoHosts6.client1.lo[0].lo rcvdPkFromHl:vector(packetBytes):sumweights 0
scalar TwoHosts6.client1.lo[0].lo rcvdPkFromHl:vector(packetBytes):mean nan
scalar TwoHosts6.client1.lo[0].lo rcvdPkFromHl:vector(packetBytes):stddev nan
scalar TwoHosts6.client1.lo[0].lo rcvdPkFromHl:vector(packetBytes):min inf
scalar TwoHosts6.client1.lo[0].lo rcvdPkFromHl:vector(packetBytes):max -inf
scalar TwoHosts6.client1.lo[0].lo rcvdPkFromHl:vector(packetBytes):starttime nan
scalar TwoHosts6.client1.lo[0].lo rcvdPkFromHl:vector(packetBytes):endtime nan
scalar TwoHosts6.client1.lo[0].lo passedUpPk:vector(packetBytes):count 0
scalar TwoHosts6.client1.lo[0].lo passedUpPk:vector(packetBytes):sum 0
scalar TwoHosts6.client1.lo[0].lo passedUpPk:vector(packetBytes):sumweights 0
scalar TwoHosts6.client1.lo[0].lo passedUpPk:vector(packetBytes):mean nan
scalar TwoHosts6.client1.lo[0].lo passedUpPk:vector(packetBytes):stddev nan
scalar TwoHosts6.client1.lo[0].lo passedUpPk:vector(packetBytes):min inf
scalar TwoHosts6.client1.lo[0].lo passedUpPk:vector(packetBytes):max -inf
scalar TwoHosts6.client1.lo[0].lo passedUpPk:vector(packetBytes):starttime nan
scalar TwoHosts6.client1.lo[0].lo passedUpPk:vector(packetBytes):endtime nan
scalar TwoHosts6.client1.lo[0] packetDropInterfaceDown:vector(packetBytes):count 0
scalar TwoHosts6.client1.lo[0] packetDropInterfaceDown:vector(packetBytes):sum 0
scalar TwoHosts6.client1.lo[0] packetDropInterfaceDown:vector(packetBytes):sumweights 0
scalar TwoHosts6.client1.lo[0] packetDropInterfaceDown:vector(packetBytes):mean nan
scalar TwoHosts6.client1.lo[0] packetDropInterfaceDown:vector(packetBytes):stddev nan
scalar TwoHosts6.client1.lo[0] packetDropInterfaceDown:vector(packetBytes):min inf
scalar TwoHosts6.client1.lo[0] packetDropInterfaceDown:vector(packetBytes):max -inf
scalar TwoHosts6.client1.lo[0] packetDropInterfaceDown:vector(packetBytes):starttime nan
scalar TwoHosts6.client1.lo[0] packetDropInterfaceDown:vector(packetBytes):endtime nan
scalar TwoHosts6.client1.lo[0] packetDropNoCarrier:vector(packetBytes):count 0
scalar TwoHosts6.client1.lo[0] packetDropNoCarrier:vector(packetBytes):sum 0
scalar TwoHosts6.client1.lo[0] packetDropNoCarrier:vector(packetBytes):sumweights 0
scalar TwoHosts6.client1.lo[0] packetDropNoCarrier:vector(packetBytes):mean nan
scalar TwoHosts6.client1.lo[0] packetDropNoCarrier:vector(packetBytes):stddev nan
scalar TwoHosts6.client1.lo[0] packetDropNoCarrier:vector(packetBytes):min inf
scalar TwoHosts6.client1.lo[0] packetDropNoCarrier:vector(packetBytes):max -inf
scalar TwoHosts6.client1.lo[0] packetDropNoCarrier:vector(packetBytes):starttime nan
scalar TwoHosts6.client1.lo[0] packetDropNoCarrier:vector(packetBytes):endtime nan
scalar TwoHosts6.client1.ppp[0].queue queueLength:vector:count 49
scalar TwoHosts6.client1.ppp[0].queue queueLength:vector:sum 0
scalar TwoHosts6.client1.ppp[0].queue queueLength:vector:sumweights 49
scalar TwoHosts6.client1.ppp[0].queue queueLength:vector:mean 0
scalar TwoHosts6.client1.ppp[0].queue queueLength:vector:stddev 0
scalar TwoHosts6.client1.ppp[0].queue queueLength:vector:min 0
scalar TwoHosts6.client1.ppp[0].queue queueLength:vector:max 0
scalar TwoHosts6.client1.ppp[0].queue queueLength:vector:starttime 0
scalar TwoHosts6.client1.ppp[0].queue queueLength:vector:endtime 10.835436121142003
scalar TwoHosts6.client1.ppp[0].queue queueBitLength:vector:count 49
scalar TwoHosts6.client1.ppp[0].queue queueBitLength:vector:sum 0
scalar TwoHosts6.client1.ppp[0].queue queueBitLength:vector:sumweights 49
scalar TwoHosts6.client1.ppp[0].queue queueBitLength:vector:mean 0
scalar TwoHosts6.client1.ppp[0].queue queueBitLength:vector:stddev 0
scalar TwoHosts6.client1.ppp[0].queue queueBitLength:vector:min 0
scalar TwoHosts6.client1.ppp[0].queue queueBitLength:vector:max 0
scalar TwoHosts6.client1.ppp[0].queue queueBitLength:vector:starttime 0
scalar TwoHosts6.client1.ppp[0].queue queueBitLength:vector:endtime 10.835436121142003
scalar TwoHosts6.client1.ppp[0].queue queueingTime:vector:count 44
scalar TwoHosts6.client1.ppp[0].queue queueingTime:vector:sum 0
scalar TwoHosts6.client1.ppp[0].queue queueingTime:vector:sumweights 44
scalar TwoHosts6.client1.ppp[0].queue queueingTime:vector:mean 0
scalar TwoHosts6.client1.ppp[0].queue queueingTime:vector:stddev 0
scalar TwoHosts6.client1.ppp[0].queue queueingTime:vector:min 0
scalar TwoHosts6.client1.ppp[0].queue queueingTime:vector:max 0
scalar TwoHosts6.client1.ppp[0].queue queueingTime:vector:starttime 0.7616580222270002
scalar TwoHosts6.client1.ppp[0].queue queueingTime:vector:endtime 10.835436121142003
scalar TwoHosts6.client1.ppp[0].queue incomingPacketLengths:vector:count 44
scalar TwoHosts6.client1.ppp[0].queue incomingPacketLengths:vector:sum 344896
scalar TwoHosts6.client1.ppp[0].queue incomingPacketLengths:vector:sumweights 44
scalar TwoHosts6.client1.ppp[0].queue incomingPacketLengths:vector:mean 7838.545454545455
scalar TwoHosts6.client1.ppp[0].queue incomingPacketLengths:vector:stddev 2359.012026690809
scalar TwoHosts6.client1.ppp[0].queue incomingPacketLengths:vector:min 448
scalar TwoHosts6.client1.ppp[0].queue incomingPacketLengths:vector:max 8576
scalar TwoHosts6.client1.ppp[0].queue incomingPacketLengths:vector:starttime 0.7616580222270002
scalar TwoHosts6.client1.ppp[0].queue incomingPacketLengths:vector:endtime 10.835436121142003
scalar TwoHosts6.client1.ppp[0].queue incomingDataRate:vector:count 2000
scalar TwoHosts6.client1.ppp[0].queue incomingDataRate:vector:sum 3448960
scalar TwoHosts6.client1.ppp[0].queue incomingDataRate:vector:sumweights 2000
scalar TwoHosts6.client1.ppp[0].queue incomingDataRate:vector:mean 1724.48
scalar TwoHosts6.client1.ppp[0].queue incomingDataRate:vector:stddev 12025.86583386523
scalar TwoHosts6.client1.ppp[0].queue incomingDataRate:vector:min 0
scalar TwoHosts6.client1.ppp[0].queue incomingDataRate:vector:max 90240.00000000001
scalar TwoHosts6.client1.ppp[0].queue incomingDataRate:vector:starttime 0.1
scalar TwoHosts6.client1.ppp[0].queue incomingDataRate:vector:endtime 200
scalar TwoHosts6.client1.ppp[0].queue outgoingPacketLengths:vector:count 44
scalar TwoHosts6.client1.ppp[0].queue outgoingPacketLengths:vector:sum 344896
scalar TwoHosts6.client1.ppp[0].queue outgoingPacketLengths:vector:sumweights 44
scalar TwoHosts6.client1.ppp[0].queue outgoingPacketLengths:vector:mean 7838.545454545455
scalar TwoHosts6.client1.ppp[0].queue outgoingPacketLengths:vector:stddev 2359.012026690809
scalar TwoHosts6.client1.ppp[0].queue outgoingPacketLengths:vector:min 448
scalar TwoHosts6.client1.ppp[0].queue outgoingPacketLengths:vector:max 8576
scalar TwoHosts6.client1.ppp[0].queue outgoingPacketLengths:vector:starttime 0.7616580222270002
scalar TwoHosts6.client1.ppp[0].queue outgoingPacketLengths:vector:endtime 10.835436121142003
scalar TwoHosts6.client1.ppp[0].queue outgoingDataRate:vector:count 2000
scalar TwoHosts6.client1.ppp[0].queue outgoingDataRate:vector:sum 3448960
scalar TwoHosts6.client1.ppp[0].queue outgoingDataRate:vector:sumweights 2000
scalar TwoHosts6.client1.ppp[0].queue outgoingDataRate:vector:mean 1724.48
scalar TwoHosts6.client1.ppp[0].queue outgoingDataRate:vector:stddev 12025.86583386523
scalar TwoHosts6.client1.ppp[0].queue outgoingDataRate:vector:min 0
scalar TwoHosts6.client1.ppp[0].queue outgoingDataRate:vector:max 90240.00000000001
scalar TwoHosts6.client1.ppp[0].queue outgoingDataRate:vector:starttime 0.1
scalar TwoHosts6.client1.ppp[0].queue outgoingDataRate:vector:endtime 200
scalar TwoHosts6.client1.ppp[0].queue droppedPacketLengthsQueueOverflow:vector:count 0
scalar TwoHosts6.client1.ppp[0].queue droppedPacketLengthsQueueOverflow:vector:sum 0
scalar TwoHosts6.client1.ppp[0].queue droppedPacketLengthsQueueOverflow:vector:sumweights 0
scalar TwoHosts6.client1.ppp[0].queue droppedPacketLengthsQueueOverflow:vector:mean nan
scalar TwoHosts6.client1.ppp[0].queue droppedPacketLengthsQueueOverflow:vector:stddev nan
scalar TwoHosts6.client1.ppp[0].queue droppedPacketLengthsQueueOverflow:vector:min inf
scalar TwoHosts6.client1.ppp[0].queue droppedPacketLengthsQueueOverflow:vector:max -inf
scalar TwoHosts6.client1.ppp[0].queue droppedPacketLengthsQueueOverflow:vector:starttime nan
scalar TwoHosts6.client1.ppp[0].queue droppedPacketLengthsQueueOverflow:vector:endtime nan
scalar TwoHosts6.client1.ppp[0].queue flowQueueingTime:vector:count 0
scalar TwoHosts6.client1.ppp[0].queue flowQueueingTime:vector:sum 0
scalar TwoHosts6.client1.ppp[0].queue flowQueueingTime:vector:sumweights 0
scalar TwoHosts6.client1.ppp[0].queue flowQueueingTime:vector:mean nan
scalar TwoHosts6.client1.ppp[0].queue flowQueueingTime:vector:stddev nan
scalar TwoHosts6.client1.ppp[0].queue flowQueueingTime:vector:min inf
scalar TwoHosts6.client1.ppp[0].queue flowQueueingTime:vector:max -inf
scalar TwoHosts6.client1.ppp[0].queue flowQueueingTime:vector:starttime nan
scalar TwoHosts6.client1.ppp[0].queue flowQueueingTime:vector:endtime nan
scalar TwoHosts6.client1.ppp[0].queue flowIncomingDataRate:vector:count 2000
scalar TwoHosts6.client1.ppp[0].queue flowIncomingDataRate:vector:sum 0
scalar TwoHosts6.client1.ppp[0].queue flowIncomingDataRate:vector:sumweights 2000
scalar TwoHosts6.client1.ppp[0].queue flowIncomingDataRate:vector:mean 0
scalar TwoHosts6.client1.ppp[0].queue flowIncomingDataRate:vector:stddev 0
scalar TwoHosts6.client1.ppp[0].queue flowIncomingDataRate:vector:min 0
scalar TwoHosts6.client1.ppp[0].queue flowIncomingDataRate:vector:max 0
scalar TwoHosts6.client1.ppp[0].queue flowIncomingDataRate:vector:starttime 0.1
scalar TwoHosts6.client1.ppp[0].queue flowIncomingDataRate:vector:endtime 200
scalar TwoHosts6.client1.ppp[0].queue flowOutgoingDataRate:vector:count 2000
scalar TwoHosts6.client1.ppp[0].queue flowOutgoingDataRate:vector:sum 0
scalar TwoHosts6.client1.ppp[0].queue flowOutgoingDataRate:vector:sumweights 2000
scalar TwoHosts6.client1.ppp[0].queue flowOutgoingDataRate:vector:mean 0
scalar TwoHosts6.client1.ppp[0].queue flowOutgoingDataRate:vector:stddev 0
scalar TwoHosts6.client1.ppp[0].queue flowOutgoingDataRate:vector:min 0
scalar TwoHosts6.client1.ppp[0].queue flowOutgoingDataRate:vector:max 0
scalar TwoHosts6.client1.ppp[0].queue flowOutgoingDataRate:vector:starttime 0.1
scalar TwoHosts6.client1.ppp[0].queue flowOutgoingDataRate:vector:endtime 200
scalar TwoHosts6.client1.ppp[0].ppp transmissionState:vector:count 89
scalar TwoHosts6.client1.ppp[0].ppp transmissionState:vector:sum 44
scalar TwoHosts6.client1.ppp[0].ppp transmissionState:vector:sumweights 89
scalar TwoHosts6.client1.ppp[0].ppp transmissionState:vector:mean 0.4943820224719101
scalar TwoHosts6.client1.ppp[0].ppp transmissionState:vector:stddev 0.5028011423654932
scalar TwoHosts6.client1.ppp[0].ppp transmissionState:vector:min 0
scalar TwoHosts6.client1.ppp[0].ppp transmissionState:vector:max 1
scalar TwoHosts6.client1.ppp[0].ppp transmissionState:vector:starttime 0
scalar TwoHosts6.client1.ppp[0].ppp transmissionState:vector:endtime 10.835486521142002
scalar TwoHosts6.client1.ppp[0].ppp txPk:vector(packetBytes):count 44
scalar TwoHosts6.client1.ppp[0].ppp txPk:vector(packetBytes):sum 43420
scalar TwoHosts6.client1.ppp[0].ppp txPk:vector(packetBytes):sumweights 44
scalar TwoHosts6.client1.ppp[0].ppp txPk:vector(packetBytes):mean 986.8181818181819
scalar TwoHosts6.client1.ppp[0].ppp txPk:vector(packetBytes):stddev 294.8765033363511
scalar TwoHosts6.client1.ppp[0].ppp txPk:vector(packetBytes):min 63
scalar TwoHosts6.client1.ppp[0].ppp txPk:vector(packetBytes):max 1079
scalar TwoHosts6.client1.ppp[0].ppp txPk:vector(packetBytes):starttime 0.7616580222270002
scalar TwoHosts6.client1.ppp[0].ppp txPk:vector(packetBytes):endtime 10.835436121142003
scalar TwoHosts6.client1.ppp[0].ppp rxPkOk:vector(packetBytes):count 4
scalar TwoHosts6.client1.ppp[0].ppp rxPkOk:vector(packetBytes):sum 260
scalar TwoHosts6.client1.ppp[0].ppp rxPkOk:vector(packetBytes):sumweights 4
scalar TwoHosts6.client1.ppp[0].ppp rxPkOk:vector(packetBytes):mean 65
scalar TwoHosts6.client1.ppp[0].ppp rxPkOk:vector(packetBytes):stddev 4
scalar TwoHosts6.client1.ppp[0].ppp rxPkOk:vector(packetBytes):min 63
scalar TwoHosts6.client1.ppp[0].ppp rxPkOk:vector(packetBytes):max 71
scalar TwoHosts6.client1.ppp[0].ppp rxPkOk:vector(packetBytes):starttime 0.9148242719100003
scalar TwoHosts6.client1.ppp[0].ppp rxPkOk:vector(packetBytes):endtime 11.598148377996003
scalar TwoHosts6.client1.ppp[0].ppp packetDropIncorrectlyReceived:vector(packetBytes):count 0
scalar TwoHosts6.client1.ppp[0].ppp packetDropIncorrectlyReceived:vector(packetBytes):sum 0
scalar TwoHosts6.client1.ppp[0].ppp packetDropIncorrectlyReceived:vector(packetBytes):sumweights 0
scalar TwoHosts6.client1.ppp[0].ppp packetDropIncorrectlyReceived:vector(packetBytes):mean nan
scalar TwoHosts6.client1.ppp[0].ppp packetDropIncorrectlyReceived:vector(packetBytes):stddev nan
scalar TwoHosts6.client1.ppp[0].ppp packetDropIncorrectlyReceived:vector(packetBytes):min inf
scalar TwoHosts6.client1.ppp[0].ppp packetDropIncorrectlyReceived:vector(packetBytes):max -inf
scalar TwoHosts6.client1.ppp[0].ppp packetDropIncorrectlyReceived:vector(packetBytes):starttime nan
scalar TwoHosts6.client1.ppp[0].ppp packetDropIncorrectlyReceived:vector(packetBytes):endtime nan
scalar TwoHosts6.client1.ppp[0].ppp packetDropInterfaceDown:vector(packetBytes):count 0
scalar TwoHosts6.client1.ppp[0].ppp packetDropInterfaceDown:vector(packetBytes):sum 0
scalar TwoHosts6.client1.ppp[0].ppp packetDropInterfaceDown:vector(packetBytes):sumweights 0
scalar TwoHosts6.client1.ppp[0].ppp packetDropInterfaceDown:vector(packetBytes):mean nan
scalar TwoHosts6.client1.ppp[0].ppp packetDropInterfaceDown:vector(packetBytes):stddev nan
scalar TwoHosts6.client1.ppp[0].ppp packetDropInterfaceDown:vector(packetBytes):min inf
scalar TwoHosts6.client1.ppp[0].ppp packetDropInterfaceDown:vector(packetBytes):max -inf
scalar TwoHosts6.client1.ppp[0].ppp packetDropInterfaceDown:vector(packetBytes):starttime nan
scalar TwoHosts6.client1.ppp[0].ppp packetDropInterfaceDown:vector(packetBytes):endtime nan
scalar TwoHosts6.client1.ppp[0].ppp rcvdPkFromHl:vector(packetBytes):count 44
scalar TwoHosts6.client1.ppp[0].ppp rcvdPkFromHl:vector(packetBytes):sum 43112
scalar TwoHosts6.client1.ppp[0].ppp rcvdPkFromHl:vector(packetBytes):sumweights 44
scalar TwoHosts6.client1.ppp[0].ppp rcvdPkFromHl:vector(packetBytes):mean 979.8181818181819
scalar TwoHosts6.client1.ppp[0].ppp rcvdPkFromHl:vector(packetBytes):stddev 294.8765033363511
scalar TwoHosts6.client1.ppp[0].ppp rcvdPkFromHl:vector(packetBytes):min 56
scalar TwoHosts6.client1.ppp[0].ppp rcvdPkFromHl:vector(packetBytes):max 1072
scalar TwoHosts6.client1.ppp[0].ppp rcvdPkFromHl:vector(packetBytes):starttime 0.7616580222270002
scalar TwoHosts6.client1.ppp[0].ppp rcvdPkFromHl:vector(packetBytes):endtime 10.835436121142003
scalar TwoHosts6.client1.ppp[0].ppp passedUpPk:vector(packetBytes):count 4
scalar TwoHosts6.client1.ppp[0].ppp passedUpPk:vector(packetBytes):sum 232
scalar TwoHosts6.client1.ppp[0].ppp passedUpPk:vector(packetBytes):sumweights 4
scalar TwoHosts6.client1.ppp[0].ppp passedUpPk:vector(packetBytes):mean 58
scalar TwoHosts6.client1.ppp[0].ppp passedUpPk:vector(packetBytes):stddev 4
scalar TwoHosts6.client1.ppp[0].ppp passedUpPk:vector(packetBytes):min 56
scalar TwoHosts6.client1.ppp[0].ppp passedUpPk:vector(packetBytes):max 64
scalar TwoHosts6.client1.ppp[0].ppp passedUpPk:vector(packetBytes):starttime 0.9148242719100003
scalar TwoHosts6.client1.ppp[0].ppp passedUpPk:vector(packetBytes):endtime 11.598148377996003
scalar TwoHosts6.client1.ppp[0] packetDropInterfaceDown:vector(packetBytes):count 0
scalar TwoHosts6.client1.ppp[0] packetDropInterfaceDown:vector(packetBytes):sum 0
scalar TwoHosts6.client1.ppp[0] packetDropInterfaceDown:vector(packetBytes):sumweights 0
scalar TwoHosts6.client1.ppp[0] packetDropInterfaceDown:vector(packetBytes):mean nan
scalar TwoHosts6.client1.ppp[0] packetDropInterfaceDown:vector(packetBytes):stddev nan
scalar TwoHosts6.client1.ppp[0] packetDropInterfaceDown:vector(packetBytes):min inf
scalar TwoHosts6.client1.ppp[0] packetDropInterfaceDown:vector(packetBytes):max -inf
scalar TwoHosts6.client1.ppp[0] packetDropInterfaceDown:vector(packetBytes):starttime nan
scalar TwoHosts6.client1.ppp[0] packetDropInterfaceDown:vector(packetBytes):endtime nan
scalar TwoHosts6.client1.ppp[0] packetDropNoCarrier:vector(packetBytes):count 0
scalar TwoHosts6.client1.ppp[0] packetDropNoCarrier:vector(packetBytes):sum 0
scalar TwoHosts6.client1.ppp[0] packetDropNoCarrier:vector(packetBytes):sumweights 0
scalar TwoHosts6.client1.ppp[0] packetDropNoCarrier:vector(packetBytes):mean nan
scalar TwoHosts6.client1.ppp[0] packetDropNoCarrier:vector(packetBytes):stddev nan
scalar TwoHosts6.client1.ppp[0] packetDropNoCarrier:vector(packetBytes):min inf
scalar TwoHosts6.client1.ppp[0] packetDropNoCarrier:vector(packetBytes):max -inf
scalar TwoHosts6.client1.ppp[0] packetDropNoCarrier:vector(packetBytes):starttime nan
scalar TwoHosts6.client1.ppp[0] packetDropNoCarrier:vector(packetBytes):endtime nan
scalar TwoHosts6.client1.ipv6.neighbourDiscovery startDad:vector:count 1
scalar TwoHosts6.client1.ipv6.neighbourDiscovery startDad:vector:sum 1
scalar TwoHosts6.client1.ipv6.neighbourDiscovery startDad:vector:sumweights 1
scalar TwoHosts6.client1.ipv6.neighbourDiscovery startDad:vector:mean 1
scalar TwoHosts6.client1.ipv6.neighbourDiscovery startDad:vector:stddev nan
scalar TwoHosts6.client1.ipv6.neighbourDiscovery startDad:vector:min 1
scalar TwoHosts6.client1.ipv6.neighbourDiscovery startDad:vector:max 1
scalar TwoHosts6.client1.ipv6.neighbourDiscovery startDad:vector:starttime 0.7616580222270002
scalar TwoHosts6.client1.ipv6.neighbourDiscovery startDad:vector:endtime 0.7616580222270002
scalar TwoHosts6.client1.ipv6.neighbourDiscovery dadCompleted:vector:count 1
scalar TwoHosts6.client1.ipv6.neighbourDiscovery dadCompleted:vector:sum 1
scalar TwoHosts6.client1.ipv6.neighbourDiscovery dadCompleted:vector:sumweights 1
scalar TwoHosts6.client1.ipv6.neighbourDiscovery dadCompleted:vector:mean 1
scalar TwoHosts6.client1.ipv6.neighbourDiscovery dadCompleted:vector:stddev nan
scalar TwoHosts6.client1.ipv6.neighbourDiscovery dadCompleted:vector:min 1
scalar TwoHosts6.client1.ipv6.neighbourDiscovery dadCompleted:vector:max 1
scalar TwoHosts6.client1.ipv6.neighbourDiscovery dadCompleted:vector:starttime 2.3065411996100007
scalar TwoHosts6.client1.ipv6.neighbourDiscovery dadCompleted:vector:endtime 2.3065411996100007
scalar TwoHosts6.client1.ipv6.neighbourDiscovery dadFailed:vector:count 0
scalar TwoHosts6.client1.ipv6.neighbourDiscovery dadFailed:vector:sum 0
scalar TwoHosts6.client1.ipv6.neighbourDiscovery dadFailed:vector:sumweights 0
scalar TwoHosts6.client1.ipv6.neighbourDiscovery dadFailed:vector:mean nan
scalar TwoHosts6.client1.ipv6.neighbourDiscovery dadFailed:vector:stddev nan
scalar TwoHosts6.client1.ipv6.neighbourDiscovery dadFailed:vector:min inf
scalar TwoHosts6.client1.ipv6.neighbourDiscovery dadFailed:vector:max -inf
scalar TwoHosts6.client1.ipv6.neighbourDiscovery dadFailed:vector:starttime nan
scalar TwoHosts6.client1.ipv6.neighbourDiscovery dadFailed:vector:endtime nan
scalar TwoHosts6.client1.ipv6.ipsec inProtectedAccept:vector:count 0
scalar TwoHosts6.client1.ipv6.ipsec inProtectedAccept:vector:sum 0
scalar TwoHosts6.client1.ipv6.ipsec inProtectedAccept:vector:sumweights 0
scalar TwoHosts6.client1.ipv6.ipsec inProtectedAccept:vector:mean nan
scalar TwoHosts6.client1.ipv6.ipsec inProtectedAccept:vector:stddev nan
scalar TwoHosts6.client1.ipv6.ipsec inProtectedAccept:vector:min inf
scalar TwoHosts6.client1.ipv6.ipsec inProtectedAccept:vector:max -inf
scalar TwoHosts6.client1.ipv6.ipsec inProtectedAccept:vector:starttime nan
scalar TwoHosts6.client1.ipv6.ipsec inProtectedAccept:vector:endtime nan
scalar TwoHosts6.client1.ipv6.ipsec inProtectedDrop:vector:count 0
scalar TwoHosts6.client1.ipv6.ipsec inProtectedDrop:vector:sum 0
scalar TwoHosts6.client1.ipv6.ipsec inProtectedDrop:vector:sumweights 0
scalar TwoHosts6.client1.ipv6.ipsec inProtectedDrop:vector:mean nan
scalar TwoHosts6.client1.ipv6.ipsec inProtectedDrop:vector:stddev nan
scalar TwoHosts6.client1.ipv6.ipsec inProtectedDrop:vector:min inf
scalar TwoHosts6.client1.ipv6.ipsec inProtectedDrop:vector:max -inf
scalar TwoHosts6.client1.ipv6.ipsec inProtectedDrop:vector:starttime nan
scalar TwoHosts6.client1.ipv6.ipsec inProtectedDrop:vector:endtime nan
scalar TwoHosts6.client1.ipv6.ipsec inUnprotectedBypass:vector:count 4
scalar TwoHosts6.client1.ipv6.ipsec inUnprotectedBypass:vector:sum 4
scalar TwoHosts6.client1.ipv6.ipsec inUnprotectedBypass:vector:sumweights 4
scalar TwoHosts6.client1.ipv6.ipsec inUnprotectedBypass:vector:mean 1
scalar TwoHosts6.client1.ipv6.ipsec inUnprotectedBypass:vector:stddev 0
scalar TwoHosts6.client1.ipv6.ipsec inUnprotectedBypass:vector:min 1
scalar TwoHosts6.client1.ipv6.ipsec inUnprotectedBypass:vector:max 1
scalar TwoHosts6.client1.ipv6.ipsec inUnprotectedBypass:vector:starttime 0.9148242719100003
scalar TwoHosts6.client1.ipv6.ipsec inUnprotectedBypass:vector:endtime 11.598148377996003
scalar TwoHosts6.client1.ipv6.ipsec inUnprotectedDrop:vector:count 0
scalar TwoHosts6.client1.ipv6.ipsec inUnprotectedDrop:vector:sum 0
scalar TwoHosts6.client1.ipv6.ipsec inUnprotectedDrop:vector:sumweights 0
scalar TwoHosts6.client1.ipv6.ipsec inUnprotectedDrop:vector:mean nan
scalar TwoHosts6.client1.ipv6.ipsec inUnprotectedDrop:vector:stddev nan
scalar TwoHosts6.client1.ipv6.ipsec inUnprotectedDrop:vector:min inf
scalar TwoHosts6.client1.ipv6.ipsec inUnprotectedDrop:vector:max -inf
scalar TwoHosts6.client1.ipv6.ipsec inUnprotectedDrop:vector:starttime nan
scalar TwoHosts6.client1.ipv6.ipsec inUnprotectedDrop:vector:endtime nan
scalar TwoHosts6.client1.ipv6.ipsec outBypass:vector:count 44
scalar TwoHosts6.client1.ipv6.ipsec outBypass:vector:sum 44
scalar TwoHosts6.client1.ipv6.ipsec outBypass:vector:sumweights 44
scalar TwoHosts6.client1.ipv6.ipsec outBypass:vector:mean 1
scalar TwoHosts6.client1.ipv6.ipsec outBypass:vector:stddev 0
scalar TwoHosts6.client1.ipv6.ipsec outBypass:vector:min 1
scalar TwoHosts6.client1.ipv6.ipsec outBypass:vector:max 1
scalar TwoHosts6.client1.ipv6.ipsec outBypass:vector:starttime 0.7616580222270002
scalar TwoHosts6.client1.ipv6.ipsec outBypass:vector:endtime 10.835436121142003
scalar TwoHosts6.client1.ipv6.ipsec outProtect:vector:count 0
scalar TwoHosts6.client1.ipv6.ipsec outProtect:vector:sum 0
scalar TwoHosts6.client1.ipv6.ipsec outProtect:vector:sumweights 0
scalar TwoHosts6.client1.ipv6.ipsec outProtect:vector:mean nan
scalar TwoHosts6.client1.ipv6.ipsec outProtect:vector:stddev nan
scalar TwoHosts6.client1.ipv6.ipsec outProtect:vector:min inf
scalar TwoHosts6.client1.ipv6.ipsec outProtect:vector:max -inf
scalar TwoHosts6.client1.ipv6.ipsec outProtect:vector:starttime nan
scalar TwoHosts6.client1.ipv6.ipsec outProtect:vector:endtime nan
scalar TwoHosts6.client1.ipv6.ipsec outDrop:vector:count 0
scalar TwoHosts6.client1.ipv6.ipsec outDrop:vector:sum 0
scalar TwoHosts6.client1.ipv6.ipsec outDrop:vector:sumweights 0
scalar TwoHosts6.client1.ipv6.ipsec outDrop:vector:mean nan
scalar TwoHosts6.client1.ipv6.ipsec outDrop:vector:stddev nan
scalar TwoHosts6.client1.ipv6.ipsec outDrop:vector:min inf
scalar TwoHosts6.client1.ipv6.ipsec outDrop:vector:max -inf
scalar TwoHosts6.client1.ipv6.ipsec outDrop:vector:starttime nan
scalar TwoHosts6.client1.ipv6.ipsec outDrop:vector:endtime nan
scalar TwoHosts6.client1.ipv6.ipsec inProcessDelay:vector:count 0
scalar TwoHosts6.client1.ipv6.ipsec inProcessDelay:vector:sum 0
scalar TwoHosts6.client1.ipv6.ipsec inProcessDelay:vector:sumweights 0
scalar TwoHosts6.client1.ipv6.ipsec inProcessDelay:vector:mean nan
scalar TwoHosts6.client1.ipv6.ipsec inProcessDelay:vector:stddev nan
scalar TwoHosts6.client1.ipv6.ipsec inProcessDelay:vector:min inf
scalar TwoHosts6.client1.ipv6.ipsec inProcessDelay:vector:max -inf
scalar TwoHosts6.client1.ipv6.ipsec inProcessDelay:vector:starttime nan
scalar TwoHosts6.client1.ipv6.ipsec inProcessDelay:vector:endtime nan
scalar TwoHosts6.client1.ipv6.ipsec outProcessDelay:vector:count 0
scalar TwoHosts6.client1.ipv6.ipsec outProcessDelay:vector:sum 0
scalar TwoHosts6.client1.ipv6.ipsec outProcessDelay:vector:sumweights 0
scalar TwoHosts6.client1.ipv6.ipsec outProcessDelay:vector:mean nan
scalar TwoHosts6.client1.ipv6.ipsec outProcessDelay:vector:stddev nan
scalar TwoHosts6.client1.ipv6.ipsec outProcessDelay:vector:min inf
scalar TwoHosts6.client1.ipv6.ipsec outProcessDelay:vector:max -inf
scalar TwoHosts6.client1.ipv6.ipsec outProcessDelay:vector:starttime nan
scalar TwoHosts6.client1.ipv6.ipsec outProcessDelay:vector:endtime nan
scalar TwoHosts6.client1.udp packetSent:vector(packetBytes):count 40
scalar TwoHosts6.client1.udp packetSent:vector(packetBytes):sum 41280
scalar TwoHosts6.client1.udp packetSent:vector(packetBytes):sumweights 40
scalar TwoHosts6.client1.udp packetSent:vector(packetBytes):mean 1032
scalar TwoHosts6.client1.udp packetSent:vector(packetBytes):stddev 0
scalar TwoHosts6.client1.udp packetSent:vector(packetBytes):min 1032
scalar TwoHosts6.client1.udp packetSent:vector(packetBytes):max 1032
scalar TwoHosts6.client1.udp packetSent:vector(packetBytes):starttime 1
scalar TwoHosts6.client1.udp packetSent:vector(packetBytes):endtime 4.9
scalar TwoHosts6.client1.udp outgoingDataRate:vector:count 2000
scalar TwoHosts6.client1.udp outgoingDataRate:vector:sum 3302400
scalar TwoHosts6.client1.udp outgoingDataRate:vector:sumweights 2000
scalar TwoHosts6.client1.udp outgoingDataRate:vector:mean 1651.2
scalar TwoHosts6.client1.udp outgoingDataRate:vector:stddev 11561.290684051697
scalar TwoHosts6.client1.udp outgoingDataRate:vector:min 0
scalar TwoHosts6.client1.udp outgoingDataRate:vector:max 82560
scalar TwoHosts6.client1.udp outgoingDataRate:vector:starttime 0.1
scalar TwoHosts6.client1.udp outgoingDataRate:vector:endtime 200
scalar TwoHosts6.client1.udp packetReceived:vector(packetBytes):count 0
scalar TwoHosts6.client1.udp packetReceived:vector(packetBytes):sum 0
scalar TwoHosts6.client1.udp packetReceived:vector(packetBytes):sumweights 0
scalar TwoHosts6.client1.udp packetReceived:vector(packetBytes):mean nan
scalar TwoHosts6.client1.udp packetReceived:vector(packetBytes):stddev nan
scalar TwoHosts6.client1.udp packetReceived:vector(packetBytes):min inf
scalar TwoHosts6.client1.udp packetReceived:vector(packetBytes):max -inf
scalar TwoHosts6.client1.udp packetReceived:vector(packetBytes):starttime nan
scalar TwoHosts6.client1.udp packetReceived:vector(packetBytes):endtime nan
scalar TwoHosts6.client1.udp passedUpPk:vector(count):count 1
scalar TwoHosts6.client1.udp passedUpPk:vector(count):sum 0
scalar TwoHosts6.client1.udp passedUpPk:vector(count):sumweights 1
scalar TwoHosts6.client1.udp passedUpPk:vector(count):mean 0
scalar TwoHosts6.client1.udp passedUpPk:vector(count):stddev nan
scalar TwoHosts6.client1.udp passedUpPk:vector(count):min 0
scalar TwoHosts6.client1.udp passedUpPk:vector(count):max 0
scalar TwoHosts6.client1.udp passedUpPk:vector(count):starttime 0
scalar TwoHosts6.client1.udp passedUpPk:vector(count):endtime 0
scalar TwoHosts6.client1.udp droppedPkWrongPort:vector(count):count 1
scalar TwoHosts6.client1.udp droppedPkWrongPort:vector(count):sum 0
scalar TwoHosts6.client1.udp droppedPkWrongPort:vector(count):sumweights 1
scalar TwoHosts6.client1.udp droppedPkWrongPort:vector(count):mean 0
scalar TwoHosts6.client1.udp droppedPkWrongPort:vector(count):stddev nan
scalar TwoHosts6.client1.udp droppedPkWrongPort:vector(count):min 0
scalar TwoHosts6.client1.udp droppedPkWrongPort:vector(count):max 0
scalar TwoHosts6.client1.udp droppedPkWrongPort:vector(count):starttime 0
scalar TwoHosts6.client1.udp droppedPkWrongPort:vector(count):endtime 0
scalar TwoHosts6.client1.udp droppedPkBadChecksum:vector(count):count 1
scalar TwoHosts6.client1.udp droppedPkBadChecksum:vector(count):sum 0
scalar TwoHosts6.client1.udp droppedPkBadChecksum:vector(count):sumweights 1
scalar TwoHosts6.client1.udp droppedPkBadChecksum:vector(count):mean 0
scalar TwoHosts6.client1.udp droppedPkBadChecksum:vector(count):stddev nan
scalar TwoHosts6.client1.udp droppedPkBadChecksum:vector(count):min 0
scalar TwoHosts6.client1.udp droppedPkBadChecksum:vector(count):max 0
scalar TwoHosts6.client1.udp droppedPkBadChecksum:vector(count):starttime 0
scalar TwoHosts6.client1.udp droppedPkBadChecksum:vector(count):endtime 0
scalar TwoHosts6.client1.app[0] packetReceived:vector(packetBytes):count 0
scalar TwoHosts6.client1.app[0] packetReceived:vector(packetBytes):sum 0
scalar TwoHosts6.client1.app[0] packetReceived:vector(packetBytes):sumweights 0
scalar TwoHosts6.client1.app[0] packetReceived:vector(packetBytes):mean nan
scalar TwoHosts6.client1.app[0] packetReceived:vector(packetBytes):stddev nan
scalar TwoHosts6.client1.app[0] packetReceived:vector(packetBytes):min inf
scalar TwoHosts6.client1.app[0] packetReceived:vector(packetBytes):max -inf
scalar TwoHosts6.client1.app[0] packetReceived:vector(packetBytes):starttime nan
scalar TwoHosts6.client1.app[0] packetReceived:vector(packetBytes):endtime nan
scalar TwoHosts6.client1.app[0] throughput:vector:count 2000
scalar TwoHosts6.client1.app[0] throughput:vector:sum 0
scalar TwoHosts6.client1.app[0] throughput:vector:sumweights 2000
scalar TwoHosts6.client1.app[0] throughput:vector:mean 0
scalar TwoHosts6.client1.app[0] throughput:vector:stddev 0
scalar TwoHosts6.client1.app[0] throughput:vector:min 0
scalar TwoHosts6.client1.app[0] throughput:vector:max 0
scalar TwoHosts6.client1.app[0] throughput:vector:starttime 0.1
scalar TwoHosts6.client1.app[0] throughput:vector:endtime 200
scalar TwoHosts6.client1.app[0] packetSent:vector(packetBytes):count 40
scalar TwoHosts6.client1.app[0] packetSent:vector(packetBytes):sum 40960
scalar TwoHosts6.client1.app[0] packetSent:vector(packetBytes):sumweights 40
scalar TwoHosts6.client1.app[0] packetSent:vector(packetBytes):mean 1024
scalar TwoHosts6.client1.app[0] packetSent:vector(packetBytes):stddev 0
scalar TwoHosts6.client1.app[0] packetSent:vector(packetBytes):min 1024
scalar TwoHosts6.client1.app[0] packetSent:vector(packetBytes):max 1024
scalar TwoHosts6.client1.app[0] packetSent:vector(packetBytes):starttime 1
scalar TwoHosts6.client1.app[0] packetSent:vector(packetBytes):endtime 4.9
scalar TwoHosts6.client1.app[0] rcvdPkLifetime:vector:count 0
scalar TwoHosts6.client1.app[0] rcvdPkLifetime:vector:sum 0
scalar TwoHosts6.client1.app[0] rcvdPkLifetime:vector:sumweights 0
scalar TwoHosts6.client1.app[0] rcvdPkLifetime:vector:mean nan
scalar TwoHosts6.client1.app[0] rcvdPkLifetime:vector:stddev nan
scalar TwoHosts6.client1.app[0] rcvdPkLifetime:vector:min inf
scalar TwoHosts6.client1.app[0] rcvdPkLifetime:vector:max -inf
scalar TwoHosts6.client1.app[0] rcvdPkLifetime:vector:starttime nan
scalar TwoHosts6.client1.app[0] rcvdPkLifetime:vector:endtime nan
scalar TwoHosts6.client1.app[0] rcvdPkSeqNo:vector:count 0
scalar TwoHosts6.client1.app[0] rcvdPkSeqNo:vector:sum 0
scalar TwoHosts6.client1.app[0] rcvdPkSeqNo:vector:sumweights 0
scalar TwoHosts6.client1.app[0] rcvdPkSeqNo:vector:mean nan
scalar TwoHosts6.client1.app[0] rcvdPkSeqNo:vector:stddev nan
scalar TwoHosts6.client1.app[0] rcvdPkSeqNo:vector:min inf
scalar TwoHosts6.client1.app[0] rcvdPkSeqNo:vector:max -inf
scalar TwoHosts6.client1.app[0] rcvdPkSeqNo:vector:starttime nan
scalar TwoHosts6.client1.app[0] rcvdPkSeqNo:vector:endtime nan
scalar TwoHosts6.server.lo[0].lo rcvdPkFromHl:vector(packetBytes):count 0
scalar TwoHosts6.server.lo[0].lo rcvdPkFromHl:vector(packetBytes):sum 0
scalar TwoHosts6.server.lo[0].lo rcvdPkFromHl:vector(packetBytes):sumweights 0
scalar TwoHosts6.server.lo[0].lo rcvdPkFromHl:vector(packetBytes):mean nan
scalar TwoHosts6.server.lo[0].lo rcvdPkFromHl:vector(packetBytes):stddev nan
scalar TwoHosts6.server.lo[0].lo rcvdPkFromHl:vector(packetBytes):min inf
scalar TwoHosts6.server.lo[0].lo rcvdPkFromHl:vector(packetBytes):max -inf
scalar TwoHosts6.server.lo[0].lo rcvdPkFromHl:vector(packetBytes):starttime nan
scalar TwoHosts6.server.lo[0].lo rcvdPkFromHl:vector(packetBytes):endtime nan
scalar TwoHosts6.server.lo[0].lo passedUpPk:vector(packetBytes):count 0
scalar TwoHosts6.server.lo[0].lo passedUpPk:vector(packetBytes):sum 0
scalar TwoHosts6.server.lo[0].lo passedUpPk:vector(packetBytes):sumweights 0
scalar TwoHosts6.server.lo[0].lo passedUpPk:vector(packetBytes):mean nan
scalar TwoHosts6.server.lo[0].lo passedUpPk:vector(packetBytes):stddev nan
scalar TwoHosts6.server.lo[0].lo passedUpPk:vector(packetBytes):min inf
scalar TwoHosts6.server.lo[0].lo passedUpPk:vector(packetBytes):max -inf
scalar TwoHosts6.server.lo[0].lo passedUpPk:vector(packetBytes):starttime nan
scalar TwoHosts6.server.lo[0].lo passedUpPk:vector(packetBytes):endtime nan
scalar TwoHosts6.server.lo[0] packetDropInterfaceDown:vector(packetBytes):count 0
scalar TwoHosts6.server.lo[0] packetDropInterfaceDown:vector(packetBytes):sum 0
scalar TwoHosts6.server.lo[0] packetDropInterfaceDown:vector(packetBytes):sumweights 0
scalar TwoHosts6.server.lo[0] packetDropInterfaceDown:vector(packetBytes):mean nan
scalar TwoHosts6.server.lo[0] packetDropInterfaceDown:vector(packetBytes):stddev nan
scalar TwoHosts6.server.lo[0] packetDropInterfaceDown:vector(packetBytes):min inf
scalar TwoHosts6.server.lo[0] packetDropInterfaceDown:vector(packetBytes):max -inf
scalar TwoHosts6.server.lo[0] packetDropInterfaceDown:vector(packetBytes):starttime nan
scalar TwoHosts6.server.lo[0] packetDropInterfaceDown:vector(packetBytes):endtime nan
scalar TwoHosts6.server.lo[0] packetDropNoCarrier:vector(packetBytes):count 0
scalar TwoHosts6.server.lo[0] packetDropNoCarrier:vector(packetBytes):sum 0
scalar TwoHosts6.server.lo[0] packetDropNoCarrier:vector(packetBytes):sumweights 0
scalar TwoHosts6.server.lo[0] packetDropNoCarrier:vector(packetBytes):mean nan
scalar TwoHosts6.server.lo[0] packetDropNoCarrier:vector(packetBytes):stddev nan
scalar TwoHosts6.server.lo[0] packetDropNoCarrier:vector(packetBytes):min inf
scalar TwoHosts6.server.lo[0] packetDropNoCarrier:vector(packetBytes):max -inf
scalar TwoHosts6.server.lo[0] packetDropNoCarrier:vector(packetBytes):starttime nan
scalar TwoHosts6.server.lo[0] packetDropNoCarrier:vector(packetBytes):endtime nan
scalar TwoHosts6.server.ppp[0].queue queueLength:vector:count 9
scalar TwoHosts6.server.ppp[0].queue queueLength:vector:sum 0
scalar TwoHosts6.server.ppp[0].queue queueLength:vector:sumweights 9
scalar TwoHosts6.server.ppp[0].queue queueLength:vector:mean 0
scalar TwoHosts6.server.ppp[0].queue queueLength:vector:stddev 0
scalar TwoHosts6.server.ppp[0].queue queueLength:vector:min 0
scalar TwoHosts6.server.ppp[0].queue queueLength:vector:max 0
scalar TwoHosts6.server.ppp[0].queue queueLength:vector:starttime 0
scalar TwoHosts6.server.ppp[0].queue queueLength:vector:endtime 11.598097877996002
scalar TwoHosts6.server.ppp[0].queue queueBitLength:vector:count 9
scalar TwoHosts6.server.ppp[0].queue queueBitLength:vector:sum 0
scalar TwoHosts6.server.ppp[0].queue queueBitLength:vector:sumweights 9
scalar TwoHosts6.server.ppp[0].queue queueBitLength:vector:mean 0
scalar TwoHosts6.server.ppp[0].queue queueBitLength:vector:stddev 0
scalar TwoHosts6.server.ppp[0].queue queueBitLength:vector:min 0
scalar TwoHosts6.server.ppp[0].queue queueBitLength:vector:max 0
scalar TwoHosts6.server.ppp[0].queue queueBitLength:vector:starttime 0
scalar TwoHosts6.server.ppp[0].queue queueBitLength:vector:endtime 11.598097877996002
scalar TwoHosts6.server.ppp[0].queue queueingTime:vector:count 4
scalar TwoHosts6.server.ppp[0].queue queueingTime:vector:sum 0
scalar TwoHosts6.server.ppp[0].queue queueingTime:vector:sumweights 4
scalar TwoHosts6.server.ppp[0].queue queueingTime:vector:mean 0
scalar TwoHosts6.server.ppp[0].queue queueingTime:vector:stddev 0
scalar TwoHosts6.server.ppp[0].queue queueingTime:vector:min 0
scalar TwoHosts6.server.ppp[0].queue queueingTime:vector:max 0
scalar TwoHosts6.server.ppp[0].queue queueingTime:vector:starttime 0.9147673719100002
scalar TwoHosts6.server.ppp[0].queue queueingTime:vector:endtime 11.598097877996002
scalar TwoHosts6.server.ppp[0].queue incomingPacketLengths:vector:count 4
scalar TwoHosts6.server.ppp[0].queue incomingPacketLengths:vector:sum 1856
scalar TwoHosts6.server.ppp[0].queue incomingPacketLengths:vector:sumweights 4
scalar TwoHosts6.server.ppp[0].queue incomingPacketLengths:vector:mean 464
scalar TwoHosts6.server.ppp[0].queue incomingPacketLengths:vector:stddev 32
scalar TwoHosts6.server.ppp[0].queue incomingPacketLengths:vector:min 448
scalar TwoHosts6.server.ppp[0].queue incomingPacketLengths:vector:max 512
scalar TwoHosts6.server.ppp[0].queue incomingPacketLengths:vector:starttime 0.9147673719100002
scalar TwoHosts6.server.ppp[0].queue incomingPacketLengths:vector:endtime 11.598097877996002
scalar TwoHosts6.server.ppp[0].queue incomingDataRate:vector:count 2000
scalar TwoHosts6.server.ppp[0].queue incomingDataRate:vector:sum 18560
scalar TwoHosts6.server.ppp[0].queue incomingDataRate:vector:sumweights 2000
scalar TwoHosts6.server.ppp[0].queue incomingDataRate:vector:mean 9.28
scalar TwoHosts6.server.ppp[0].queue incomingDataRate:vector:stddev 207.72158223897665
scalar TwoHosts6.server.ppp[0].queue incomingDataRate:vector:min 0
scalar TwoHosts6.server.ppp[0].queue incomingDataRate:vector:max 5120
scalar TwoHosts6.server.ppp[0].queue incomingDataRate:vector:starttime 0.1
scalar TwoHosts6.server.ppp[0].queue incomingDataRate:vector:endtime 200
scalar TwoHosts6.server.ppp[0].queue outgoingPacketLengths:vector:count 4
scalar TwoHosts6.server.ppp[0].queue outgoingPacketLengths:vector:sum 1856
scalar TwoHosts6.server.ppp[0].queue outgoingPacketLengths:vector:sumweights 4
scalar TwoHosts6.server.ppp[0].queue outgoingPacketLengths:vector:mean 464
scalar TwoHosts6.server.ppp[0].queue outgoingPacketLengths:vector:stddev 32
scalar TwoHosts6.server.ppp[0].queue outgoingPacketLengths:vector:min 448
scalar TwoHosts6.server.ppp[0].queue outgoingPacketLengths:vector:max 512
scalar TwoHosts6.server.ppp[0].queue outgoingPacketLengths:vector:starttime 0.9147673719100002
scalar TwoHosts6.server.ppp[0].queue outgoingPacketLengths:vector:endtime 11.598097877996002
scalar TwoHosts6.server.ppp[0].queue outgoingDataRate:vector:count 2000
scalar TwoHosts6.server.ppp[0].queue outgoingDataRate:vector:sum 18560
scalar TwoHosts6.server.ppp[0].queue outgoingDataRate:vector:sumweights 2000
scalar TwoHosts6.server.ppp[0].queue outgoingDataRate:vector:mean 9.28
scalar TwoHosts6.server.ppp[0].queue outgoingDataRate:vector:stddev 207.72158223897665
scalar TwoHosts6.server.ppp[0].queue outgoingDataRate:vector:min 0
scalar TwoHosts6.server.ppp[0].queue outgoingDataRate:vector:max 5120
scalar TwoHosts6.server.ppp[0].queue outgoingDataRate:vector:starttime 0.1
scalar TwoHosts6.server.ppp[0].queue outgoingDataRate:vector:endtime 200
scalar TwoHosts6.server.ppp[0].queue droppedPacketLengthsQueueOverflow:vector:count 0
scalar TwoHosts6.server.ppp[0].queue droppedPacketLengthsQueueOverflow:vector:sum 0
scalar TwoHosts6.server.ppp[0].queue droppedPacketLengthsQueueOverflow:vector:sumweights 0
scalar TwoHosts6.server.ppp[0].queue droppedPacketLengthsQueueOverflow:vector:mean nan
scalar TwoHosts6.server.ppp[0].queue droppedPacketLengthsQueueOverflow:vector:stddev nan
scalar TwoHosts6.server.ppp[0].queue droppedPacketLengthsQueueOverflow:vector:min inf
scalar TwoHosts6.server.ppp[0].queue droppedPacketLengthsQueueOverflow:vector:max -inf
scalar TwoHosts6.server.ppp[0].queue droppedPacketLengthsQueueOverflow:vector:starttime nan
scalar TwoHosts6.server.ppp[0].queue droppedPacketLengthsQueueOverflow:vector:endtime nan
scalar TwoHosts6.server.ppp[0].queue flowQueueingTime:vector:count 0
scalar TwoHosts6.server.ppp[0].queue flowQueueingTime:vector:sum 0
scalar TwoHosts6.server.ppp[0].queue flowQueueingTime:vector:sumweights 0
scalar TwoHosts6.server.ppp[0].queue flowQueueingTime:vector:mean nan
scalar TwoHosts6.server.ppp[0].queue flowQueueingTime:vector:stddev nan
scalar TwoHosts6.server.ppp[0].queue flowQueueingTime:vector:min inf
scalar TwoHosts6.server.ppp[0].queue flowQueueingTime:vector:max -inf
scalar TwoHosts6.server.ppp[0].queue flowQueueingTime:vector:starttime nan
scalar TwoHosts6.server.ppp[0].queue flowQueueingTime:vector:endtime nan
scalar TwoHosts6.server.ppp[0].queue flowIncomingDataRate:vector:count 2000
scalar TwoHosts6.server.ppp[0].queue flowIncomingDataRate:vector:sum 0
scalar TwoHosts6.server.ppp[0].queue flowIncomingDataRate:vector:sumweights 2000
scalar TwoHosts6.server.ppp[0].queue flowIncomingDataRate:vector:mean 0
scalar TwoHosts6.server.ppp[0].queue flowIncomingDataRate:vector:stddev 0
scalar TwoHosts6.server.ppp[0].queue flowIncomingDataRate:vector:min 0
scalar TwoHosts6.server.ppp[0].queue flowIncomingDataRate:vector:max 0
scalar TwoHosts6.server.ppp[0].queue flowIncomingDataRate:vector:starttime 0.1
scalar TwoHosts6.server.ppp[0].queue flowIncomingDataRate:vector:endtime 200
scalar TwoHosts6.server.ppp[0].queue flowOutgoingDataRate:vector:count 2000
scalar TwoHosts6.server.ppp[0].queue flowOutgoingDataRate:vector:sum 0
scalar TwoHosts6.server.ppp[0].queue flowOutgoingDataRate:vector:sumweights 2000
scalar TwoHosts6.server.ppp[0].queue flowOutgoingDataRate:vector:mean 0
scalar TwoHosts6.server.ppp[0].queue flowOutgoingDataRate:vector:stddev 0
scalar TwoHosts6.server.ppp[0].queue flowOutgoingDataRate:vector:min 0
scalar TwoHosts6.server.ppp[0].queue flowOutgoingDataRate:vector:max 0
scalar TwoHosts6.server.ppp[0].queue flowOutgoingDataRate:vector:starttime 0.1
scalar TwoHosts6.server.ppp[0].queue flowOutgoingDataRate:vector:endtime 200
scalar TwoHosts6.server.ppp[0].ppp transmissionState:vector:count 9
scalar TwoHosts6.server.ppp[0].ppp transmissionState:vector:sum 4
scalar TwoHosts6.server.ppp[0].ppp transmissionState:vector:sumweights 9
scalar TwoHosts6.server.ppp[0].ppp transmissionState:vector:mean 0.4444444444444444
scalar TwoHosts6.server.ppp[0].ppp transmissionState:vector:stddev 0.5270462766947299
scalar TwoHosts6.server.ppp[0].ppp transmissionState:vector:min 0
scalar TwoHosts6.server.ppp[0].ppp transmissionState:vector:max 1
scalar TwoHosts6.server.ppp[0].ppp transmissionState:vector:starttime 0
scalar TwoHosts6.server.ppp[0].ppp transmissionState:vector:endtime 11.598148277996001
scalar TwoHosts6.server.ppp[0].ppp txPk:vector(packetBytes):count 4
scalar TwoHosts6.server.ppp[0].ppp txPk:vector(packetBytes):sum 260
scalar TwoHosts6.server.ppp[0].ppp txPk:vector(packetBytes):sumweights 4
scalar TwoHosts6.server.ppp[0].ppp txPk:vector(packetBytes):mean 65
scalar TwoHosts6.server.ppp[0].ppp txPk:vector(packetBytes):stddev 4
scalar TwoHosts6.server.ppp[0].ppp txPk:vector(packetBytes):min 63
scalar TwoHosts6.server.ppp[0].ppp txPk:vector(packetBytes):max 71
scalar TwoHosts6.server.ppp[0].ppp txPk:vector(packetBytes):starttime 0.9147673719100002
scalar TwoHosts6.server.ppp[0].ppp txPk:vector(packetBytes):endtime 11.598097877996002
scalar TwoHosts6.server.ppp[0].ppp rxPkOk:vector(packetBytes):count 44
scalar TwoHosts6.server.ppp[0].ppp rxPkOk:vector(packetBytes):sum 43420
scalar TwoHosts6.server.ppp[0].ppp rxPkOk:vector(packetBytes):sumweights 44
scalar TwoHosts6.server.ppp[0].ppp rxPkOk:vector(packetBytes):mean 986.8181818181819
scalar TwoHosts6.server.ppp[0].ppp rxPkOk:vector(packetBytes):stddev 294.8765033363511
scalar TwoHosts6.server.ppp[0].ppp rxPkOk:vector(packetBytes):min 63
scalar TwoHosts6.server.ppp[0].ppp rxPkOk:vector(packetBytes):max 1079
scalar TwoHosts6.server.ppp[0].ppp rxPkOk:vector(packetBytes):starttime 0.7617149222270001
scalar TwoHosts6.server.ppp[0].ppp rxPkOk:vector(packetBytes):endtime 10.835486621142001
scalar TwoHosts6.server.ppp[0].ppp packetDropIncorrectlyReceived:vector(packetBytes):count 0
scalar TwoHosts6.server.ppp[0].ppp packetDropIncorrectlyReceived:vector(packetBytes):sum 0
scalar TwoHosts6.server.ppp[0].ppp packetDropIncorrectlyReceived:vector(packetBytes):sumweights 0
scalar TwoHosts6.server.ppp[0].ppp packetDropIncorrectlyReceived:vector(packetBytes):mean nan
scalar TwoHosts6.server.ppp[0].ppp packetDropIncorrectlyReceived:vector(packetBytes):stddev nan
scalar TwoHosts6.server.ppp[0].ppp packetDropIncorrectlyReceived:vector(packetBytes):min inf
scalar TwoHosts6.server.ppp[0].ppp packetDropIncorrectlyReceived:vector(packetBytes):max -inf
scalar TwoHosts6.server.ppp[0].ppp packetDropIncorrectlyReceived:vector(packetBytes):starttime nan
scalar TwoHosts6.server.ppp[0].ppp packetDropIncorrectlyReceived:vector(packetBytes):endtime nan
scalar TwoHosts6.server.ppp[0].ppp packetDropInterfaceDown:vector(packetBytes):count 0
scalar TwoHosts6.server.ppp[0].ppp packetDropInterfaceDown:vector(packetBytes):sum 0
scalar TwoHosts6.server.ppp[0].ppp packetDropInterfaceDown:vector(packetBytes):sumweights 0
scalar TwoHosts6.server.ppp[0].ppp packetDropInterfaceDown:vector(packetBytes):mean nan
scalar TwoHosts6.server.ppp[0].ppp packetDropInterfaceDown:vector(packetBytes):stddev nan
scalar TwoHosts6.server.ppp[0].ppp packetDropInterfaceDown:vector(packetBytes):min inf
scalar TwoHosts6.server.ppp[0].ppp packetDropInterfaceDown:vector(packetBytes):max -inf
scalar TwoHosts6.server.ppp[0].ppp packetDropInterfaceDown:vector(packetBytes):starttime nan
scalar TwoHosts6.server.ppp[0].ppp packetDropInterfaceDown:vector(packetBytes):endtime nan
scalar TwoHosts6.server.ppp[0].ppp rcvdPkFromHl:vector(packetBytes):count 4
scalar TwoHosts6.server.ppp[0].ppp rcvdPkFromHl:vector(packetBytes):sum 232
scalar TwoHosts6.server.ppp[0].ppp rcvdPkFromHl:vector(packetBytes):sumweights 4
scalar TwoHosts6.server.ppp[0].ppp rcvdPkFromHl:vector(packetBytes):mean 58
scalar TwoHosts6.server.ppp[0].ppp rcvdPkFromHl:vector(packetBytes):stddev 4
scalar TwoHosts6.server.ppp[0].ppp rcvdPkFromHl:vector(packetBytes):min 56
scalar TwoHosts6.server.ppp[0].ppp rcvdPkFromHl:vector(packetBytes):max 64
scalar TwoHosts6.server.ppp[0].ppp rcvdPkFromHl:vector(packetBytes):starttime 0.9147673719100002
scalar TwoHosts6.server.ppp[0].ppp rcvdPkFromHl:vector(packetBytes):endtime 11.598097877996002
scalar TwoHosts6.server.ppp[0].ppp passedUpPk:vector(packetBytes):count 44
scalar TwoHosts6.server.ppp[0].ppp passedUpPk:vector(packetBytes):sum 43112
scalar TwoHosts6.server.ppp[0].ppp passedUpPk:vector(packetBytes):sumweights 44
scalar TwoHosts6.server.ppp[0].ppp passedUpPk:vector(packetBytes):mean 979.8181818181819
scalar TwoHosts6.server.ppp[0].ppp passedUpPk:vector(packetBytes):stddev 294.8765033363511
scalar TwoHosts6.server.ppp[0].ppp passedUpPk:vector(packetBytes):min 56
scalar TwoHosts6.server.ppp[0].ppp passedUpPk:vector(packetBytes):max 1072
scalar TwoHosts6.server.ppp[0].ppp passedUpPk:vector(packetBytes):starttime 0.7617149222270001
scalar TwoHosts6.server.ppp[0].ppp passedUpPk:vector(packetBytes):endtime 10.835486621142001
scalar TwoHosts6.server.ppp[0] packetDropInterfaceDown:vector(packetBytes):count 0
scalar TwoHosts6.server.ppp[0] packetDropInterfaceDown:vector(packetBytes):sum 0
scalar TwoHosts6.server.ppp[0] packetDropInterfaceDown:vector(packetBytes):sumweights 0
scalar TwoHosts6.server.ppp[0] packetDropInterfaceDown:vector(packetBytes):mean nan
scalar TwoHosts6.server.ppp[0] packetDropInterfaceDown:vector(packetBytes):stddev nan
scalar TwoHosts6.server.ppp[0] packetDropInterfaceDown:vector(packetBytes):min inf
scalar TwoHosts6.server.ppp[0] packetDropInterfaceDown:vector(packetBytes):max -inf
scalar TwoHosts6.server.ppp[0] packetDropInterfaceDown:vector(packetBytes):starttime nan
scalar TwoHosts6.server.ppp[0] packetDropInterfaceDown:vector(packetBytes):endtime nan
scalar TwoHosts6.server.ppp[0] packetDropNoCarrier:vector(packetBytes):count 0
scalar TwoHosts6.server.ppp[0] packetDropNoCarrier:vector(packetBytes):sum 0
scalar TwoHosts6.server.ppp[0] packetDropNoCarrier:vector(packetBytes):sumweights 0
scalar TwoHosts6.server.ppp[0] packetDropNoCarrier:vector(packetBytes):mean nan
scalar TwoHosts6.server.ppp[0] packetDropNoCarrier:vector(packetBytes):stddev nan
scalar TwoHosts6.server.ppp[0] packetDropNoCarrier:vector(packetBytes):min inf
scalar TwoHosts6.server.ppp[0] packetDropNoCarrier:vector(packetBytes):max -inf
scalar TwoHosts6.server.ppp[0] packetDropNoCarrier:vector(packetBytes):starttime nan
scalar TwoHosts6.server.ppp[0] packetDropNoCarrier:vector(packetBytes):endtime nan
scalar TwoHosts6.server.ipv6.neighbourDiscovery startDad:vector:count 1
scalar TwoHosts6.server.ipv6.neighbourDiscovery startDad:vector:sum 1
scalar TwoHosts6.server.ipv6.neighbourDiscovery startDad:vector:sumweights 1
scalar TwoHosts6.server.ipv6.neighbourDiscovery startDad:vector:mean 1
scalar TwoHosts6.server.ipv6.neighbourDiscovery startDad:vector:stddev nan
scalar TwoHosts6.server.ipv6.neighbourDiscovery startDad:vector:min 1
scalar TwoHosts6.server.ipv6.neighbourDiscovery startDad:vector:max 1
scalar TwoHosts6.server.ipv6.neighbourDiscovery startDad:vector:starttime 0.9147673719100002
scalar TwoHosts6.server.ipv6.neighbourDiscovery startDad:vector:endtime 0.9147673719100002
scalar TwoHosts6.server.ipv6.neighbourDiscovery dadCompleted:vector:count 1
scalar TwoHosts6.server.ipv6.neighbourDiscovery dadCompleted:vector:sum 1
scalar TwoHosts6.server.ipv6.neighbourDiscovery dadCompleted:vector:sumweights 1
scalar TwoHosts6.server.ipv6.neighbourDiscovery dadCompleted:vector:mean 1
scalar TwoHosts6.server.ipv6.neighbourDiscovery dadCompleted:vector:stddev nan
scalar TwoHosts6.server.ipv6.neighbourDiscovery dadCompleted:vector:min 1
scalar TwoHosts6.server.ipv6.neighbourDiscovery dadCompleted:vector:max 1
scalar TwoHosts6.server.ipv6.neighbourDiscovery dadCompleted:vector:starttime 2.7620191091670003
scalar TwoHosts6.server.ipv6.neighbourDiscovery dadCompleted:vector:endtime 2.7620191091670003
scalar TwoHosts6.server.ipv6.neighbourDiscovery dadFailed:vector:count 0
scalar TwoHosts6.server.ipv6.neighbourDiscovery dadFailed:vector:sum 0
scalar TwoHosts6.server.ipv6.neighbourDiscovery dadFailed:vector:sumweights 0
scalar TwoHosts6.server.ipv6.neighbourDiscovery dadFailed:vector:mean nan
scalar TwoHosts6.server.ipv6.neighbourDiscovery dadFailed:vector:stddev nan
scalar TwoHosts6.server.ipv6.neighbourDiscovery dadFailed:vector:min inf
scalar TwoHosts6.server.ipv6.neighbourDiscovery dadFailed:vector:max -inf
scalar TwoHosts6.server.ipv6.neighbourDiscovery dadFailed:vector:starttime nan
scalar TwoHosts6.server.ipv6.neighbourDiscovery dadFailed:vector:endtime nan
scalar TwoHosts6.server.ipv6.ipsec inProtectedAccept:vector:count 0
scalar TwoHosts6.server.ipv6.ipsec inProtectedAccept:vector:sum 0
scalar TwoHosts6.server.ipv6.ipsec inProtectedAccept:vector:sumweights 0
scalar TwoHosts6.server.ipv6.ipsec inProtectedAccept:vector:mean nan
scalar TwoHosts6.server.ipv6.ipsec inProtectedAccept:vector:stddev nan
scalar TwoHosts6.server.ipv6.ipsec inProtectedAccept:vector:min inf
scalar TwoHosts6.server.ipv6.ipsec inProtectedAccept:vector:max -inf
scalar TwoHosts6.server.ipv6.ipsec inProtectedAccept:vector:starttime nan
scalar TwoHosts6.server.ipv6.ipsec inProtectedAccept:vector:endtime nan
scalar TwoHosts6.server.ipv6.ipsec inProtectedDrop:vector:count 0
scalar TwoHosts6.server.ipv6.ipsec inProtectedDrop:vector:sum 0
scalar TwoHosts6.server.ipv6.ipsec inProtectedDrop:vector:sumweights 0
scalar TwoHosts6.server.ipv6.ipsec inProtectedDrop:vector:mean nan
scalar TwoHosts6.server.ipv6.ipsec inProtectedDrop:vector:stddev nan
scalar TwoHosts6.server.ipv6.ipsec inProtectedDrop:vector:min inf
scalar TwoHosts6.server.ipv6.ipsec inProtectedDrop:vector:max -inf
scalar TwoHosts6.server.ipv6.ipsec inProtectedDrop:vector:starttime nan
scalar TwoHosts6.server.ipv6.ipsec inProtectedDrop:vector:endtime nan
scalar TwoHosts6.server.ipv6.ipsec inUnprotectedBypass:vector:count 44
scalar TwoHosts6.server.ipv6.ipsec inUnprotectedBypass:vector:sum 44
scalar TwoHosts6.server.ipv6.ipsec inUnprotectedBypass:vector:sumweights 44
scalar TwoHosts6.server.ipv6.ipsec inUnprotectedBypass:vector:mean 1
scalar TwoHosts6.server.ipv6.ipsec inUnprotectedBypass:vector:stddev 0
scalar TwoHosts6.server.ipv6.ipsec inUnprotectedBypass:vector:min 1
scalar TwoHosts6.server.ipv6.ipsec inUnprotectedBypass:vector:max 1
scalar TwoHosts6.server.ipv6.ipsec inUnprotectedBypass:vector:starttime 0.7617149222270001
scalar TwoHosts6.server.ipv6.ipsec inUnprotectedBypass:vector:endtime 10.835486621142001
scalar TwoHosts6.server.ipv6.ipsec inUnprotectedDrop:vector:count 0
scalar TwoHosts6.server.ipv6.ipsec inUnprotectedDrop:vector:sum 0
scalar TwoHosts6.server.ipv6.ipsec inUnprotectedDrop:vector:sumweights 0
scalar TwoHosts6.server.ipv6.ipsec inUnprotectedDrop:vector:mean nan
scalar TwoHosts6.server.ipv6.ipsec inUnprotectedDrop:vector:stddev nan
scalar TwoHosts6.server.ipv6.ipsec inUnprotectedDrop:vector:min inf
scalar TwoHosts6.server.ipv6.ipsec inUnprotectedDrop:vector:max -inf
scalar TwoHosts6.server.ipv6.ipsec inUnprotectedDrop:vector:starttime nan
scalar TwoHosts6.server.ipv6.ipsec inUnprotectedDrop:vector:endtime nan
scalar TwoHosts6.server.ipv6.ipsec outBypass:vector:count 4
scalar TwoHosts6.server.ipv6.ipsec outBypass:vector:sum 4
scalar TwoHosts6.server.ipv6.ipsec outBypass:vector:sumweights 4
scalar TwoHosts6.server.ipv6.ipsec outBypass:vector:mean 1
scalar TwoHosts6.server.ipv6.ipsec outBypass:vector:stddev 0
scalar TwoHosts6.server.ipv6.ipsec outBypass:vector:min 1
scalar TwoHosts6.server.ipv6.ipsec outBypass:vector:max 1
scalar TwoHosts6.server.ipv6.ipsec outBypass:vector:starttime 0.9147673719100002
scalar TwoHosts6.server.ipv6.ipsec outBypass:vector:endtime 11.598097877996002
scalar TwoHosts6.server.ipv6.ipsec outProtect:vector:count 0
scalar TwoHosts6.server.ipv6.ipsec outProtect:vector:sum 0
scalar TwoHosts6.server.ipv6.ipsec outProtect:vector:sumweights 0
scalar TwoHosts6.server.ipv6.ipsec outProtect:vector:mean nan
scalar TwoHosts6.server.ipv6.ipsec outProtect:vector:stddev nan
scalar TwoHosts6.server.ipv6.ipsec outProtect:vector:min inf
scalar TwoHosts6.server.ipv6.ipsec outProtect:vector:max -inf
scalar TwoHosts6.server.ipv6.ipsec outProtect:vector:starttime nan
scalar TwoHosts6.server.ipv6.ipsec outProtect:vector:endtime nan
scalar TwoHosts6.server.ipv6.ipsec outDrop:vector:count 0
scalar TwoHosts6.server.ipv6.ipsec outDrop:vector:sum 0
scalar TwoHosts6.server.ipv6.ipsec outDrop:vector:sumweights 0
scalar TwoHosts6.server.ipv6.ipsec outDrop:vector:mean nan
scalar TwoHosts6.server.ipv6.ipsec outDrop:vector:stddev nan
scalar TwoHosts6.server.ipv6.ipsec outDrop:vector:min inf
scalar TwoHosts6.server.ipv6.ipsec outDrop:vector:max -inf
scalar TwoHosts6.server.ipv6.ipsec outDrop:vector:starttime nan
scalar TwoHosts6.server.ipv6.ipsec outDrop:vector:endtime nan
scalar TwoHosts6.server.ipv6.ipsec inProcessDelay:vector:count 0
scalar TwoHosts6.server.ipv6.ipsec inProcessDelay:vector:sum 0
scalar TwoHosts6.server.ipv6.ipsec inProcessDelay:vector:sumweights 0
scalar TwoHosts6.server.ipv6.ipsec inProcessDelay:vector:mean nan
scalar TwoHosts6.server.ipv6.ipsec inProcessDelay:vector:stddev nan
scalar TwoHosts6.server.ipv6.ipsec inProcessDelay:vector:min inf
scalar TwoHosts6.server.ipv6.ipsec inProcessDelay:vector:max -inf
scalar TwoHosts6.server.ipv6.ipsec inProcessDelay:vector:starttime nan
scalar TwoHosts6.server.ipv6.ipsec inProcessDelay:vector:endtime nan
scalar TwoHosts6.server.ipv6.ipsec outProcessDelay:vector:count 0
scalar TwoHosts6.server.ipv6.ipsec outProcessDelay:vector:sum 0
scalar TwoHosts6.server.ipv6.ipsec outProcessDelay:vector:sumweights 0
scalar TwoHosts6.server.ipv6.ipsec outProcessDelay:vector:mean nan
scalar TwoHosts6.server.ipv6.ipsec outProcessDelay:vector:stddev nan
scalar TwoHosts6.server.ipv6.ipsec outProcessDelay:vector:min inf
scalar TwoHosts6.server.ipv6.ipsec outProcessDelay:vector:max -inf
scalar TwoHosts6.server.ipv6.ipsec outProcessDelay:vector:starttime nan
scalar TwoHosts6.server.ipv6.ipsec outProcessDelay:vector:endtime nan
scalar TwoHosts6.server.udp packetSent:vector(packetBytes):count 0
scalar TwoHosts6.server.udp packetSent:vector(packetBytes):sum 0
scalar TwoHosts6.server.udp packetSent:vector(packetBytes):sumweights 0
scalar TwoHosts6.server.udp packetSent:vector(packetBytes):mean nan
scalar TwoHosts6.server.udp packetSent:vector(packetBytes):stddev nan
scalar TwoHosts6.server.udp packetSent:vector(packetBytes):min inf
scalar TwoHosts6.server.udp packetSent:vector(packetBytes):max -inf
scalar TwoHosts6.server.udp packetSent:vector(packetBytes):starttime nan
scalar TwoHosts6.server.udp packetSent:vector(packetBytes):endtime nan
scalar TwoHosts6.server.udp outgoingDataRate:vector:count 2000
scalar TwoHosts6.server.udp outgoingDataRate:vector:sum 0
scalar TwoHosts6.server.udp outgoingDataRate:vector:sumweights 2000
scalar TwoHosts6.server.udp outgoingDataRate:vector:mean 0
scalar TwoHosts6.server.udp outgoingDataRate:vector:stddev 0
scalar TwoHosts6.server.udp outgoingDataRate:vector:min 0
scalar TwoHosts6.server.udp outgoingDataRate:vector:max 0
scalar TwoHosts6.server.udp outgoingDataRate:vector:starttime 0.1
scalar TwoHosts6.server.udp outgoingDataRate:vector:endtime 200
scalar TwoHosts6.server.udp packetReceived:vector(packetBytes):count 40
scalar TwoHosts6.server.udp packetReceived:vector(packetBytes):sum 41280
scalar TwoHosts6.server.udp packetReceived:vector(packetBytes):sumweights 40
scalar TwoHosts6.server.udp packetReceived:vector(packetBytes):mean 1032
scalar TwoHosts6.server.udp packetReceived:vector(packetBytes):stddev 0
scalar TwoHosts6.server.udp packetReceived:vector(packetBytes):min 1032
scalar TwoHosts6.server.udp packetReceived:vector(packetBytes):max 1032
scalar TwoHosts6.server.udp packetReceived:vector(packetBytes):starttime 1.0008633000000002
scalar TwoHosts6.server.udp packetReceived:vector(packetBytes):endtime 4.900863300000001
scalar TwoHosts6.server.udp passedUpPk:vector(count):count 41
scalar TwoHosts6.server.udp passedUpPk:vector(count):sum 820
scalar TwoHosts6.server.udp passedUpPk:vector(count):sumweights 41
scalar TwoHosts6.server.udp passedUpPk:vector(count):mean 20
scalar TwoHosts6.server.udp passedUpPk:vector(count):stddev 11.979148550710939
scalar TwoHosts6.server.udp passedUpPk:vector(count):min 0
scalar TwoHosts6.server.udp passedUpPk:vector(count):max 40
scalar TwoHosts6.server.udp passedUpPk:vector(count):starttime 0
scalar TwoHosts6.server.udp passedUpPk:vector(count):endtime 4.900863300000001
scalar TwoHosts6.server.udp droppedPkWrongPort:vector(count):count 1
scalar TwoHosts6.server.udp droppedPkWrongPort:vector(count):sum 0
scalar TwoHosts6.server.udp droppedPkWrongPort:vector(count):sumweights 1
scalar TwoHosts6.server.udp droppedPkWrongPort:vector(count):mean 0
scalar TwoHosts6.server.udp droppedPkWrongPort:vector(count):stddev nan
scalar TwoHosts6.server.udp droppedPkWrongPort:vector(count):min 0
scalar TwoHosts6.server.udp droppedPkWrongPort:vector(count):max 0
scalar TwoHosts6.server.udp droppedPkWrongPort:vector(count):starttime 0
scalar TwoHosts6.server.udp droppedPkWrongPort:vector(count):endtime 0
scalar TwoHosts6.server.udp droppedPkBadChecksum:vector(count):count 1
scalar TwoHosts6.server.udp droppedPkBadChecksum:vector(count):sum 0
scalar TwoHosts6.server.udp droppedPkBadChecksum:vector(count):sumweights 1
scalar TwoHosts6.server.udp droppedPkBadChecksum:vector(count):mean 0
scalar TwoHosts6.server.udp droppedPkBadChecksum:vector(count):stddev nan
scalar TwoHosts6.server.udp droppedPkBadChecksum:vector(count):min 0
scalar TwoHosts6.server.udp droppedPkBadChecksum:vector(count):max 0
scalar TwoHosts6.server.udp droppedPkBadChecksum:vector(count):starttime 0
scalar TwoHosts6.server.udp droppedPkBadChecksum:vector(count):endtime 0
scalar TwoHosts6.server.app[0] packetReceived:vector(packetBytes):count 40
scalar TwoHosts6.server.app[0] packetReceived:vector(packetBytes):sum 40960
scalar TwoHosts6.server.app[0] packetReceived:vector(packetBytes):sumweights 40
scalar TwoHosts6.server.app[0] packetReceived:vector(packetBytes):mean 1024
scalar TwoHosts6.server.app[0] packetReceived:vector(packetBytes):stddev 0
scalar TwoHosts6.server.app[0] packetReceived:vector(packetBytes):min 1024
scalar TwoHosts6.server.app[0] packetReceived:vector(packetBytes):max 1024
scalar TwoHosts6.server.app[0] packetReceived:vector(packetBytes):starttime 1.0008633000000002
scalar TwoHosts6.server.app[0] packetReceived:vector(packetBytes):endtime 4.900863300000001
scalar TwoHosts6.server.app[0] throughput:vector:count 2000
scalar TwoHosts6.server.app[0] throughput:vector:sum 3276800
scalar TwoHosts6.server.app[0] throughput:vector:sumweights 2000
scalar TwoHosts6.server.app[0] throughput:vector:mean 1638.4
scalar TwoHosts6.server.app[0] throughput:vector:stddev 11471.668275648197
scalar TwoHosts6.server.app[0] throughput:vector:min 0
scalar TwoHosts6.server.app[0] throughput:vector:max 81920
scalar TwoHosts6.server.app[0] throughput:vector:starttime 0.1
scalar TwoHosts6.server.app[0] throughput:vector:endtime 200
scalar TwoHosts6.server.app[0] endToEndDelay:vector:count 40
scalar TwoHosts6.server.app[0] endToEndDelay:vector:sum 0.034532
scalar TwoHosts6.server.app[0] endToEndDelay:vector:sumweights 40
scalar TwoHosts6.server.app[0] endToEndDelay:vector:mean 0.0008633
scalar TwoHosts6.server.app[0] endToEndDelay:vector:stddev 0
scalar TwoHosts6.server.app[0] endToEndDelay:vector:min 0.0008633
scalar TwoHosts6.server.app[0] endToEndDelay:vector:max 0.0008633
scalar TwoHosts6.server.app[0] endToEndDelay:vector:starttime 1.0008633000000002
scalar TwoHosts6.server.app[0] endToEndDelay:vector:endtime 4.900863300000001
scalar TwoHosts6.server.app[0] rcvdPkSeqNo:vector:count 40
scalar TwoHosts6.server.app[0] rcvdPkSeqNo:vector:sum 780
scalar TwoHosts6.server.app[0] rcvdPkSeqNo:vector:sumweights 40
scalar TwoHosts6.server.app[0] rcvdPkSeqNo:vector:mean 19.5
scalar TwoHosts6.server.app[0] rcvdPkSeqNo:vector:stddev 11.69045194450012
scalar TwoHosts6.server.app[0] rcvdPkSeqNo:vector:min 0
scalar TwoHosts6.server.app[0] rcvdPkSeqNo:vector:max 39
scalar TwoHosts6.server.app[0] rcvdPkSeqNo:vector:starttime 1.0008633000000002
scalar TwoHosts6.server.app[0] rcvdPkSeqNo:vector:endtime 4.900863300000001

