version 3
run TCPTraffic6-0-20260630-11:06:20-3460497
attr configname TCPTraffic6
attr datetime 20260630-11:06:20
attr datetimef 20260630-110620
attr experiment TCPTraffic6
attr inifile ipv6.ini
attr iterationvars ""
attr iterationvarsd ""
attr iterationvarsf ""
attr measurement ""
attr network TwoHosts6
attr processid 3460497
attr repetition 0
attr replication #0
attr resultdir results
attr runnumber 0
attr seedset 0
config **.param-recording false
config image-path /home/andras/projects/inet/images
config output-scalar-file results/ipv6.ini-TCPTraffic6-#0.sca
config output-scalar-precision 17
config output-vector-file results/ipv6.ini-TCPTraffic6-#0.vec
config output-vector-precision 17
config record-eventlog false
config sim-time-limit 200s
config description "IPsec over IPv6 with TCP traffic"
config sim-time-limit 200s
config **.numApps 3
config **.client*.app[*].typename TcpSessionApp
config **.client*.app[*].active true
config **.client*.app[0].localPort 1000
config **.client*.app[1].localPort 1001
config **.client*.app[2].localPort 1002
config **.client*.app[*].connectAddress "\"server\""
config **.client*.app[0].connectPort 2000
config **.client*.app[1].connectPort 2001
config **.client*.app[2].connectPort 2002
config **.client*.app[*].tOpen 0.2s
config **.client*.app[*].tSend 0.4s
config **.client*.app[*].sendBytes 1000000B
config **.client*.app[*].sendScript "\"\""
config **.client*.app[*].tClose 25s
config **.server*.app[*].typename TcpEchoApp
config **.server*.app[0].localPort 2000
config **.server*.app[1].localPort 2001
config **.server*.app[2].localPort 2002
config **.server*.app[0].echoFactor 2.0
config **.server*.app[0].echoDelay 0s
config network TwoHosts6
config **.ppp[*].queueType "\"DropTailQueue\""
config **.ppp[*].queue.frameCapacity 10
config **.ipv6.configurator.networkConfiguratorModule "\"configurator\""
config **.client*.**.hasIpsec true
config **.server.**.hasIpsec true
config **.client1.**spdConfig "xmldoc(\"ipsecConfig.xml\", \"ipsecConfig/Devices/Device[@id='client1']/\")"
config **.server.**spdConfig "xmldoc(\"ipsecConfig.xml\", \"ipsecConfig/Devices/Device[@id='server']/\")"
config **.ipsec.ahProtectOutDelay 7us
config **.ipsec.ahProtectInDelay 9us
config **.ipsec.espProtectOutDelay 7us
config **.ipsec.espProtectInDelay 9us

scalar TwoHosts6.client1.lo[0].lo rcvdPkFromHl:count 0
scalar TwoHosts6.client1.lo[0].lo rcvdPkFromHl:sum(packetBytes) 0
scalar TwoHosts6.client1.lo[0].lo passedUpPk:count 0
scalar TwoHosts6.client1.lo[0].lo passedUpPk:sum(packetBytes) 0
scalar TwoHosts6.client1.lo[0] packetDropInterfaceDown:count 0
scalar TwoHosts6.client1.lo[0] packetDropInterfaceDown:sum(packetBytes) 0
scalar TwoHosts6.client1.lo[0] packetDropNoCarrier:count 0
scalar TwoHosts6.client1.lo[0] packetDropNoCarrier:sum(packetBytes) 0
scalar TwoHosts6.client1.ppp[0].queue queueLength:last 0
scalar TwoHosts6.client1.ppp[0].queue queueLength:max 45
scalar TwoHosts6.client1.ppp[0].queue queueLength:timeavg 0.427363098888865
scalar TwoHosts6.client1.ppp[0].queue queueBitLength:last 0
scalar TwoHosts6.client1.ppp[0].queue queueBitLength:max 145664
scalar TwoHosts6.client1.ppp[0].queue queueBitLength:timeavg 1176.863893447099
scalar TwoHosts6.client1.ppp[0].queue outgoingPackets:count 9342
scalar TwoHosts6.client1.ppp[0].queue outgoingPacketLengths:sum 21978080
scalar TwoHosts6.client1.ppp[0].queue incomingPackets:count 9342
scalar TwoHosts6.client1.ppp[0].queue incomingPacketLengths:sum 21978080
scalar TwoHosts6.client1.ppp[0].queue droppedPacketsQueueOverflow:count 0
scalar TwoHosts6.client1.ppp[0].queue droppedPacketLengthsQueueOverflow:sum 0
scalar TwoHosts6.client1.ppp[0].ppp transmissionState:timeavg 0.011250616
scalar TwoHosts6.client1.ppp[0].ppp rxPkOk:count 9340
scalar TwoHosts6.client1.ppp[0].ppp rxPkOk:sum(packetBytes) 3797556
scalar TwoHosts6.client1.ppp[0].ppp txPk:count 9342
scalar TwoHosts6.client1.ppp[0].ppp txPk:sum(packetBytes) 2812654
scalar TwoHosts6.client1.ppp[0].ppp rcvdPkFromHl:count 9342
scalar TwoHosts6.client1.ppp[0].ppp rcvdPkFromHl:sum(packetBytes) 2747260
scalar TwoHosts6.client1.ppp[0].ppp passedUpPk:count 9340
scalar TwoHosts6.client1.ppp[0].ppp passedUpPk:sum(packetBytes) 3732176
scalar TwoHosts6.client1.ppp[0].ppp packetDropIncorrectlyReceived:count 0
scalar TwoHosts6.client1.ppp[0].ppp packetDropIncorrectlyReceived:sum(packetBytes) 0
scalar TwoHosts6.client1.ppp[0].ppp packetDropInterfaceDown:count 0
scalar TwoHosts6.client1.ppp[0].ppp packetDropInterfaceDown:sum(packetBytes) 0
scalar TwoHosts6.client1.ppp[0] packetDropInterfaceDown:count 0
scalar TwoHosts6.client1.ppp[0] packetDropInterfaceDown:sum(packetBytes) 0
scalar TwoHosts6.client1.ppp[0] packetDropNoCarrier:count 0
scalar TwoHosts6.client1.ppp[0] packetDropNoCarrier:sum(packetBytes) 0
scalar TwoHosts6.client1.ipv6.neighbourDiscovery dadFailed:count 0
scalar TwoHosts6.client1.ipv6.neighbourDiscovery dadCompleted:count 1
scalar TwoHosts6.client1.ipv6.neighbourDiscovery startDad:count 1
scalar TwoHosts6.client1.ipv6.ipsec outDrop:count 5
scalar TwoHosts6.client1.ipv6.ipsec outProtect:count 5602
scalar TwoHosts6.client1.ipv6.ipsec outBypass:count 3740
scalar TwoHosts6.client1.ipv6.ipsec inUnprotectedDrop:count 0
scalar TwoHosts6.client1.ipv6.ipsec inUnprotectedBypass:count 3736
scalar TwoHosts6.client1.ipv6.ipsec inProtectedDrop:count 0
scalar TwoHosts6.client1.ipv6.ipsec inProtectedAccept:count 5601
scalar TwoHosts6.client1.udp packetReceived:count 0
scalar TwoHosts6.client1.udp packetReceived:sum(packetBytes) 0
scalar TwoHosts6.client1.udp packetSent:count 0
scalar TwoHosts6.client1.udp packetSent:sum(packetBytes) 0
scalar TwoHosts6.client1.udp passedUpPk:count 0
scalar TwoHosts6.client1.udp droppedPkWrongPort:count 0
scalar TwoHosts6.client1.udp droppedPkBadChecksum:count 0
scalar TwoHosts6.client1.app[0] bytesRcvd 2e+06
scalar TwoHosts6.client1.app[0] bytesSent 1e+06
scalar TwoHosts6.client1.app[0] packetReceived:count 3732
scalar TwoHosts6.client1.app[0] packetReceived:sum(packetBytes) 2e+06
scalar TwoHosts6.client1.app[0] packetSent:count 1
scalar TwoHosts6.client1.app[0] packetSent:sum(packetBytes) 1e+06
scalar TwoHosts6.client1.app[1] bytesRcvd 1e+06
scalar TwoHosts6.client1.app[1] bytesSent 1e+06
scalar TwoHosts6.client1.app[1] packetReceived:count 1866
scalar TwoHosts6.client1.app[1] packetReceived:sum(packetBytes) 1e+06
scalar TwoHosts6.client1.app[1] packetSent:count 1
scalar TwoHosts6.client1.app[1] packetSent:sum(packetBytes) 1e+06
scalar TwoHosts6.client1.app[2] bytesRcvd 0
scalar TwoHosts6.client1.app[2] bytesSent 0
scalar TwoHosts6.client1.app[2] packetReceived:count 0
scalar TwoHosts6.client1.app[2] packetReceived:sum(packetBytes) 0
scalar TwoHosts6.client1.app[2] packetSent:count 0
scalar TwoHosts6.client1.app[2] packetSent:sum(packetBytes) 0
scalar TwoHosts6.server.lo[0].lo rcvdPkFromHl:count 0
scalar TwoHosts6.server.lo[0].lo rcvdPkFromHl:sum(packetBytes) 0
scalar TwoHosts6.server.lo[0].lo passedUpPk:count 0
scalar TwoHosts6.server.lo[0].lo passedUpPk:sum(packetBytes) 0
scalar TwoHosts6.server.lo[0] packetDropInterfaceDown:count 0
scalar TwoHosts6.server.lo[0] packetDropInterfaceDown:sum(packetBytes) 0
scalar TwoHosts6.server.lo[0] packetDropNoCarrier:count 0
scalar TwoHosts6.server.lo[0] packetDropNoCarrier:sum(packetBytes) 0
scalar TwoHosts6.server.ppp[0].queue queueLength:last 0
scalar TwoHosts6.server.ppp[0].queue queueLength:max 19
scalar TwoHosts6.server.ppp[0].queue queueLength:timeavg 0.19375291611262999
scalar TwoHosts6.server.ppp[0].queue queueBitLength:last 0
scalar TwoHosts6.server.ppp[0].queue queueBitLength:max 76928
scalar TwoHosts6.server.ppp[0].queue queueBitLength:timeavg 668.411797147447
scalar TwoHosts6.server.ppp[0].queue outgoingPackets:count 9340
scalar TwoHosts6.server.ppp[0].queue outgoingPacketLengths:sum 29857408
scalar TwoHosts6.server.ppp[0].queue incomingPackets:count 9340
scalar TwoHosts6.server.ppp[0].queue incomingPacketLengths:sum 29857408
scalar TwoHosts6.server.ppp[0].queue droppedPacketsQueueOverflow:count 0
scalar TwoHosts6.server.ppp[0].queue droppedPacketLengthsQueueOverflow:sum 0
scalar TwoHosts6.server.ppp[0].ppp transmissionState:timeavg 0.015190224
scalar TwoHosts6.server.ppp[0].ppp rxPkOk:count 9342
scalar TwoHosts6.server.ppp[0].ppp rxPkOk:sum(packetBytes) 2812654
scalar TwoHosts6.server.ppp[0].ppp txPk:count 9340
scalar TwoHosts6.server.ppp[0].ppp txPk:sum(packetBytes) 3797556
scalar TwoHosts6.server.ppp[0].ppp rcvdPkFromHl:count 9340
scalar TwoHosts6.server.ppp[0].ppp rcvdPkFromHl:sum(packetBytes) 3732176
scalar TwoHosts6.server.ppp[0].ppp passedUpPk:count 9342
scalar TwoHosts6.server.ppp[0].ppp passedUpPk:sum(packetBytes) 2747260
scalar TwoHosts6.server.ppp[0].ppp packetDropIncorrectlyReceived:count 0
scalar TwoHosts6.server.ppp[0].ppp packetDropIncorrectlyReceived:sum(packetBytes) 0
scalar TwoHosts6.server.ppp[0].ppp packetDropInterfaceDown:count 0
scalar TwoHosts6.server.ppp[0].ppp packetDropInterfaceDown:sum(packetBytes) 0
scalar TwoHosts6.server.ppp[0] packetDropInterfaceDown:count 0
scalar TwoHosts6.server.ppp[0] packetDropInterfaceDown:sum(packetBytes) 0
scalar TwoHosts6.server.ppp[0] packetDropNoCarrier:count 0
scalar TwoHosts6.server.ppp[0] packetDropNoCarrier:sum(packetBytes) 0
scalar TwoHosts6.server.ipv6.neighbourDiscovery dadFailed:count 0
scalar TwoHosts6.server.ipv6.neighbourDiscovery dadCompleted:count 1
scalar TwoHosts6.server.ipv6.neighbourDiscovery startDad:count 1
scalar TwoHosts6.server.ipv6.ipsec outDrop:count 0
scalar TwoHosts6.server.ipv6.ipsec outProtect:count 5601
scalar TwoHosts6.server.ipv6.ipsec outBypass:count 3739
scalar TwoHosts6.server.ipv6.ipsec inUnprotectedDrop:count 0
scalar TwoHosts6.server.ipv6.ipsec inUnprotectedBypass:count 3737
scalar TwoHosts6.server.ipv6.ipsec inProtectedDrop:count 0
scalar TwoHosts6.server.ipv6.ipsec inProtectedAccept:count 5602
scalar TwoHosts6.server.udp packetReceived:count 0
scalar TwoHosts6.server.udp packetReceived:sum(packetBytes) 0
scalar TwoHosts6.server.udp packetSent:count 0
scalar TwoHosts6.server.udp packetSent:sum(packetBytes) 0
scalar TwoHosts6.server.udp passedUpPk:count 0
scalar TwoHosts6.server.udp droppedPkWrongPort:count 0
scalar TwoHosts6.server.udp droppedPkBadChecksum:count 0
scalar TwoHosts6.server.app[0] bytesRcvd 1e+06
scalar TwoHosts6.server.app[0] bytesSent 2e+06
scalar TwoHosts6.server.app[0] packetReceived:count 1866
scalar TwoHosts6.server.app[0] packetReceived:sum(packetBytes) 1e+06
scalar TwoHosts6.server.app[0] packetSent:count 1866
scalar TwoHosts6.server.app[0] packetSent:sum(packetBytes) 2e+06
scalar TwoHosts6.server.app[1] bytesRcvd 1e+06
scalar TwoHosts6.server.app[1] bytesSent 1e+06
scalar TwoHosts6.server.app[1] packetReceived:count 1866
scalar TwoHosts6.server.app[1] packetReceived:sum(packetBytes) 1e+06
scalar TwoHosts6.server.app[1] packetSent:count 1866
scalar TwoHosts6.server.app[1] packetSent:sum(packetBytes) 1e+06
scalar TwoHosts6.server.app[2] bytesRcvd 0
scalar TwoHosts6.server.app[2] bytesSent 0
scalar TwoHosts6.server.app[2] packetReceived:count 0
scalar TwoHosts6.server.app[2] packetReceived:sum(packetBytes) 0
scalar TwoHosts6.server.app[2] packetSent:count 0
scalar TwoHosts6.server.app[2] packetSent:sum(packetBytes) 0
scalar TwoHosts6.client1.ipv6.ipsec outProcessDelay:stats:count 5602
scalar TwoHosts6.client1.ipv6.ipsec outProcessDelay:stats:sumweights 5602
scalar TwoHosts6.client1.ipv6.ipsec outProcessDelay:stats:mean 7.016244198500536e-06
scalar TwoHosts6.client1.ipv6.ipsec outProcessDelay:stats:stddev 3.3684680498665304e-07
scalar TwoHosts6.client1.ipv6.ipsec outProcessDelay:stats:min 7e-06
scalar TwoHosts6.client1.ipv6.ipsec outProcessDelay:stats:max 1.4e-05
scalar TwoHosts6.client1.ipv6.ipsec outProcessDelay:stats:numbins 0
scalar TwoHosts6.client1.ipv6.ipsec inProcessDelay:stats:count 5601
scalar TwoHosts6.client1.ipv6.ipsec inProcessDelay:stats:sumweights 5601
scalar TwoHosts6.client1.ipv6.ipsec inProcessDelay:stats:mean 9e-06
scalar TwoHosts6.client1.ipv6.ipsec inProcessDelay:stats:stddev 0
scalar TwoHosts6.client1.ipv6.ipsec inProcessDelay:stats:min 9e-06
scalar TwoHosts6.client1.ipv6.ipsec inProcessDelay:stats:max 9e-06
scalar TwoHosts6.client1.ipv6.ipsec inProcessDelay:stats:numbins 0
scalar TwoHosts6.server.ipv6.ipsec outProcessDelay:stats:count 5601
scalar TwoHosts6.server.ipv6.ipsec outProcessDelay:stats:sumweights 5601
scalar TwoHosts6.server.ipv6.ipsec outProcessDelay:stats:mean 7.018746652383503e-06
scalar TwoHosts6.server.ipv6.ipsec outProcessDelay:stats:stddev 3.6179897770420177e-07
scalar TwoHosts6.server.ipv6.ipsec outProcessDelay:stats:min 7e-06
scalar TwoHosts6.server.ipv6.ipsec outProcessDelay:stats:max 1.4e-05
scalar TwoHosts6.server.ipv6.ipsec outProcessDelay:stats:numbins 0
scalar TwoHosts6.server.ipv6.ipsec inProcessDelay:stats:count 5602
scalar TwoHosts6.server.ipv6.ipsec inProcessDelay:stats:sumweights 5602
scalar TwoHosts6.server.ipv6.ipsec inProcessDelay:stats:mean 9e-06
scalar TwoHosts6.server.ipv6.ipsec inProcessDelay:stats:stddev 0
scalar TwoHosts6.server.ipv6.ipsec inProcessDelay:stats:min 9e-06
scalar TwoHosts6.server.ipv6.ipsec inProcessDelay:stats:max 9e-06
scalar TwoHosts6.server.ipv6.ipsec inProcessDelay:stats:numbins 0
scalar TwoHosts6.client1.ppp[0].queue queueingTime:histogram:count 9342
scalar TwoHosts6.client1.ppp[0].queue queueingTime:histogram:sumweights 9342
scalar TwoHosts6.client1.ppp[0].queue queueingTime:histogram:mean 0.009149284925901627
scalar TwoHosts6.client1.ppp[0].queue queueingTime:histogram:stddev 0.004904355739745315
scalar TwoHosts6.client1.ppp[0].queue queueingTime:histogram:min 0
scalar TwoHosts6.client1.ppp[0].queue queueingTime:histogram:max 0.0144294
scalar TwoHosts6.client1.ppp[0].queue queueingTime:histogram:numbins 90
scalar TwoHosts6.client1.ppp[0].queue queueingTime:histogram:rangemin 0
scalar TwoHosts6.client1.ppp[0].queue queueingTime:histogram:rangemax 0.018000000000000002
scalar TwoHosts6.client1.ppp[0].queue queueingTime:histogram:underflows 0
scalar TwoHosts6.client1.ppp[0].queue queueingTime:histogram:overflows 0
scalar TwoHosts6.client1.ppp[0].queue outgoingPacketLengths:histogram:count 9342
scalar TwoHosts6.client1.ppp[0].queue outgoingPacketLengths:histogram:sumweights 9342
scalar TwoHosts6.client1.ppp[0].queue outgoingPacketLengths:histogram:mean 2352.6097195461357
scalar TwoHosts6.client1.ppp[0].queue outgoingPacketLengths:histogram:stddev 2064.896102013833
scalar TwoHosts6.client1.ppp[0].queue outgoingPacketLengths:histogram:min 448
scalar TwoHosts6.client1.ppp[0].queue outgoingPacketLengths:histogram:max 4992
scalar TwoHosts6.client1.ppp[0].queue outgoingPacketLengths:histogram:numbins 62
scalar TwoHosts6.client1.ppp[0].queue outgoingPacketLengths:histogram:rangemin 0
scalar TwoHosts6.client1.ppp[0].queue outgoingPacketLengths:histogram:rangemax 6200
scalar TwoHosts6.client1.ppp[0].queue outgoingPacketLengths:histogram:underflows 0
scalar TwoHosts6.client1.ppp[0].queue outgoingPacketLengths:histogram:overflows 0
scalar TwoHosts6.client1.ppp[0].queue flowQueueingTime:histogram:count 0
scalar TwoHosts6.client1.ppp[0].queue flowQueueingTime:histogram:sumweights 0
scalar TwoHosts6.client1.ppp[0].queue flowQueueingTime:histogram:mean nan
scalar TwoHosts6.client1.ppp[0].queue flowQueueingTime:histogram:stddev nan
scalar TwoHosts6.client1.ppp[0].queue flowQueueingTime:histogram:min nan
scalar TwoHosts6.client1.ppp[0].queue flowQueueingTime:histogram:max nan
scalar TwoHosts6.client1.ppp[0].queue flowQueueingTime:histogram:numbins 1
scalar TwoHosts6.client1.ppp[0].queue flowQueueingTime:histogram:rangemin 0
scalar TwoHosts6.client1.ppp[0].queue flowQueueingTime:histogram:rangemax 1
scalar TwoHosts6.client1.ppp[0].queue flowQueueingTime:histogram:underflows 0
scalar TwoHosts6.client1.ppp[0].queue flowQueueingTime:histogram:overflows 0
scalar TwoHosts6.client1.ppp[0].queue incomingPacketLengths:histogram:count 9342
scalar TwoHosts6.client1.ppp[0].queue incomingPacketLengths:histogram:sumweights 9342
scalar TwoHosts6.client1.ppp[0].queue incomingPacketLengths:histogram:mean 2352.6097195461357
scalar TwoHosts6.client1.ppp[0].queue incomingPacketLengths:histogram:stddev 2064.896102013833
scalar TwoHosts6.client1.ppp[0].queue incomingPacketLengths:histogram:min 448
scalar TwoHosts6.client1.ppp[0].queue incomingPacketLengths:histogram:max 4992
scalar TwoHosts6.client1.ppp[0].queue incomingPacketLengths:histogram:numbins 62
scalar TwoHosts6.client1.ppp[0].queue incomingPacketLengths:histogram:rangemin 0
scalar TwoHosts6.client1.ppp[0].queue incomingPacketLengths:histogram:rangemax 6200
scalar TwoHosts6.client1.ppp[0].queue incomingPacketLengths:histogram:underflows 0
scalar TwoHosts6.client1.ppp[0].queue incomingPacketLengths:histogram:overflows 0
scalar TwoHosts6.client1.app[0] endToEndDelay:histogram:count 3732
scalar TwoHosts6.client1.app[0] endToEndDelay:histogram:sumweights 3732
scalar TwoHosts6.client1.app[0] endToEndDelay:histogram:mean 0.765233409056806
scalar TwoHosts6.client1.app[0] endToEndDelay:histogram:stddev 0.3173324412666925
scalar TwoHosts6.client1.app[0] endToEndDelay:histogram:min 0.0006185
scalar TwoHosts6.client1.app[0] endToEndDelay:histogram:max 1.0551497
scalar TwoHosts6.client1.app[0] endToEndDelay:histogram:numbins 53
scalar TwoHosts6.client1.app[0] endToEndDelay:histogram:rangemin 0
scalar TwoHosts6.client1.app[0] endToEndDelay:histogram:rangemax 1.0600000000000003
scalar TwoHosts6.client1.app[0] endToEndDelay:histogram:underflows 0
scalar TwoHosts6.client1.app[0] endToEndDelay:histogram:overflows 0
scalar TwoHosts6.client1.app[0] endToEndDelay:weightedHistogram:count 3732
scalar TwoHosts6.client1.app[0] endToEndDelay:weightedHistogram:sumweights 1.6e+07
scalar TwoHosts6.client1.app[0] endToEndDelay:weightedHistogram:mean 0.7652020425672
scalar TwoHosts6.client1.app[0] endToEndDelay:weightedHistogram:stddev 0.31735155900261613
scalar TwoHosts6.client1.app[0] endToEndDelay:weightedHistogram:min 0.0006185
scalar TwoHosts6.client1.app[0] endToEndDelay:weightedHistogram:max 1.0551497
scalar TwoHosts6.client1.app[0] endToEndDelay:weightedHistogram:numbins 53
scalar TwoHosts6.client1.app[0] endToEndDelay:weightedHistogram:rangemin 0
scalar TwoHosts6.client1.app[0] endToEndDelay:weightedHistogram:rangemax 1.0600000000000003
scalar TwoHosts6.client1.app[0] endToEndDelay:weightedHistogram:underflows 0
scalar TwoHosts6.client1.app[0] endToEndDelay:weightedHistogram:overflows 0
scalar TwoHosts6.client1.app[1] endToEndDelay:histogram:count 1866
scalar TwoHosts6.client1.app[1] endToEndDelay:histogram:sumweights 1866
scalar TwoHosts6.client1.app[1] endToEndDelay:histogram:mean 0.007574114469453375
scalar TwoHosts6.client1.app[1] endToEndDelay:histogram:stddev 0.0004521529606005099
scalar TwoHosts6.client1.app[1] endToEndDelay:histogram:min 0.0005361
scalar TwoHosts6.client1.app[1] endToEndDelay:histogram:max 0.0082503
scalar TwoHosts6.client1.app[1] endToEndDelay:histogram:numbins 47
scalar TwoHosts6.client1.app[1] endToEndDelay:histogram:rangemin 0
scalar TwoHosts6.client1.app[1] endToEndDelay:histogram:rangemax 0.0094
scalar TwoHosts6.client1.app[1] endToEndDelay:histogram:underflows 0
scalar TwoHosts6.client1.app[1] endToEndDelay:histogram:overflows 0
scalar TwoHosts6.client1.app[1] endToEndDelay:weightedHistogram:count 1866
scalar TwoHosts6.client1.app[1] endToEndDelay:weightedHistogram:sumweights 8e+06
scalar TwoHosts6.client1.app[1] endToEndDelay:weightedHistogram:mean 0.0075739954608
scalar TwoHosts6.client1.app[1] endToEndDelay:weightedHistogram:stddev 0.0004521037034878389
scalar TwoHosts6.client1.app[1] endToEndDelay:weightedHistogram:min 0.0005361
scalar TwoHosts6.client1.app[1] endToEndDelay:weightedHistogram:max 0.0082503
scalar TwoHosts6.client1.app[1] endToEndDelay:weightedHistogram:numbins 47
scalar TwoHosts6.client1.app[1] endToEndDelay:weightedHistogram:rangemin 0
scalar TwoHosts6.client1.app[1] endToEndDelay:weightedHistogram:rangemax 0.0094
scalar TwoHosts6.client1.app[1] endToEndDelay:weightedHistogram:underflows 0
scalar TwoHosts6.client1.app[1] endToEndDelay:weightedHistogram:overflows 0
scalar TwoHosts6.client1.app[2] endToEndDelay:histogram:count 0
scalar TwoHosts6.client1.app[2] endToEndDelay:histogram:sumweights 0
scalar TwoHosts6.client1.app[2] endToEndDelay:histogram:mean nan
scalar TwoHosts6.client1.app[2] endToEndDelay:histogram:stddev nan
scalar TwoHosts6.client1.app[2] endToEndDelay:histogram:min nan
scalar TwoHosts6.client1.app[2] endToEndDelay:histogram:max nan
scalar TwoHosts6.client1.app[2] endToEndDelay:histogram:numbins 1
scalar TwoHosts6.client1.app[2] endToEndDelay:histogram:rangemin 0
scalar TwoHosts6.client1.app[2] endToEndDelay:histogram:rangemax 1
scalar TwoHosts6.client1.app[2] endToEndDelay:histogram:underflows 0
scalar TwoHosts6.client1.app[2] endToEndDelay:histogram:overflows 0
scalar TwoHosts6.client1.app[2] endToEndDelay:weightedHistogram:count 0
scalar TwoHosts6.client1.app[2] endToEndDelay:weightedHistogram:sumweights 0
scalar TwoHosts6.client1.app[2] endToEndDelay:weightedHistogram:mean nan
scalar TwoHosts6.client1.app[2] endToEndDelay:weightedHistogram:stddev nan
scalar TwoHosts6.client1.app[2] endToEndDelay:weightedHistogram:min nan
scalar TwoHosts6.client1.app[2] endToEndDelay:weightedHistogram:max nan
scalar TwoHosts6.client1.app[2] endToEndDelay:weightedHistogram:numbins 1
scalar TwoHosts6.client1.app[2] endToEndDelay:weightedHistogram:rangemin 0
scalar TwoHosts6.client1.app[2] endToEndDelay:weightedHistogram:rangemax 1
scalar TwoHosts6.client1.app[2] endToEndDelay:weightedHistogram:underflows 0
scalar TwoHosts6.client1.app[2] endToEndDelay:weightedHistogram:overflows 0
scalar TwoHosts6.server.ppp[0].queue queueingTime:histogram:count 9340
scalar TwoHosts6.server.ppp[0].queue queueingTime:histogram:sumweights 9340
scalar TwoHosts6.server.ppp[0].queue queueingTime:histogram:mean 0.004148884713332548
scalar TwoHosts6.server.ppp[0].queue queueingTime:histogram:stddev 0.0019353456730765925
scalar TwoHosts6.server.ppp[0].queue queueingTime:histogram:min 0
scalar TwoHosts6.server.ppp[0].queue queueingTime:histogram:max 0.007855
scalar TwoHosts6.server.ppp[0].queue queueingTime:histogram:numbins 80
scalar TwoHosts6.server.ppp[0].queue queueingTime:histogram:rangemin 0
scalar TwoHosts6.server.ppp[0].queue queueingTime:histogram:rangemax 0.008
scalar TwoHosts6.server.ppp[0].queue queueingTime:histogram:underflows 0
scalar TwoHosts6.server.ppp[0].queue queueingTime:histogram:overflows 0
scalar TwoHosts6.server.ppp[0].queue outgoingPacketLengths:histogram:count 9340
scalar TwoHosts6.server.ppp[0].queue outgoingPacketLengths:histogram:sumweights 9340
scalar TwoHosts6.server.ppp[0].queue outgoingPacketLengths:histogram:mean 3196.724625267666
scalar TwoHosts6.server.ppp[0].queue outgoingPacketLengths:histogram:stddev 2107.491224348587
scalar TwoHosts6.server.ppp[0].queue outgoingPacketLengths:histogram:min 448
scalar TwoHosts6.server.ppp[0].queue outgoingPacketLengths:histogram:max 4992
scalar TwoHosts6.server.ppp[0].queue outgoingPacketLengths:histogram:numbins 62
scalar TwoHosts6.server.ppp[0].queue outgoingPacketLengths:histogram:rangemin 0
scalar TwoHosts6.server.ppp[0].queue outgoingPacketLengths:histogram:rangemax 6200
scalar TwoHosts6.server.ppp[0].queue outgoingPacketLengths:histogram:underflows 0
scalar TwoHosts6.server.ppp[0].queue outgoingPacketLengths:histogram:overflows 0
scalar TwoHosts6.server.ppp[0].queue flowQueueingTime:histogram:count 0
scalar TwoHosts6.server.ppp[0].queue flowQueueingTime:histogram:sumweights 0
scalar TwoHosts6.server.ppp[0].queue flowQueueingTime:histogram:mean nan
scalar TwoHosts6.server.ppp[0].queue flowQueueingTime:histogram:stddev nan
scalar TwoHosts6.server.ppp[0].queue flowQueueingTime:histogram:min nan
scalar TwoHosts6.server.ppp[0].queue flowQueueingTime:histogram:max nan
scalar TwoHosts6.server.ppp[0].queue flowQueueingTime:histogram:numbins 1
scalar TwoHosts6.server.ppp[0].queue flowQueueingTime:histogram:rangemin 0
scalar TwoHosts6.server.ppp[0].queue flowQueueingTime:histogram:rangemax 1
scalar TwoHosts6.server.ppp[0].queue flowQueueingTime:histogram:underflows 0
scalar TwoHosts6.server.ppp[0].queue flowQueueingTime:histogram:overflows 0
scalar TwoHosts6.server.ppp[0].queue incomingPacketLengths:histogram:count 9340
scalar TwoHosts6.server.ppp[0].queue incomingPacketLengths:histogram:sumweights 9340
scalar TwoHosts6.server.ppp[0].queue incomingPacketLengths:histogram:mean 3196.724625267666
scalar TwoHosts6.server.ppp[0].queue incomingPacketLengths:histogram:stddev 2107.491224348587
scalar TwoHosts6.server.ppp[0].queue incomingPacketLengths:histogram:min 448
scalar TwoHosts6.server.ppp[0].queue incomingPacketLengths:histogram:max 4992
scalar TwoHosts6.server.ppp[0].queue incomingPacketLengths:histogram:numbins 62
scalar TwoHosts6.server.ppp[0].queue incomingPacketLengths:histogram:rangemin 0
scalar TwoHosts6.server.ppp[0].queue incomingPacketLengths:histogram:rangemax 6200
scalar TwoHosts6.server.ppp[0].queue incomingPacketLengths:histogram:underflows 0
scalar TwoHosts6.server.ppp[0].queue incomingPacketLengths:histogram:overflows 0
scalar TwoHosts6.server.app[0] endToEndDelay:histogram:count 1866
scalar TwoHosts6.server.app[0] endToEndDelay:histogram:sumweights 1866
scalar TwoHosts6.server.app[0] endToEndDelay:histogram:mean 1.049523347909968
scalar TwoHosts6.server.app[0] endToEndDelay:histogram:stddev 0.6051941072257655
scalar TwoHosts6.server.app[0] endToEndDelay:histogram:min 0.0009962999999999999
scalar TwoHosts6.server.app[0] endToEndDelay:histogram:max 2.0991733
scalar TwoHosts6.server.app[0] endToEndDelay:histogram:numbins 53
scalar TwoHosts6.server.app[0] endToEndDelay:histogram:rangemin 0
scalar TwoHosts6.server.app[0] endToEndDelay:histogram:rangemax 2.1200000000000006
scalar TwoHosts6.server.app[0] endToEndDelay:histogram:underflows 0
scalar TwoHosts6.server.app[0] endToEndDelay:histogram:overflows 0
scalar TwoHosts6.server.app[0] endToEndDelay:weightedHistogram:count 1866
scalar TwoHosts6.server.app[0] endToEndDelay:weightedHistogram:sumweights 8e+06
scalar TwoHosts6.server.app[0] endToEndDelay:weightedHistogram:mean 1.0493386095183999
scalar TwoHosts6.server.app[0] endToEndDelay:weightedHistogram:stddev 0.6050870447644573
scalar TwoHosts6.server.app[0] endToEndDelay:weightedHistogram:min 0.0009962999999999999
scalar TwoHosts6.server.app[0] endToEndDelay:weightedHistogram:max 2.0991733
scalar TwoHosts6.server.app[0] endToEndDelay:weightedHistogram:numbins 53
scalar TwoHosts6.server.app[0] endToEndDelay:weightedHistogram:rangemin 0
scalar TwoHosts6.server.app[0] endToEndDelay:weightedHistogram:rangemax 2.1200000000000006
scalar TwoHosts6.server.app[0] endToEndDelay:weightedHistogram:underflows 0
scalar TwoHosts6.server.app[0] endToEndDelay:weightedHistogram:overflows 0
scalar TwoHosts6.server.app[1] endToEndDelay:histogram:count 1866
scalar TwoHosts6.server.app[1] endToEndDelay:histogram:sumweights 1866
scalar TwoHosts6.server.app[1] endToEndDelay:histogram:mean 1.041892485959271
scalar TwoHosts6.server.app[1] endToEndDelay:histogram:stddev 0.6051416998131938
scalar TwoHosts6.server.app[1] endToEndDelay:histogram:min 0.00048249999999999996
scalar TwoHosts6.server.app[1] endToEndDelay:histogram:max 2.0979963
scalar TwoHosts6.server.app[1] endToEndDelay:histogram:numbins 53
scalar TwoHosts6.server.app[1] endToEndDelay:histogram:rangemin 0
scalar TwoHosts6.server.app[1] endToEndDelay:histogram:rangemax 2.1200000000000006
scalar TwoHosts6.server.app[1] endToEndDelay:histogram:underflows 0
scalar TwoHosts6.server.app[1] endToEndDelay:histogram:overflows 0
scalar TwoHosts6.server.app[1] endToEndDelay:weightedHistogram:count 1866
scalar TwoHosts6.server.app[1] endToEndDelay:weightedHistogram:sumweights 8e+06
scalar TwoHosts6.server.app[1] endToEndDelay:weightedHistogram:mean 1.041706611688
scalar TwoHosts6.server.app[1] endToEndDelay:weightedHistogram:stddev 0.6050326407899853
scalar TwoHosts6.server.app[1] endToEndDelay:weightedHistogram:min 0.00048249999999999996
scalar TwoHosts6.server.app[1] endToEndDelay:weightedHistogram:max 2.0979963
scalar TwoHosts6.server.app[1] endToEndDelay:weightedHistogram:numbins 53
scalar TwoHosts6.server.app[1] endToEndDelay:weightedHistogram:rangemin 0
scalar TwoHosts6.server.app[1] endToEndDelay:weightedHistogram:rangemax 2.1200000000000006
scalar TwoHosts6.server.app[1] endToEndDelay:weightedHistogram:underflows 0
scalar TwoHosts6.server.app[1] endToEndDelay:weightedHistogram:overflows 0
scalar TwoHosts6.server.app[2] endToEndDelay:histogram:count 0
scalar TwoHosts6.server.app[2] endToEndDelay:histogram:sumweights 0
scalar TwoHosts6.server.app[2] endToEndDelay:histogram:mean nan
scalar TwoHosts6.server.app[2] endToEndDelay:histogram:stddev nan
scalar TwoHosts6.server.app[2] endToEndDelay:histogram:min nan
scalar TwoHosts6.server.app[2] endToEndDelay:histogram:max nan
scalar TwoHosts6.server.app[2] endToEndDelay:histogram:numbins 1
scalar TwoHosts6.server.app[2] endToEndDelay:histogram:rangemin 0
scalar TwoHosts6.server.app[2] endToEndDelay:histogram:rangemax 1
scalar TwoHosts6.server.app[2] endToEndDelay:histogram:underflows 0
scalar TwoHosts6.server.app[2] endToEndDelay:histogram:overflows 0
scalar TwoHosts6.server.app[2] endToEndDelay:weightedHistogram:count 0
scalar TwoHosts6.server.app[2] endToEndDelay:weightedHistogram:sumweights 0
scalar TwoHosts6.server.app[2] endToEndDelay:weightedHistogram:mean nan
scalar TwoHosts6.server.app[2] endToEndDelay:weightedHistogram:stddev nan
scalar TwoHosts6.server.app[2] endToEndDelay:weightedHistogram:min nan
scalar TwoHosts6.server.app[2] endToEndDelay:weightedHistogram:max nan
scalar TwoHosts6.server.app[2] endToEndDelay:weightedHistogram:numbins 1
scalar TwoHosts6.server.app[2] endToEndDelay:weightedHistogram:rangemin 0
scalar TwoHosts6.server.app[2] endToEndDelay:weightedHistogram:rangemax 1
scalar TwoHosts6.server.app[2] endToEndDelay:weightedHistogram:underflows 0
scalar TwoHosts6.server.app[2] endToEndDelay:weightedHistogram:overflows 0
statistic TwoHosts6.client1.ipv6.ipsec outProcessDelay:stats
field count 5602
field mean 7.016244198500536e-06
field stddev 3.3684680498665304e-07
field min 7e-06
field max 1.4e-05
field sum 0.039305
field sqrsum 2.76409e-07
statistic TwoHosts6.client1.ipv6.ipsec inProcessDelay:stats
field count 5601
field mean 9e-06
field stddev 0
field min 9e-06
field max 9e-06
field sum 0.050409
field sqrsum 4.5368100000000005e-07
statistic TwoHosts6.server.ipv6.ipsec outProcessDelay:stats
field count 5601
field mean 7.018746652383503e-06
field stddev 3.6179897770420177e-07
field min 7e-06
field max 1.4e-05
field sum 0.039312
field sqrsum 2.76654e-07
statistic TwoHosts6.server.ipv6.ipsec inProcessDelay:stats
field count 5602
field mean 9e-06
field stddev 0
field min 9e-06
field max 9e-06
field sum 0.050418000000000004
field sqrsum 4.53762e-07
statistic TwoHosts6.client1.ppp[0].queue queueingTime:histogram
field count 9342
field mean 0.009149284925901627
field stddev 0.004904355739745315
field min 0
field max 0.0144294
field sum 85.47261977777299
field sqrsum 1.0066896711885478
bin	-inf	0
bin	0	1894
bin	2e-04	1
bin	4e-04	2
bin	0.0006000000000000001	1
bin	8e-04	3
bin	0.001	1
bin	0.0012000000000000001	2
bin	0.0014	2
bin	0.0016	0
bin	0.0018000000000000002	2
bin	0.002	3
bin	0.0022	1
bin	0.0024000000000000002	3
bin	0.0026000000000000003	0
bin	0.0028	2
bin	0.003	3
bin	0.0032	1
bin	0.0034000000000000002	3
bin	0.0036000000000000003	1
bin	0.0038	1
bin	0.004	1
bin	0.004200000000000001	3
bin	0.0044	1
bin	0.0046	4
bin	0.0048000000000000004	0
bin	0.005	4
bin	0.005200000000000001	1
bin	0.0054	1
bin	0.0056	3
bin	0.0058000000000000005	0
bin	0.006	2
bin	0.006200000000000001	2
bin	0.0064	1
bin	0.0066	2
bin	0.0068000000000000005	2
bin	0.007	2
bin	0.007200000000000001	2
bin	0.0074	2
bin	0.0076	4
bin	0.0078000000000000005	0
bin	0.008	2
bin	0.0082	2
bin	0.008400000000000001	1
bin	0.0086	487
bin	0.0088	40
bin	0.009000000000000001	245
bin	0.0092	282
bin	0.0094	244
bin	0.009600000000000001	282
bin	0.0098	2
bin	0.01	524
bin	0.0102	3
bin	0.010400000000000001	524
bin	0.0106	5
bin	0.0108	524
bin	0.011000000000000001	1
bin	0.0112	505
bin	0.0114	21
bin	0.011600000000000001	505
bin	0.0118	21
bin	0.012	264
bin	0.0122	262
bin	0.012400000000000001	245
bin	0.0126	280
bin	0.0128	246
bin	0.013000000000000001	280
bin	0.0132	246
bin	0.0134	280
bin	0.013600000000000001	2
bin	0.013800000000000002	505
bin	0.014	20
bin	0.0142	509
bin	0.014400000000000001	20
bin	0.0146	0
bin	0.0148	0
bin	0.015000000000000001	0
bin	0.0152	0
bin	0.0154	0
bin	0.015600000000000001	0
bin	0.0158	0
bin	0.016	0
bin	0.0162	0
bin	0.0164	0
bin	0.0166	0
bin	0.016800000000000002	0
bin	0.017	0
bin	0.0172	0
bin	0.017400000000000002	0
bin	0.0176	0
bin	0.0178	0
bin	0.018000000000000002	0
statistic TwoHosts6.client1.ppp[0].queue outgoingPacketLengths:histogram
field count 9342
field mean 2352.6097195461357
field stddev 2064.896102013833
field min 448
field max 4992
field sum 21978080
field sqrsum 91533962240
bin	-inf	0
bin	0	0
bin	100	0
bin	200	0
bin	300	0
bin	400	1872
bin	500	2
bin	600	0
bin	700	3736
bin	800	0
bin	900	0
bin	1000	0
bin	1100	0
bin	1200	0
bin	1300	0
bin	1400	0
bin	1500	0
bin	1600	0
bin	1700	0
bin	1800	0
bin	1900	0
bin	2000	0
bin	2100	0
bin	2200	0
bin	2300	0
bin	2400	0
bin	2500	0
bin	2600	0
bin	2700	0
bin	2800	0
bin	2900	0
bin	3000	0
bin	3100	0
bin	3200	0
bin	3300	1
bin	3400	0
bin	3500	1
bin	3600	0
bin	3700	0
bin	3800	0
bin	3900	0
bin	4000	0
bin	4100	0
bin	4200	0
bin	4300	0
bin	4400	0
bin	4500	0
bin	4600	0
bin	4700	1865
bin	4800	0
bin	4900	1865
bin	5000	0
bin	5100	0
bin	5200	0
bin	5300	0
bin	5400	0
bin	5500	0
bin	5600	0
bin	5700	0
bin	5800	0
bin	5900	0
bin	6000	0
bin	6100	0
bin	6200	0
statistic TwoHosts6.client1.ppp[0].queue flowQueueingTime:histogram
field count 0
field mean nan
field stddev nan
field min nan
field max nan
field sum 0
field sqrsum 0
bin	-inf	0
bin	0	0
bin	1	0
statistic TwoHosts6.client1.ppp[0].queue incomingPacketLengths:histogram
field count 9342
field mean 2352.6097195461357
field stddev 2064.896102013833
field min 448
field max 4992
field sum 21978080
field sqrsum 91533962240
bin	-inf	0
bin	0	0
bin	100	0
bin	200	0
bin	300	0
bin	400	1872
bin	500	2
bin	600	0
bin	700	3736
bin	800	0
bin	900	0
bin	1000	0
bin	1100	0
bin	1200	0
bin	1300	0
bin	1400	0
bin	1500	0
bin	1600	0
bin	1700	0
bin	1800	0
bin	1900	0
bin	2000	0
bin	2100	0
bin	2200	0
bin	2300	0
bin	2400	0
bin	2500	0
bin	2600	0
bin	2700	0
bin	2800	0
bin	2900	0
bin	3000	0
bin	3100	0
bin	3200	0
bin	3300	1
bin	3400	0
bin	3500	1
bin	3600	0
bin	3700	0
bin	3800	0
bin	3900	0
bin	4000	0
bin	4100	0
bin	4200	0
bin	4300	0
bin	4400	0
bin	4500	0
bin	4600	0
bin	4700	1865
bin	4800	0
bin	4900	1865
bin	5000	0
bin	5100	0
bin	5200	0
bin	5300	0
bin	5400	0
bin	5500	0
bin	5600	0
bin	5700	0
bin	5800	0
bin	5900	0
bin	6000	0
bin	6100	0
bin	6200	0
statistic TwoHosts6.client1.app[0] endToEndDelay:histogram
field count 3732
field mean 0.765233409056806
field stddev 0.3173324412666925
field min 0.0006185
field max 1.0551497
field sum 2855.8510826
field sqrsum 2561.1039055602887
bin	-inf	0
bin	0	19
bin	0.02	39
bin	0.04	40
bin	0.06	28
bin	0.08	33
bin	0.1	43
bin	0.12	36
bin	0.14	29
bin	0.16	38
bin	0.18	43
bin	0.2	30
bin	0.22	29
bin	0.24	42
bin	0.26	41
bin	0.28	28
bin	0.3	31
bin	0.32	45
bin	0.34	36
bin	0.36	29
bin	0.38	36
bin	0.4	45
bin	0.42	30
bin	0.44	29
bin	0.46	42
bin	0.48	41
bin	0.5	28
bin	0.52	31
bin	0.54	45
bin	0.56	36
bin	0.58	29
bin	0.6	36
bin	0.62	43
bin	0.64	32
bin	0.66	29
bin	0.68	42
bin	0.7000000000000001	41
bin	0.72	28
bin	0.74	31
bin	0.76	43
bin	0.78	38
bin	0.8	29
bin	0.8200000000000001	36
bin	0.8400000000000001	43
bin	0.8600000000000001	32
bin	0.8800000000000001	29
bin	0.9000000000000001	40
bin	0.9200000000000002	43
bin	0.9400000000000002	284
bin	0.9600000000000002	382
bin	0.9800000000000002	394
bin	1.0000000000000002	393
bin	1.0200000000000002	380
bin	1.0400000000000003	233
bin	1.0600000000000003	0
statistic TwoHosts6.client1.app[0] endToEndDelay:weightedHistogram
field count 3732
field mean 0.7652020425672
field stddev 0.31735155900261613
field min 0.0006185
field max 1.0551497
field weights 1.6e+07
field weightedSum 12243232.6810752
field sqrSumWeights 68603854848
field weightedSqrSum 10979507.020190695
bin	-inf	0
bin	0	81472
bin	0.02	167232
bin	0.04	171520
bin	0.06	120064
bin	0.08	141504
bin	0.1	184384
bin	0.12	154368
bin	0.14	124352
bin	0.16	162944
bin	0.18	184384
bin	0.2	128640
bin	0.22	124352
bin	0.24	180096
bin	0.26	175808
bin	0.28	120064
bin	0.3	132928
bin	0.32	192960
bin	0.34	154368
bin	0.36	124352
bin	0.38	154368
bin	0.4	192960
bin	0.42	128640
bin	0.44	124352
bin	0.46	180096
bin	0.48	175808
bin	0.5	120064
bin	0.52	132928
bin	0.54	192960
bin	0.56	154368
bin	0.58	124352
bin	0.6	154368
bin	0.62	184384
bin	0.64	137216
bin	0.66	124352
bin	0.68	180096
bin	0.7000000000000001	175808
bin	0.72	120064
bin	0.74	132928
bin	0.76	184384
bin	0.78	162944
bin	0.8	124352
bin	0.8200000000000001	154368
bin	0.8400000000000001	184384
bin	0.8600000000000001	137216
bin	0.8800000000000001	124352
bin	0.9000000000000001	171520
bin	0.9200000000000002	184384
bin	0.9400000000000002	1214976
bin	0.9600000000000002	1638016
bin	0.9800000000000002	1689472
bin	1.0000000000000002	1685184
bin	1.0200000000000002	1629440
bin	1.0400000000000003	999104
bin	1.0600000000000003	0
statistic TwoHosts6.client1.app[1] endToEndDelay:histogram
field count 1866
field mean 0.007574114469453375
field stddev 0.0004521529606005099
field min 0.0005361
field max 0.0082503
field sum 14.133297599999999
field sqrsum 0.10742849874233999
bin	-inf	0
bin	0	0
bin	2e-04	0
bin	4e-04	1
bin	0.0006000000000000001	0
bin	8e-04	0
bin	0.001	2
bin	0.0012000000000000001	0
bin	0.0014	0
bin	0.0016	0
bin	0.0018000000000000002	4
bin	0.002	0
bin	0.0022	0
bin	0.0024000000000000002	0
bin	0.0026000000000000003	0
bin	0.0028	0
bin	0.003	0
bin	0.0032	0
bin	0.0034000000000000002	0
bin	0.0036000000000000003	0
bin	0.0038	8
bin	0.004	0
bin	0.004200000000000001	0
bin	0.0044	0
bin	0.0046	0
bin	0.0048000000000000004	0
bin	0.005	0
bin	0.005200000000000001	0
bin	0.0054	0
bin	0.0056	0
bin	0.0058000000000000005	0
bin	0.006	0
bin	0.006200000000000001	0
bin	0.0064	0
bin	0.0066	0
bin	0.0068000000000000005	16
bin	0.007	0
bin	0.007200000000000001	0
bin	0.0074	126
bin	0.0076	1708
bin	0.0078000000000000005	0
bin	0.008	0
bin	0.0082	1
bin	0.008400000000000001	0
bin	0.0086	0
bin	0.0088	0
bin	0.009000000000000001	0
bin	0.0092	0
bin	0.0094	0
statistic TwoHosts6.client1.app[1] endToEndDelay:weightedHistogram
field count 1866
field mean 0.0075739954608
field stddev 0.0004521037034878389
field min 0.0005361
field max 0.0082503
field weights 8e+06
field weightedSum 60591.9636864
field sqrSumWeights 34299944960
field weightedSqrSum 460.55756363742717
bin	-inf	0
bin	0	0
bin	2e-04	0
bin	4e-04	4288
bin	0.0006000000000000001	0
bin	8e-04	0
bin	0.001	8576
bin	0.0012000000000000001	0
bin	0.0014	0
bin	0.0016	0
bin	0.0018000000000000002	17152
bin	0.002	0
bin	0.0022	0
bin	0.0024000000000000002	0
bin	0.0026000000000000003	0
bin	0.0028	0
bin	0.003	0
bin	0.0032	0
bin	0.0034000000000000002	0
bin	0.0036000000000000003	0
bin	0.0038	34304
bin	0.004	0
bin	0.004200000000000001	0
bin	0.0044	0
bin	0.0046	0
bin	0.0048000000000000004	0
bin	0.005	0
bin	0.005200000000000001	0
bin	0.0054	0
bin	0.0056	0
bin	0.0058000000000000005	0
bin	0.006	0
bin	0.006200000000000001	0
bin	0.0064	0
bin	0.0066	0
bin	0.0068000000000000005	68608
bin	0.007	0
bin	0.007200000000000001	0
bin	0.0074	540288
bin	0.0076	7323904
bin	0.0078000000000000005	0
bin	0.008	0
bin	0.0082	2880
bin	0.008400000000000001	0
bin	0.0086	0
bin	0.0088	0
bin	0.009000000000000001	0
bin	0.0092	0
bin	0.0094	0
statistic TwoHosts6.client1.app[2] endToEndDelay:histogram
field count 0
field mean nan
field stddev nan
field min nan
field max nan
field sum 0
field sqrsum 0
bin	-inf	0
bin	0	0
bin	1	0
statistic TwoHosts6.client1.app[2] endToEndDelay:weightedHistogram
field count 0
field mean nan
field stddev nan
field min nan
field max nan
field weights 0
field weightedSum 0
field sqrSumWeights 0
field weightedSqrSum 0
bin	-inf	0
bin	0	0
bin	1	0
statistic TwoHosts6.server.ppp[0].queue queueingTime:histogram
field count 9340
field mean 0.004148884713332548
field stddev 0.0019353456730765925
field min 0
field max 0.007855
field sum 38.750583222526
field sqrsum 0.19575151404771185
bin	-inf	0
bin	0	33
bin	1e-04	3
bin	2e-04	3
bin	0.00030000000000000003	2
bin	4e-04	5
bin	5e-04	5
bin	0.0006000000000000001	1
bin	7e-04	21
bin	8e-04	507
bin	0.0009000000000000001	5
bin	0.001	2
bin	0.0011	20
bin	0.0012000000000000001	508
bin	0.0013000000000000002	4
bin	0.0014	2
bin	0.0015	2
bin	0.0016	281
bin	0.0017000000000000001	246
bin	0.0018000000000000002	3
bin	0.0019	1
bin	0.002	37
bin	0.0021000000000000003	489
bin	0.0022	2
bin	0.0023	3
bin	0.0024000000000000002	36
bin	0.0025	490
bin	0.0026000000000000003	1
bin	0.0027	5
bin	0.0028	0
bin	0.0029000000000000002	525
bin	0.003	1
bin	0.0031000000000000003	3
bin	0.0032	2
bin	0.0033	525
bin	0.0034000000000000002	0
bin	0.0035	2
bin	0.0036000000000000003	2
bin	0.0037	37
bin	0.0038	488
bin	0.0039000000000000003	0
bin	0.004	1
bin	0.0041	38
bin	0.004200000000000001	488
bin	0.0043	0
bin	0.0044	0
bin	0.0045000000000000005	3
bin	0.0046	524
bin	0.0047	0
bin	0.0048000000000000004	0
bin	0.0049	0
bin	0.005	283
bin	0.0051	244
bin	0.005200000000000001	2
bin	0.0053	0
bin	0.0054	38
bin	0.0055000000000000005	489
bin	0.0056	0
bin	0.0057	2
bin	0.0058000000000000005	20
bin	0.0059	509
bin	0.006	0
bin	0.0061	1
bin	0.006200000000000001	18
bin	0.0063	509
bin	0.0064	1840
bin	0.006500000000000001	1
bin	0.0066	1
bin	0.0067	0
bin	0.0068000000000000005	0
bin	0.006900000000000001	15
bin	0.007	1
bin	0.0071	0
bin	0.007200000000000001	1
bin	0.0073	1
bin	0.0074	0
bin	0.007500000000000001	0
bin	0.0076	8
bin	0.0077	0
bin	0.0078000000000000005	1
bin	0.0079	0
bin	0.008	0
statistic TwoHosts6.server.ppp[0].queue outgoingPacketLengths:histogram
field count 9340
field mean 3196.724625267666
field stddev 2107.491224348587
field min 448
field max 4992
field sum 29857408
field sqrsum 136925259776
bin	-inf	0
bin	0	0
bin	100	0
bin	200	0
bin	300	0
bin	400	1871
bin	500	2
bin	600	0
bin	700	1869
bin	800	0
bin	900	0
bin	1000	0
bin	1100	0
bin	1200	0
bin	1300	0
bin	1400	0
bin	1500	0
bin	1600	0
bin	1700	0
bin	1800	0
bin	1900	0
bin	2000	0
bin	2100	1
bin	2200	0
bin	2300	0
bin	2400	0
bin	2500	0
bin	2600	0
bin	2700	0
bin	2800	0
bin	2900	0
bin	3000	0
bin	3100	0
bin	3200	0
bin	3300	1
bin	3400	0
bin	3500	0
bin	3600	0
bin	3700	0
bin	3800	0
bin	3900	0
bin	4000	0
bin	4100	0
bin	4200	0
bin	4300	0
bin	4400	0
bin	4500	0
bin	4600	0
bin	4700	1865
bin	4800	0
bin	4900	3731
bin	5000	0
bin	5100	0
bin	5200	0
bin	5300	0
bin	5400	0
bin	5500	0
bin	5600	0
bin	5700	0
bin	5800	0
bin	5900	0
bin	6000	0
bin	6100	0
bin	6200	0
statistic TwoHosts6.server.ppp[0].queue flowQueueingTime:histogram
field count 0
field mean nan
field stddev nan
field min nan
field max nan
field sum 0
field sqrsum 0
bin	-inf	0
bin	0	0
bin	1	0
statistic TwoHosts6.server.ppp[0].queue incomingPacketLengths:histogram
field count 9340
field mean 3196.724625267666
field stddev 2107.491224348587
field min 448
field max 4992
field sum 29857408
field sqrsum 136925259776
bin	-inf	0
bin	0	0
bin	100	0
bin	200	0
bin	300	0
bin	400	1871
bin	500	2
bin	600	0
bin	700	1869
bin	800	0
bin	900	0
bin	1000	0
bin	1100	0
bin	1200	0
bin	1300	0
bin	1400	0
bin	1500	0
bin	1600	0
bin	1700	0
bin	1800	0
bin	1900	0
bin	2000	0
bin	2100	1
bin	2200	0
bin	2300	0
bin	2400	0
bin	2500	0
bin	2600	0
bin	2700	0
bin	2800	0
bin	2900	0
bin	3000	0
bin	3100	0
bin	3200	0
bin	3300	1
bin	3400	0
bin	3500	0
bin	3600	0
bin	3700	0
bin	3800	0
bin	3900	0
bin	4000	0
bin	4100	0
bin	4200	0
bin	4300	0
bin	4400	0
bin	4500	0
bin	4600	0
bin	4700	1865
bin	4800	0
bin	4900	3731
bin	5000	0
bin	5100	0
bin	5200	0
bin	5300	0
bin	5400	0
bin	5500	0
bin	5600	0
bin	5700	0
bin	5800	0
bin	5900	0
bin	6000	0
bin	6100	0
bin	6200	0
statistic TwoHosts6.server.app[0] endToEndDelay:histogram
field count 1866
field mean 1.049523347909968
field stddev 0.6051941072257655
field min 0.0009962999999999999
field max 2.0991733
field sum 1958.4105672
field sqrsum 2738.4723424097792
bin	-inf	0
bin	0	32
bin	0.04	39
bin	0.08	34
bin	0.12	36
bin	0.16	37
bin	0.2	33
bin	0.24	39
bin	0.28	31
bin	0.32	42
bin	0.36	28
bin	0.4	42
bin	0.44	30
bin	0.48	40
bin	0.52	33
bin	0.56	37
bin	0.6	36
bin	0.64	34
bin	0.68	39
bin	0.72	31
bin	0.76	41
bin	0.8	29
bin	0.84	42
bin	0.88	30
bin	0.92	40
bin	0.96	33
bin	1	37
bin	1.04	35
bin	1.08	35
bin	1.12	38
bin	1.16	32
bin	1.2	41
bin	1.24	29
bin	1.28	42
bin	1.32	29
bin	1.36	41
bin	1.4000000000000001	32
bin	1.44	38
bin	1.48	35
bin	1.52	35
bin	1.56	37
bin	1.6	33
bin	1.6400000000000001	40
bin	1.6800000000000002	30
bin	1.7200000000000002	42
bin	1.7600000000000002	29
bin	1.8000000000000003	41
bin	1.8400000000000003	31
bin	1.8800000000000003	39
bin	1.9200000000000004	34
bin	1.9600000000000004	36
bin	2.0000000000000004	37
bin	2.0400000000000005	33
bin	2.0800000000000005	17
bin	2.1200000000000006	0
statistic TwoHosts6.server.app[0] endToEndDelay:weightedHistogram
field count 1866
field mean 1.0493386095183999
field stddev 0.6050870447644573
field min 0.0009962999999999999
field max 2.0991733
field weights 8e+06
field weightedSum 8394708.8761472
field sqrSumWeights 34299944960
field weightedSqrSum 11736365.01206398
bin	-inf	0
bin	0	137216
bin	0.04	167232
bin	0.08	145792
bin	0.12	154368
bin	0.16	158656
bin	0.2	141504
bin	0.24	167232
bin	0.28	132928
bin	0.32	180096
bin	0.36	120064
bin	0.4	180096
bin	0.44	128640
bin	0.48	171520
bin	0.52	141504
bin	0.56	158656
bin	0.6	154368
bin	0.64	145792
bin	0.68	167232
bin	0.72	132928
bin	0.76	175808
bin	0.8	124352
bin	0.84	180096
bin	0.88	128640
bin	0.92	171520
bin	0.96	141504
bin	1	158656
bin	1.04	150080
bin	1.08	150080
bin	1.12	162944
bin	1.16	137216
bin	1.2	175808
bin	1.24	124352
bin	1.28	180096
bin	1.32	124352
bin	1.36	175808
bin	1.4000000000000001	137216
bin	1.44	162944
bin	1.48	150080
bin	1.52	150080
bin	1.56	158656
bin	1.6	141504
bin	1.6400000000000001	171520
bin	1.6800000000000002	128640
bin	1.7200000000000002	180096
bin	1.7600000000000002	124352
bin	1.8000000000000003	175808
bin	1.8400000000000003	132928
bin	1.8800000000000003	167232
bin	1.9200000000000004	145792
bin	1.9600000000000004	154368
bin	2.0000000000000004	158656
bin	2.0400000000000005	141504
bin	2.0800000000000005	71488
bin	2.1200000000000006	0
statistic TwoHosts6.server.app[1] endToEndDelay:histogram
field count 1866
field mean 1.041892485959271
field stddev 0.6051416998131938
field min 0.00048249999999999996
field max 2.0979963
field sum 1944.1713788
field sqrsum 2708.5739803192705
bin	-inf	0
bin	0	43
bin	0.04	32
bin	0.08	38
bin	0.12	35
bin	0.16	35
bin	0.2	38
bin	0.24	32
bin	0.28	41
bin	0.32	29
bin	0.36	42
bin	0.4	28
bin	0.44	42
bin	0.48	31
bin	0.52	39
bin	0.56	34
bin	0.6	36
bin	0.64	37
bin	0.68	33
bin	0.72	40
bin	0.76	30
bin	0.8	42
bin	0.84	28
bin	0.88	42
bin	0.92	31
bin	0.96	39
bin	1	33
bin	1.04	37
bin	1.08	36
bin	1.12	34
bin	1.16	39
bin	1.2	31
bin	1.24	42
bin	1.28	28
bin	1.32	42
bin	1.36	30
bin	1.4000000000000001	40
bin	1.4400000000000002	33
bin	1.4800000000000002	37
bin	1.5200000000000002	36
bin	1.5600000000000003	34
bin	1.6000000000000003	39
bin	1.6400000000000003	31
bin	1.6800000000000004	41
bin	1.7200000000000004	29
bin	1.7600000000000005	42
bin	1.8000000000000005	29
bin	1.8400000000000005	41
bin	1.8800000000000006	32
bin	1.9200000000000006	38
bin	1.9600000000000006	35
bin	2.0000000000000004	35
bin	2.0400000000000005	38
bin	2.0800000000000005	7
bin	2.1200000000000006	0
statistic TwoHosts6.server.app[1] endToEndDelay:weightedHistogram
field count 1866
field mean 1.041706611688
field stddev 0.6050326407899853
field min 0.00048249999999999996
field max 2.0979963
field weights 8e+06
field weightedSum 8333652.893504
field sqrSumWeights 34299944960
field weightedSqrSum 11608167.791036494
bin	-inf	0
bin	0	184384
bin	0.04	137216
bin	0.08	162944
bin	0.12	150080
bin	0.16	150080
bin	0.2	162944
bin	0.24	137216
bin	0.28	175808
bin	0.32	124352
bin	0.36	180096
bin	0.4	120064
bin	0.44	180096
bin	0.48	132928
bin	0.52	167232
bin	0.56	145792
bin	0.6	154368
bin	0.64	158656
bin	0.68	141504
bin	0.72	171520
bin	0.76	128640
bin	0.8	180096
bin	0.84	120064
bin	0.88	180096
bin	0.92	132928
bin	0.96	167232
bin	1	141504
bin	1.04	158656
bin	1.08	154368
bin	1.12	145792
bin	1.16	167232
bin	1.2	132928
bin	1.24	180096
bin	1.28	120064
bin	1.32	180096
bin	1.36	128640
bin	1.4000000000000001	171520
bin	1.4400000000000002	141504
bin	1.4800000000000002	158656
bin	1.5200000000000002	154368
bin	1.5600000000000003	145792
bin	1.6000000000000003	167232
bin	1.6400000000000003	132928
bin	1.6800000000000004	175808
bin	1.7200000000000004	124352
bin	1.7600000000000005	180096
bin	1.8000000000000005	124352
bin	1.8400000000000005	175808
bin	1.8800000000000006	137216
bin	1.9200000000000006	162944
bin	1.9600000000000006	150080
bin	2.0000000000000004	150080
bin	2.0400000000000005	162944
bin	2.0800000000000005	28608
bin	2.1200000000000006	0
statistic TwoHosts6.server.app[2] endToEndDelay:histogram
field count 0
field mean nan
field stddev nan
field min nan
field max nan
field sum 0
field sqrsum 0
bin	-inf	0
bin	0	0
bin	1	0
statistic TwoHosts6.server.app[2] endToEndDelay:weightedHistogram
field count 0
field mean nan
field stddev nan
field min nan
field max nan
field weights 0
field weightedSum 0
field sqrSumWeights 0
field weightedSqrSum 0
bin	-inf	0
bin	0	0
bin	1	0
scalar TwoHosts6.client1.lo[0].lo rcvdPkFromHl:vector(packetBytes):count 0
scalar TwoHosts6.client1.lo[0].lo rcvdPkFromHl:vector(packetBytes):sum 0
scalar TwoHosts6.client1.lo[0].lo rcvdPkFromHl:vector(packetBytes):sumweights 0
scalar TwoHosts6.client1.lo[0].lo rcvdPkFromHl:vector(packetBytes):mean nan
scalar TwoHosts6.client1.lo[0].lo rcvdPkFromHl:vector(packetBytes):stddev nan
scalar TwoHosts6.client1.lo[0].lo rcvdPkFromHl:vector(packetBytes):min inf
scalar TwoHosts6.client1.lo[0].lo rcvdPkFromHl:vector(packetBytes):max -inf
scalar TwoHosts6.client1.lo[0].lo rcvdPkFromHl:vector(packetBytes):starttime nan
scalar TwoHosts6.client1.lo[0].lo rcvdPkFromHl:vector(packetBytes):endtime nan
scalar TwoHosts6.client1.lo[0].lo passedUpPk:vector(packetBytes):count 0
scalar TwoHosts6.client1.lo[0].lo passedUpPk:vector(packetBytes):sum 0
scalar TwoHosts6.client1.lo[0].lo passedUpPk:vector(packetBytes):sumweights 0
scalar TwoHosts6.client1.lo[0].lo passedUpPk:vector(packetBytes):mean nan
scalar TwoHosts6.client1.lo[0].lo passedUpPk:vector(packetBytes):stddev nan
scalar TwoHosts6.client1.lo[0].lo passedUpPk:vector(packetBytes):min inf
scalar TwoHosts6.client1.lo[0].lo passedUpPk:vector(packetBytes):max -inf
scalar TwoHosts6.client1.lo[0].lo passedUpPk:vector(packetBytes):starttime nan
scalar TwoHosts6.client1.lo[0].lo passedUpPk:vector(packetBytes):endtime nan
scalar TwoHosts6.client1.lo[0] packetDropInterfaceDown:vector(packetBytes):count 0
scalar TwoHosts6.client1.lo[0] packetDropInterfaceDown:vector(packetBytes):sum 0
scalar TwoHosts6.client1.lo[0] packetDropInterfaceDown:vector(packetBytes):sumweights 0
scalar TwoHosts6.client1.lo[0] packetDropInterfaceDown:vector(packetBytes):mean nan
scalar TwoHosts6.client1.lo[0] packetDropInterfaceDown:vector(packetBytes):stddev nan
scalar TwoHosts6.client1.lo[0] packetDropInterfaceDown:vector(packetBytes):min inf
scalar TwoHosts6.client1.lo[0] packetDropInterfaceDown:vector(packetBytes):max -inf
scalar TwoHosts6.client1.lo[0] packetDropInterfaceDown:vector(packetBytes):starttime nan
scalar TwoHosts6.client1.lo[0] packetDropInterfaceDown:vector(packetBytes):endtime nan
scalar TwoHosts6.client1.lo[0] packetDropNoCarrier:vector(packetBytes):count 0
scalar TwoHosts6.client1.lo[0] packetDropNoCarrier:vector(packetBytes):sum 0
scalar TwoHosts6.client1.lo[0] packetDropNoCarrier:vector(packetBytes):sumweights 0
scalar TwoHosts6.client1.lo[0] packetDropNoCarrier:vector(packetBytes):mean nan
scalar TwoHosts6.client1.lo[0] packetDropNoCarrier:vector(packetBytes):stddev nan
scalar TwoHosts6.client1.lo[0] packetDropNoCarrier:vector(packetBytes):min inf
scalar TwoHosts6.client1.lo[0] packetDropNoCarrier:vector(packetBytes):max -inf
scalar TwoHosts6.client1.lo[0] packetDropNoCarrier:vector(packetBytes):starttime nan
scalar TwoHosts6.client1.lo[0] packetDropNoCarrier:vector(packetBytes):endtime nan
scalar TwoHosts6.client1.ppp[0].queue queueLength:vector:count 16798
scalar TwoHosts6.client1.ppp[0].queue queueLength:vector:sum 607097
scalar TwoHosts6.client1.ppp[0].queue queueLength:vector:sumweights 16798
scalar TwoHosts6.client1.ppp[0].queue queueLength:vector:mean 36.14102869389213
scalar TwoHosts6.client1.ppp[0].queue queueLength:vector:stddev 13.282664567375647
scalar TwoHosts6.client1.ppp[0].queue queueLength:vector:min 0
scalar TwoHosts6.client1.ppp[0].queue queueLength:vector:max 45
scalar TwoHosts6.client1.ppp[0].queue queueLength:vector:starttime 0
scalar TwoHosts6.client1.ppp[0].queue queueLength:vector:endtime 25.000341800000005
scalar TwoHosts6.client1.ppp[0].queue queueBitLength:vector:count 16798
scalar TwoHosts6.client1.ppp[0].queue queueBitLength:vector:sum 1674036352
scalar TwoHosts6.client1.ppp[0].queue queueBitLength:vector:sumweights 16798
scalar TwoHosts6.client1.ppp[0].queue queueBitLength:vector:mean 99656.8848672461
scalar TwoHosts6.client1.ppp[0].queue queueBitLength:vector:stddev 39828.674376098956
scalar TwoHosts6.client1.ppp[0].queue queueBitLength:vector:min 0
scalar TwoHosts6.client1.ppp[0].queue queueBitLength:vector:max 145664
scalar TwoHosts6.client1.ppp[0].queue queueBitLength:vector:starttime 0
scalar TwoHosts6.client1.ppp[0].queue queueBitLength:vector:endtime 25.000341800000005
scalar TwoHosts6.client1.ppp[0].queue queueingTime:vector:count 9342
scalar TwoHosts6.client1.ppp[0].queue queueingTime:vector:sum 85.472619777773
scalar TwoHosts6.client1.ppp[0].queue queueingTime:vector:sumweights 9342
scalar TwoHosts6.client1.ppp[0].queue queueingTime:vector:mean 0.009149284925901627
scalar TwoHosts6.client1.ppp[0].queue queueingTime:vector:stddev 0.0049043557397453145
scalar TwoHosts6.client1.ppp[0].queue queueingTime:vector:min 0
scalar TwoHosts6.client1.ppp[0].queue queueingTime:vector:max 0.0144294
scalar TwoHosts6.client1.ppp[0].queue queueingTime:vector:starttime 0.2
scalar TwoHosts6.client1.ppp[0].queue queueingTime:vector:endtime 25.000341800000005
scalar TwoHosts6.client1.ppp[0].queue incomingPacketLengths:vector:count 9342
scalar TwoHosts6.client1.ppp[0].queue incomingPacketLengths:vector:sum 21978080
scalar TwoHosts6.client1.ppp[0].queue incomingPacketLengths:vector:sumweights 9342
scalar TwoHosts6.client1.ppp[0].queue incomingPacketLengths:vector:mean 2352.6097195461357
scalar TwoHosts6.client1.ppp[0].queue incomingPacketLengths:vector:stddev 2064.896102013833
scalar TwoHosts6.client1.ppp[0].queue incomingPacketLengths:vector:min 448
scalar TwoHosts6.client1.ppp[0].queue incomingPacketLengths:vector:max 4992
scalar TwoHosts6.client1.ppp[0].queue incomingPacketLengths:vector:starttime 0.2
scalar TwoHosts6.client1.ppp[0].queue incomingPacketLengths:vector:endtime 25.000341800000005
scalar TwoHosts6.client1.ppp[0].queue incomingDataRate:vector:count 2063
scalar TwoHosts6.client1.ppp[0].queue incomingDataRate:vector:sum 766551126.3950115
scalar TwoHosts6.client1.ppp[0].queue incomingDataRate:vector:sumweights 2063
scalar TwoHosts6.client1.ppp[0].queue incomingDataRate:vector:mean 371571.0743553134
scalar TwoHosts6.client1.ppp[0].queue incomingDataRate:vector:stddev 1873121.0390507868
scalar TwoHosts6.client1.ppp[0].queue incomingDataRate:vector:min 0
scalar TwoHosts6.client1.ppp[0].queue incomingDataRate:vector:max 16470183.382386236
scalar TwoHosts6.client1.ppp[0].queue incomingDataRate:vector:starttime 0.1
scalar TwoHosts6.client1.ppp[0].queue incomingDataRate:vector:endtime 200
scalar TwoHosts6.client1.ppp[0].queue outgoingPacketLengths:vector:count 9342
scalar TwoHosts6.client1.ppp[0].queue outgoingPacketLengths:vector:sum 21978080
scalar TwoHosts6.client1.ppp[0].queue outgoingPacketLengths:vector:sumweights 9342
scalar TwoHosts6.client1.ppp[0].queue outgoingPacketLengths:vector:mean 2352.6097195461357
scalar TwoHosts6.client1.ppp[0].queue outgoingPacketLengths:vector:stddev 2064.896102013833
scalar TwoHosts6.client1.ppp[0].queue outgoingPacketLengths:vector:min 448
scalar TwoHosts6.client1.ppp[0].queue outgoingPacketLengths:vector:max 4992
scalar TwoHosts6.client1.ppp[0].queue outgoingPacketLengths:vector:starttime 0.2
scalar TwoHosts6.client1.ppp[0].queue outgoingPacketLengths:vector:endtime 25.000341800000005
scalar TwoHosts6.client1.ppp[0].queue outgoingDataRate:vector:count 2063
scalar TwoHosts6.client1.ppp[0].queue outgoingDataRate:vector:sum 756964072.9488915
scalar TwoHosts6.client1.ppp[0].queue outgoingDataRate:vector:sumweights 2063
scalar TwoHosts6.client1.ppp[0].queue outgoingDataRate:vector:mean 366923.9325976207
scalar TwoHosts6.client1.ppp[0].queue outgoingDataRate:vector:stddev 1828119.158800805
scalar TwoHosts6.client1.ppp[0].queue outgoingDataRate:vector:min 0
scalar TwoHosts6.client1.ppp[0].queue outgoingDataRate:vector:max 9977178.969542703
scalar TwoHosts6.client1.ppp[0].queue outgoingDataRate:vector:starttime 0.1
scalar TwoHosts6.client1.ppp[0].queue outgoingDataRate:vector:endtime 200
scalar TwoHosts6.client1.ppp[0].queue droppedPacketLengthsQueueOverflow:vector:count 0
scalar TwoHosts6.client1.ppp[0].queue droppedPacketLengthsQueueOverflow:vector:sum 0
scalar TwoHosts6.client1.ppp[0].queue droppedPacketLengthsQueueOverflow:vector:sumweights 0
scalar TwoHosts6.client1.ppp[0].queue droppedPacketLengthsQueueOverflow:vector:mean nan
scalar TwoHosts6.client1.ppp[0].queue droppedPacketLengthsQueueOverflow:vector:stddev nan
scalar TwoHosts6.client1.ppp[0].queue droppedPacketLengthsQueueOverflow:vector:min inf
scalar TwoHosts6.client1.ppp[0].queue droppedPacketLengthsQueueOverflow:vector:max -inf
scalar TwoHosts6.client1.ppp[0].queue droppedPacketLengthsQueueOverflow:vector:starttime nan
scalar TwoHosts6.client1.ppp[0].queue droppedPacketLengthsQueueOverflow:vector:endtime nan
scalar TwoHosts6.client1.ppp[0].queue flowQueueingTime:vector:count 0
scalar TwoHosts6.client1.ppp[0].queue flowQueueingTime:vector:sum 0
scalar TwoHosts6.client1.ppp[0].queue flowQueueingTime:vector:sumweights 0
scalar TwoHosts6.client1.ppp[0].queue flowQueueingTime:vector:mean nan
scalar TwoHosts6.client1.ppp[0].queue flowQueueingTime:vector:stddev nan
scalar TwoHosts6.client1.ppp[0].queue flowQueueingTime:vector:min inf
scalar TwoHosts6.client1.ppp[0].queue flowQueueingTime:vector:max -inf
scalar TwoHosts6.client1.ppp[0].queue flowQueueingTime:vector:starttime nan
scalar TwoHosts6.client1.ppp[0].queue flowQueueingTime:vector:endtime nan
scalar TwoHosts6.client1.ppp[0].queue flowIncomingDataRate:vector:count 2000
scalar TwoHosts6.client1.ppp[0].queue flowIncomingDataRate:vector:sum 0
scalar TwoHosts6.client1.ppp[0].queue flowIncomingDataRate:vector:sumweights 2000
scalar TwoHosts6.client1.ppp[0].queue flowIncomingDataRate:vector:mean 0
scalar TwoHosts6.client1.ppp[0].queue flowIncomingDataRate:vector:stddev 0
scalar TwoHosts6.client1.ppp[0].queue flowIncomingDataRate:vector:min 0
scalar TwoHosts6.client1.ppp[0].queue flowIncomingDataRate:vector:max 0
scalar TwoHosts6.client1.ppp[0].queue flowIncomingDataRate:vector:starttime 0.1
scalar TwoHosts6.client1.ppp[0].queue flowIncomingDataRate:vector:endtime 200
scalar TwoHosts6.client1.ppp[0].queue flowOutgoingDataRate:vector:count 2000
scalar TwoHosts6.client1.ppp[0].queue flowOutgoingDataRate:vector:sum 0
scalar TwoHosts6.client1.ppp[0].queue flowOutgoingDataRate:vector:sumweights 2000
scalar TwoHosts6.client1.ppp[0].queue flowOutgoingDataRate:vector:mean 0
scalar TwoHosts6.client1.ppp[0].queue flowOutgoingDataRate:vector:stddev 0
scalar TwoHosts6.client1.ppp[0].queue flowOutgoingDataRate:vector:min 0
scalar TwoHosts6.client1.ppp[0].queue flowOutgoingDataRate:vector:max 0
scalar TwoHosts6.client1.ppp[0].queue flowOutgoingDataRate:vector:starttime 0.1
scalar TwoHosts6.client1.ppp[0].queue flowOutgoingDataRate:vector:endtime 200
scalar TwoHosts6.client1.ppp[0].ppp transmissionState:vector:count 18685
scalar TwoHosts6.client1.ppp[0].ppp transmissionState:vector:sum 9342
scalar TwoHosts6.client1.ppp[0].ppp transmissionState:vector:sumweights 18685
scalar TwoHosts6.client1.ppp[0].ppp transmissionState:vector:mean 0.49997324056729997
scalar TwoHosts6.client1.ppp[0].ppp transmissionState:vector:stddev 0.500013379537338
scalar TwoHosts6.client1.ppp[0].ppp transmissionState:vector:min 0
scalar TwoHosts6.client1.ppp[0].ppp transmissionState:vector:max 1
scalar TwoHosts6.client1.ppp[0].ppp transmissionState:vector:starttime 0
scalar TwoHosts6.client1.ppp[0].ppp transmissionState:vector:endtime 25.000424200000005
scalar TwoHosts6.client1.ppp[0].ppp txPk:vector(packetBytes):count 9342
scalar TwoHosts6.client1.ppp[0].ppp txPk:vector(packetBytes):sum 2812654
scalar TwoHosts6.client1.ppp[0].ppp txPk:vector(packetBytes):sumweights 9342
scalar TwoHosts6.client1.ppp[0].ppp txPk:vector(packetBytes):mean 301.07621494326696
scalar TwoHosts6.client1.ppp[0].ppp txPk:vector(packetBytes):stddev 258.11201275172914
scalar TwoHosts6.client1.ppp[0].ppp txPk:vector(packetBytes):min 63
scalar TwoHosts6.client1.ppp[0].ppp txPk:vector(packetBytes):max 631
scalar TwoHosts6.client1.ppp[0].ppp txPk:vector(packetBytes):starttime 0.2
scalar TwoHosts6.client1.ppp[0].ppp txPk:vector(packetBytes):endtime 25.000341800000005
scalar TwoHosts6.client1.ppp[0].ppp rxPkOk:vector(packetBytes):count 9340
scalar TwoHosts6.client1.ppp[0].ppp rxPkOk:vector(packetBytes):sum 3797556
scalar TwoHosts6.client1.ppp[0].ppp rxPkOk:vector(packetBytes):sumweights 9340
scalar TwoHosts6.client1.ppp[0].ppp rxPkOk:vector(packetBytes):mean 406.59057815845824
scalar TwoHosts6.client1.ppp[0].ppp rxPkOk:vector(packetBytes):stddev 263.43640304357336
scalar TwoHosts6.client1.ppp[0].ppp rxPkOk:vector(packetBytes):min 63
scalar TwoHosts6.client1.ppp[0].ppp rxPkOk:vector(packetBytes):max 631
scalar TwoHosts6.client1.ppp[0].ppp rxPkOk:vector(packetBytes):starttime 0.20011380000000004
scalar TwoHosts6.client1.ppp[0].ppp rxPkOk:vector(packetBytes):endtime 25.000325800000006
scalar TwoHosts6.client1.ppp[0].ppp packetDropIncorrectlyReceived:vector(packetBytes):count 0
scalar TwoHosts6.client1.ppp[0].ppp packetDropIncorrectlyReceived:vector(packetBytes):sum 0
scalar TwoHosts6.client1.ppp[0].ppp packetDropIncorrectlyReceived:vector(packetBytes):sumweights 0
scalar TwoHosts6.client1.ppp[0].ppp packetDropIncorrectlyReceived:vector(packetBytes):mean nan
scalar TwoHosts6.client1.ppp[0].ppp packetDropIncorrectlyReceived:vector(packetBytes):stddev nan
scalar TwoHosts6.client1.ppp[0].ppp packetDropIncorrectlyReceived:vector(packetBytes):min inf
scalar TwoHosts6.client1.ppp[0].ppp packetDropIncorrectlyReceived:vector(packetBytes):max -inf
scalar TwoHosts6.client1.ppp[0].ppp packetDropIncorrectlyReceived:vector(packetBytes):starttime nan
scalar TwoHosts6.client1.ppp[0].ppp packetDropIncorrectlyReceived:vector(packetBytes):endtime nan
scalar TwoHosts6.client1.ppp[0].ppp packetDropInterfaceDown:vector(packetBytes):count 0
scalar TwoHosts6.client1.ppp[0].ppp packetDropInterfaceDown:vector(packetBytes):sum 0
scalar TwoHosts6.client1.ppp[0].ppp packetDropInterfaceDown:vector(packetBytes):sumweights 0
scalar TwoHosts6.client1.ppp[0].ppp packetDropInterfaceDown:vector(packetBytes):mean nan
scalar TwoHosts6.client1.ppp[0].ppp packetDropInterfaceDown:vector(packetBytes):stddev nan
scalar TwoHosts6.client1.ppp[0].ppp packetDropInterfaceDown:vector(packetBytes):min inf
scalar TwoHosts6.client1.ppp[0].ppp packetDropInterfaceDown:vector(packetBytes):max -inf
scalar TwoHosts6.client1.ppp[0].ppp packetDropInterfaceDown:vector(packetBytes):starttime nan
scalar TwoHosts6.client1.ppp[0].ppp packetDropInterfaceDown:vector(packetBytes):endtime nan
scalar TwoHosts6.client1.ppp[0].ppp rcvdPkFromHl:vector(packetBytes):count 9342
scalar TwoHosts6.client1.ppp[0].ppp rcvdPkFromHl:vector(packetBytes):sum 2747260
scalar TwoHosts6.client1.ppp[0].ppp rcvdPkFromHl:vector(packetBytes):sumweights 9342
scalar TwoHosts6.client1.ppp[0].ppp rcvdPkFromHl:vector(packetBytes):mean 294.07621494326696
scalar TwoHosts6.client1.ppp[0].ppp rcvdPkFromHl:vector(packetBytes):stddev 258.11201275172914
scalar TwoHosts6.client1.ppp[0].ppp rcvdPkFromHl:vector(packetBytes):min 56
scalar TwoHosts6.client1.ppp[0].ppp rcvdPkFromHl:vector(packetBytes):max 624
scalar TwoHosts6.client1.ppp[0].ppp rcvdPkFromHl:vector(packetBytes):starttime 0.2
scalar TwoHosts6.client1.ppp[0].ppp rcvdPkFromHl:vector(packetBytes):endtime 25.000341800000005
scalar TwoHosts6.client1.ppp[0].ppp passedUpPk:vector(packetBytes):count 9340
scalar TwoHosts6.client1.ppp[0].ppp passedUpPk:vector(packetBytes):sum 3732176
scalar TwoHosts6.client1.ppp[0].ppp passedUpPk:vector(packetBytes):sumweights 9340
scalar TwoHosts6.client1.ppp[0].ppp passedUpPk:vector(packetBytes):mean 399.59057815845824
scalar TwoHosts6.client1.ppp[0].ppp passedUpPk:vector(packetBytes):stddev 263.43640304357336
scalar TwoHosts6.client1.ppp[0].ppp passedUpPk:vector(packetBytes):min 56
scalar TwoHosts6.client1.ppp[0].ppp passedUpPk:vector(packetBytes):max 624
scalar TwoHosts6.client1.ppp[0].ppp passedUpPk:vector(packetBytes):starttime 0.20011380000000004
scalar TwoHosts6.client1.ppp[0].ppp passedUpPk:vector(packetBytes):endtime 25.000325800000006
scalar TwoHosts6.client1.ppp[0] packetDropInterfaceDown:vector(packetBytes):count 0
scalar TwoHosts6.client1.ppp[0] packetDropInterfaceDown:vector(packetBytes):sum 0
scalar TwoHosts6.client1.ppp[0] packetDropInterfaceDown:vector(packetBytes):sumweights 0
scalar TwoHosts6.client1.ppp[0] packetDropInterfaceDown:vector(packetBytes):mean nan
scalar TwoHosts6.client1.ppp[0] packetDropInterfaceDown:vector(packetBytes):stddev nan
scalar TwoHosts6.client1.ppp[0] packetDropInterfaceDown:vector(packetBytes):min inf
scalar TwoHosts6.client1.ppp[0] packetDropInterfaceDown:vector(packetBytes):max -inf
scalar TwoHosts6.client1.ppp[0] packetDropInterfaceDown:vector(packetBytes):starttime nan
scalar TwoHosts6.client1.ppp[0] packetDropInterfaceDown:vector(packetBytes):endtime nan
scalar TwoHosts6.client1.ppp[0] packetDropNoCarrier:vector(packetBytes):count 0
scalar TwoHosts6.client1.ppp[0] packetDropNoCarrier:vector(packetBytes):sum 0
scalar TwoHosts6.client1.ppp[0] packetDropNoCarrier:vector(packetBytes):sumweights 0
scalar TwoHosts6.client1.ppp[0] packetDropNoCarrier:vector(packetBytes):mean nan
scalar TwoHosts6.client1.ppp[0] packetDropNoCarrier:vector(packetBytes):stddev nan
scalar TwoHosts6.client1.ppp[0] packetDropNoCarrier:vector(packetBytes):min inf
scalar TwoHosts6.client1.ppp[0] packetDropNoCarrier:vector(packetBytes):max -inf
scalar TwoHosts6.client1.ppp[0] packetDropNoCarrier:vector(packetBytes):starttime nan
scalar TwoHosts6.client1.ppp[0] packetDropNoCarrier:vector(packetBytes):endtime nan
scalar TwoHosts6.client1.ipv6.neighbourDiscovery startDad:vector:count 1
scalar TwoHosts6.client1.ipv6.neighbourDiscovery startDad:vector:sum 1
scalar TwoHosts6.client1.ipv6.neighbourDiscovery startDad:vector:sumweights 1
scalar TwoHosts6.client1.ipv6.neighbourDiscovery startDad:vector:mean 1
scalar TwoHosts6.client1.ipv6.neighbourDiscovery startDad:vector:stddev nan
scalar TwoHosts6.client1.ipv6.neighbourDiscovery startDad:vector:min 1
scalar TwoHosts6.client1.ipv6.neighbourDiscovery startDad:vector:max 1
scalar TwoHosts6.client1.ipv6.neighbourDiscovery startDad:vector:starttime 0.7616580222270002
scalar TwoHosts6.client1.ipv6.neighbourDiscovery startDad:vector:endtime 0.7616580222270002
scalar TwoHosts6.client1.ipv6.neighbourDiscovery dadCompleted:vector:count 1
scalar TwoHosts6.client1.ipv6.neighbourDiscovery dadCompleted:vector:sum 1
scalar TwoHosts6.client1.ipv6.neighbourDiscovery dadCompleted:vector:sumweights 1
scalar TwoHosts6.client1.ipv6.neighbourDiscovery dadCompleted:vector:mean 1
scalar TwoHosts6.client1.ipv6.neighbourDiscovery dadCompleted:vector:stddev nan
scalar TwoHosts6.client1.ipv6.neighbourDiscovery dadCompleted:vector:min 1
scalar TwoHosts6.client1.ipv6.neighbourDiscovery dadCompleted:vector:max 1
scalar TwoHosts6.client1.ipv6.neighbourDiscovery dadCompleted:vector:starttime 2.3065411996100007
scalar TwoHosts6.client1.ipv6.neighbourDiscovery dadCompleted:vector:endtime 2.3065411996100007
scalar TwoHosts6.client1.ipv6.neighbourDiscovery dadFailed:vector:count 0
scalar TwoHosts6.client1.ipv6.neighbourDiscovery dadFailed:vector:sum 0
scalar TwoHosts6.client1.ipv6.neighbourDiscovery dadFailed:vector:sumweights 0
scalar TwoHosts6.client1.ipv6.neighbourDiscovery dadFailed:vector:mean nan
scalar TwoHosts6.client1.ipv6.neighbourDiscovery dadFailed:vector:stddev nan
scalar TwoHosts6.client1.ipv6.neighbourDiscovery dadFailed:vector:min inf
scalar TwoHosts6.client1.ipv6.neighbourDiscovery dadFailed:vector:max -inf
scalar TwoHosts6.client1.ipv6.neighbourDiscovery dadFailed:vector:starttime nan
scalar TwoHosts6.client1.ipv6.neighbourDiscovery dadFailed:vector:endtime nan
scalar TwoHosts6.client1.ipv6.ipsec inProtectedAccept:vector:count 5601
scalar TwoHosts6.client1.ipv6.ipsec inProtectedAccept:vector:sum 5601
scalar TwoHosts6.client1.ipv6.ipsec inProtectedAccept:vector:sumweights 5601
scalar TwoHosts6.client1.ipv6.ipsec inProtectedAccept:vector:mean 1
scalar TwoHosts6.client1.ipv6.ipsec inProtectedAccept:vector:stddev 0
scalar TwoHosts6.client1.ipv6.ipsec inProtectedAccept:vector:min 1
scalar TwoHosts6.client1.ipv6.ipsec inProtectedAccept:vector:max 1
scalar TwoHosts6.client1.ipv6.ipsec inProtectedAccept:vector:starttime 0.20023780000000005
scalar TwoHosts6.client1.ipv6.ipsec inProtectedAccept:vector:endtime 25.000325800000006
scalar TwoHosts6.client1.ipv6.ipsec inProtectedDrop:vector:count 0
scalar TwoHosts6.client1.ipv6.ipsec inProtectedDrop:vector:sum 0
scalar TwoHosts6.client1.ipv6.ipsec inProtectedDrop:vector:sumweights 0
scalar TwoHosts6.client1.ipv6.ipsec inProtectedDrop:vector:mean nan
scalar TwoHosts6.client1.ipv6.ipsec inProtectedDrop:vector:stddev nan
scalar TwoHosts6.client1.ipv6.ipsec inProtectedDrop:vector:min inf
scalar TwoHosts6.client1.ipv6.ipsec inProtectedDrop:vector:max -inf
scalar TwoHosts6.client1.ipv6.ipsec inProtectedDrop:vector:starttime nan
scalar TwoHosts6.client1.ipv6.ipsec inProtectedDrop:vector:endtime nan
scalar TwoHosts6.client1.ipv6.ipsec inUnprotectedBypass:vector:count 3736
scalar TwoHosts6.client1.ipv6.ipsec inUnprotectedBypass:vector:sum 3736
scalar TwoHosts6.client1.ipv6.ipsec inUnprotectedBypass:vector:sumweights 3736
scalar TwoHosts6.client1.ipv6.ipsec inUnprotectedBypass:vector:mean 1
scalar TwoHosts6.client1.ipv6.ipsec inUnprotectedBypass:vector:stddev 0
scalar TwoHosts6.client1.ipv6.ipsec inUnprotectedBypass:vector:min 1
scalar TwoHosts6.client1.ipv6.ipsec inUnprotectedBypass:vector:max 1
scalar TwoHosts6.client1.ipv6.ipsec inUnprotectedBypass:vector:starttime 0.20011380000000004
scalar TwoHosts6.client1.ipv6.ipsec inUnprotectedBypass:vector:endtime 25.000161000000006
scalar TwoHosts6.client1.ipv6.ipsec inUnprotectedDrop:vector:count 0
scalar TwoHosts6.client1.ipv6.ipsec inUnprotectedDrop:vector:sum 0
scalar TwoHosts6.client1.ipv6.ipsec inUnprotectedDrop:vector:sumweights 0
scalar TwoHosts6.client1.ipv6.ipsec inUnprotectedDrop:vector:mean nan
scalar TwoHosts6.client1.ipv6.ipsec inUnprotectedDrop:vector:stddev nan
scalar TwoHosts6.client1.ipv6.ipsec inUnprotectedDrop:vector:min inf
scalar TwoHosts6.client1.ipv6.ipsec inUnprotectedDrop:vector:max -inf
scalar TwoHosts6.client1.ipv6.ipsec inUnprotectedDrop:vector:starttime nan
scalar TwoHosts6.client1.ipv6.ipsec inUnprotectedDrop:vector:endtime nan
scalar TwoHosts6.client1.ipv6.ipsec outBypass:vector:count 3740
scalar TwoHosts6.client1.ipv6.ipsec outBypass:vector:sum 3740
scalar TwoHosts6.client1.ipv6.ipsec outBypass:vector:sumweights 3740
scalar TwoHosts6.client1.ipv6.ipsec outBypass:vector:mean 1
scalar TwoHosts6.client1.ipv6.ipsec outBypass:vector:stddev 0
scalar TwoHosts6.client1.ipv6.ipsec outBypass:vector:min 1
scalar TwoHosts6.client1.ipv6.ipsec outBypass:vector:max 1
scalar TwoHosts6.client1.ipv6.ipsec outBypass:vector:starttime 0.2
scalar TwoHosts6.client1.ipv6.ipsec outBypass:vector:endtime 25.000161000000006
scalar TwoHosts6.client1.ipv6.ipsec outProtect:vector:count 5602
scalar TwoHosts6.client1.ipv6.ipsec outProtect:vector:sum 5602
scalar TwoHosts6.client1.ipv6.ipsec outProtect:vector:sumweights 5602
scalar TwoHosts6.client1.ipv6.ipsec outProtect:vector:mean 1
scalar TwoHosts6.client1.ipv6.ipsec outProtect:vector:stddev 0
scalar TwoHosts6.client1.ipv6.ipsec outProtect:vector:min 1
scalar TwoHosts6.client1.ipv6.ipsec outProtect:vector:max 1
scalar TwoHosts6.client1.ipv6.ipsec outProtect:vector:starttime 0.2
scalar TwoHosts6.client1.ipv6.ipsec outProtect:vector:endtime 25.000334800000005
scalar TwoHosts6.client1.ipv6.ipsec outDrop:vector:count 5
scalar TwoHosts6.client1.ipv6.ipsec outDrop:vector:sum 5
scalar TwoHosts6.client1.ipv6.ipsec outDrop:vector:sumweights 5
scalar TwoHosts6.client1.ipv6.ipsec outDrop:vector:mean 1
scalar TwoHosts6.client1.ipv6.ipsec outDrop:vector:stddev 0
scalar TwoHosts6.client1.ipv6.ipsec outDrop:vector:min 1
scalar TwoHosts6.client1.ipv6.ipsec outDrop:vector:max 1
scalar TwoHosts6.client1.ipv6.ipsec outDrop:vector:starttime 0.2
scalar TwoHosts6.client1.ipv6.ipsec outDrop:vector:endtime 45.2
scalar TwoHosts6.client1.ipv6.ipsec inProcessDelay:vector:count 5601
scalar TwoHosts6.client1.ipv6.ipsec inProcessDelay:vector:sum 0.050408999999999995
scalar TwoHosts6.client1.ipv6.ipsec inProcessDelay:vector:sumweights 5601
scalar TwoHosts6.client1.ipv6.ipsec inProcessDelay:vector:mean 8.999999999999999e-06
scalar TwoHosts6.client1.ipv6.ipsec inProcessDelay:vector:stddev 0
scalar TwoHosts6.client1.ipv6.ipsec inProcessDelay:vector:min 9e-06
scalar TwoHosts6.client1.ipv6.ipsec inProcessDelay:vector:max 9e-06
scalar TwoHosts6.client1.ipv6.ipsec inProcessDelay:vector:starttime 0.20023780000000005
scalar TwoHosts6.client1.ipv6.ipsec inProcessDelay:vector:endtime 25.000325800000006
scalar TwoHosts6.client1.ipv6.ipsec outProcessDelay:vector:count 5602
scalar TwoHosts6.client1.ipv6.ipsec outProcessDelay:vector:sum 0.039305
scalar TwoHosts6.client1.ipv6.ipsec outProcessDelay:vector:sumweights 5602
scalar TwoHosts6.client1.ipv6.ipsec outProcessDelay:vector:mean 7.016244198500536e-06
scalar TwoHosts6.client1.ipv6.ipsec outProcessDelay:vector:stddev 3.3684680498665304e-07
scalar TwoHosts6.client1.ipv6.ipsec outProcessDelay:vector:min 7e-06
scalar TwoHosts6.client1.ipv6.ipsec outProcessDelay:vector:max 1.4e-05
scalar TwoHosts6.client1.ipv6.ipsec outProcessDelay:vector:starttime 0.2
scalar TwoHosts6.client1.ipv6.ipsec outProcessDelay:vector:endtime 25.000334800000005
scalar TwoHosts6.client1.udp packetSent:vector(packetBytes):count 0
scalar TwoHosts6.client1.udp packetSent:vector(packetBytes):sum 0
scalar TwoHosts6.client1.udp packetSent:vector(packetBytes):sumweights 0
scalar TwoHosts6.client1.udp packetSent:vector(packetBytes):mean nan
scalar TwoHosts6.client1.udp packetSent:vector(packetBytes):stddev nan
scalar TwoHosts6.client1.udp packetSent:vector(packetBytes):min inf
scalar TwoHosts6.client1.udp packetSent:vector(packetBytes):max -inf
scalar TwoHosts6.client1.udp packetSent:vector(packetBytes):starttime nan
scalar TwoHosts6.client1.udp packetSent:vector(packetBytes):endtime nan
scalar TwoHosts6.client1.udp outgoingDataRate:vector:count 2000
scalar TwoHosts6.client1.udp outgoingDataRate:vector:sum 0
scalar TwoHosts6.client1.udp outgoingDataRate:vector:sumweights 2000
scalar TwoHosts6.client1.udp outgoingDataRate:vector:mean 0
scalar TwoHosts6.client1.udp outgoingDataRate:vector:stddev 0
scalar TwoHosts6.client1.udp outgoingDataRate:vector:min 0
scalar TwoHosts6.client1.udp outgoingDataRate:vector:max 0
scalar TwoHosts6.client1.udp outgoingDataRate:vector:starttime 0.1
scalar TwoHosts6.client1.udp outgoingDataRate:vector:endtime 200
scalar TwoHosts6.client1.udp packetReceived:vector(packetBytes):count 0
scalar TwoHosts6.client1.udp packetReceived:vector(packetBytes):sum 0
scalar TwoHosts6.client1.udp packetReceived:vector(packetBytes):sumweights 0
scalar TwoHosts6.client1.udp packetReceived:vector(packetBytes):mean nan
scalar TwoHosts6.client1.udp packetReceived:vector(packetBytes):stddev nan
scalar TwoHosts6.client1.udp packetReceived:vector(packetBytes):min inf
scalar TwoHosts6.client1.udp packetReceived:vector(packetBytes):max -inf
scalar TwoHosts6.client1.udp packetReceived:vector(packetBytes):starttime nan
scalar TwoHosts6.client1.udp packetReceived:vector(packetBytes):endtime nan
scalar TwoHosts6.client1.udp passedUpPk:vector(count):count 1
scalar TwoHosts6.client1.udp passedUpPk:vector(count):sum 0
scalar TwoHosts6.client1.udp passedUpPk:vector(count):sumweights 1
scalar TwoHosts6.client1.udp passedUpPk:vector(count):mean 0
scalar TwoHosts6.client1.udp passedUpPk:vector(count):stddev nan
scalar TwoHosts6.client1.udp passedUpPk:vector(count):min 0
scalar TwoHosts6.client1.udp passedUpPk:vector(count):max 0
scalar TwoHosts6.client1.udp passedUpPk:vector(count):starttime 0
scalar TwoHosts6.client1.udp passedUpPk:vector(count):endtime 0
scalar TwoHosts6.client1.udp droppedPkWrongPort:vector(count):count 1
scalar TwoHosts6.client1.udp droppedPkWrongPort:vector(count):sum 0
scalar TwoHosts6.client1.udp droppedPkWrongPort:vector(count):sumweights 1
scalar TwoHosts6.client1.udp droppedPkWrongPort:vector(count):mean 0
scalar TwoHosts6.client1.udp droppedPkWrongPort:vector(count):stddev nan
scalar TwoHosts6.client1.udp droppedPkWrongPort:vector(count):min 0
scalar TwoHosts6.client1.udp droppedPkWrongPort:vector(count):max 0
scalar TwoHosts6.client1.udp droppedPkWrongPort:vector(count):starttime 0
scalar TwoHosts6.client1.udp droppedPkWrongPort:vector(count):endtime 0
scalar TwoHosts6.client1.udp droppedPkBadChecksum:vector(count):count 1
scalar TwoHosts6.client1.udp droppedPkBadChecksum:vector(count):sum 0
scalar TwoHosts6.client1.udp droppedPkBadChecksum:vector(count):sumweights 1
scalar TwoHosts6.client1.udp droppedPkBadChecksum:vector(count):mean 0
scalar TwoHosts6.client1.udp droppedPkBadChecksum:vector(count):stddev nan
scalar TwoHosts6.client1.udp droppedPkBadChecksum:vector(count):min 0
scalar TwoHosts6.client1.udp droppedPkBadChecksum:vector(count):max 0
scalar TwoHosts6.client1.udp droppedPkBadChecksum:vector(count):starttime 0
scalar TwoHosts6.client1.udp droppedPkBadChecksum:vector(count):endtime 0
scalar TwoHosts6.client1.app[0] packetReceived:vector(packetBytes):count 3732
scalar TwoHosts6.client1.app[0] packetReceived:vector(packetBytes):sum 2e+06
scalar TwoHosts6.client1.app[0] packetReceived:vector(packetBytes):sumweights 3732
scalar TwoHosts6.client1.app[0] packetReceived:vector(packetBytes):mean 535.9056806002144
scalar TwoHosts6.client1.app[0] packetReceived:vector(packetBytes):stddev 5.761981319348972
scalar TwoHosts6.client1.app[0] packetReceived:vector(packetBytes):min 184
scalar TwoHosts6.client1.app[0] packetReceived:vector(packetBytes):max 536
scalar TwoHosts6.client1.app[0] packetReceived:vector(packetBytes):starttime 0.4016148000000001
scalar TwoHosts6.client1.app[0] packetReceived:vector(packetBytes):endtime 3.4426254000000007
scalar TwoHosts6.client1.app[0] packetSent:vector(packetBytes):count 1
scalar TwoHosts6.client1.app[0] packetSent:vector(packetBytes):sum 1e+06
scalar TwoHosts6.client1.app[0] packetSent:vector(packetBytes):sumweights 1
scalar TwoHosts6.client1.app[0] packetSent:vector(packetBytes):mean 1e+06
scalar TwoHosts6.client1.app[0] packetSent:vector(packetBytes):stddev nan
scalar TwoHosts6.client1.app[0] packetSent:vector(packetBytes):min 1e+06
scalar TwoHosts6.client1.app[0] packetSent:vector(packetBytes):max 1e+06
scalar TwoHosts6.client1.app[0] packetSent:vector(packetBytes):starttime 0.4
scalar TwoHosts6.client1.app[0] packetSent:vector(packetBytes):endtime 0.4
scalar TwoHosts6.client1.app[0] endToEndDelay:vector:count 3732
scalar TwoHosts6.client1.app[0] endToEndDelay:vector:sum 2855.8510826
scalar TwoHosts6.client1.app[0] endToEndDelay:vector:sumweights 3732
scalar TwoHosts6.client1.app[0] endToEndDelay:vector:mean 0.765233409056806
[...]
scalar TwoHosts6.server.tcp.conn-12 rcvAdv:vector:min 57504
scalar TwoHosts6.server.tcp.conn-12 rcvAdv:vector:max 1057505
scalar TwoHosts6.server.tcp.conn-12 rcvAdv:vector:starttime 0.20014830000000006
scalar TwoHosts6.server.tcp.conn-12 rcvAdv:vector:endtime 25.000145100000005
scalar TwoHosts6.server.tcp.conn-12 sndNxt:vector:count 3732
scalar TwoHosts6.server.tcp.conn-12 sndNxt:vector:sum 3918398472
scalar TwoHosts6.server.tcp.conn-12 sndNxt:vector:sumweights 3732
scalar TwoHosts6.server.tcp.conn-12 sndNxt:vector:mean 1049946
scalar TwoHosts6.server.tcp.conn-12 sndNxt:vector:stddev 577529.2425912302
scalar TwoHosts6.server.tcp.conn-12 sndNxt:vector:min 50038
scalar TwoHosts6.server.tcp.conn-12 sndNxt:vector:max 2049854
scalar TwoHosts6.server.tcp.conn-12 sndNxt:vector:starttime 0.4009963000000001
scalar TwoHosts6.server.tcp.conn-12 sndNxt:vector:endtime 3.4423861000000007
scalar TwoHosts6.server.tcp.conn-12 sndAck:vector:count 5601
scalar TwoHosts6.server.tcp.conn-12 sndAck:vector:sum 4021831650
scalar TwoHosts6.server.tcp.conn-12 sndAck:vector:sumweights 5601
scalar TwoHosts6.server.tcp.conn-12 sndAck:vector:mean 718055.9989287627
scalar TwoHosts6.server.tcp.conn-12 sndAck:vector:stddev 332793.6316059897
scalar TwoHosts6.server.tcp.conn-12 sndAck:vector:min 50000
scalar TwoHosts6.server.tcp.conn-12 sndAck:vector:max 1050001
scalar TwoHosts6.server.tcp.conn-12 sndAck:vector:starttime 0.20014830000000006
scalar TwoHosts6.server.tcp.conn-12 sndAck:vector:endtime 25.000145100000005
scalar TwoHosts6.server.tcp.conn-12 rcvSeq:vector:count 5601
scalar TwoHosts6.server.tcp.conn-12 rcvSeq:vector:sum 4034696577
scalar TwoHosts6.server.tcp.conn-12 rcvSeq:vector:sumweights 5601
scalar TwoHosts6.server.tcp.conn-12 rcvSeq:vector:mean 720352.8971612212
scalar TwoHosts6.server.tcp.conn-12 rcvSeq:vector:stddev 331659.4350749416
scalar TwoHosts6.server.tcp.conn-12 rcvSeq:vector:min 50000
scalar TwoHosts6.server.tcp.conn-12 rcvSeq:vector:max 1050001
scalar TwoHosts6.server.tcp.conn-12 rcvSeq:vector:starttime 0.20034530000000003
scalar TwoHosts6.server.tcp.conn-12 rcvSeq:vector:endtime 25.000433300000005
scalar TwoHosts6.server.tcp.conn-12 rcvAck:vector:count 5601
scalar TwoHosts6.server.tcp.conn-12 rcvAck:vector:sum 4930264927
scalar TwoHosts6.server.tcp.conn-12 rcvAck:vector:sumweights 5601
scalar TwoHosts6.server.tcp.conn-12 rcvAck:vector:mean 880247.2642385288
scalar TwoHosts6.server.tcp.conn-12 rcvAck:vector:stddev 555612.1897692017
scalar TwoHosts6.server.tcp.conn-12 rcvAck:vector:min 50038
scalar TwoHosts6.server.tcp.conn-12 rcvAck:vector:max 2050039
scalar TwoHosts6.server.tcp.conn-12 rcvAck:vector:starttime 0.20034530000000003
scalar TwoHosts6.server.tcp.conn-12 rcvAck:vector:endtime 25.000433300000005
scalar TwoHosts6.server.tcp.conn-12 unacked:vector:count 7454
scalar TwoHosts6.server.tcp.conn-12 unacked:vector:sum 53751337
scalar TwoHosts6.server.tcp.conn-12 unacked:vector:sumweights 7454
scalar TwoHosts6.server.tcp.conn-12 unacked:vector:mean 7211.072846793668
scalar TwoHosts6.server.tcp.conn-12 unacked:vector:stddev 451.8356437979763
scalar TwoHosts6.server.tcp.conn-12 unacked:vector:min 0
scalar TwoHosts6.server.tcp.conn-12 unacked:vector:max 7504
scalar TwoHosts6.server.tcp.conn-12 unacked:vector:starttime 0.20034530000000003
scalar TwoHosts6.server.tcp.conn-12 unacked:vector:endtime 25.000433300000005
scalar TwoHosts6.server.tcp.conn-12 dupAcks:vector:count 5600
scalar TwoHosts6.server.tcp.conn-12 dupAcks:vector:sum 0
scalar TwoHosts6.server.tcp.conn-12 dupAcks:vector:sumweights 5600
scalar TwoHosts6.server.tcp.conn-12 dupAcks:vector:mean 0
scalar TwoHosts6.server.tcp.conn-12 dupAcks:vector:stddev 0
scalar TwoHosts6.server.tcp.conn-12 dupAcks:vector:min 0
scalar TwoHosts6.server.tcp.conn-12 dupAcks:vector:max 0
scalar TwoHosts6.server.tcp.conn-12 dupAcks:vector:starttime 0.4009963000000001
scalar TwoHosts6.server.tcp.conn-12 dupAcks:vector:endtime 25.000433300000005
scalar TwoHosts6.server.tcp.conn-12 pipe:vector:count 0
scalar TwoHosts6.server.tcp.conn-12 pipe:vector:sum 0
scalar TwoHosts6.server.tcp.conn-12 pipe:vector:sumweights 0
scalar TwoHosts6.server.tcp.conn-12 pipe:vector:mean nan
scalar TwoHosts6.server.tcp.conn-12 pipe:vector:stddev nan
scalar TwoHosts6.server.tcp.conn-12 pipe:vector:min inf
scalar TwoHosts6.server.tcp.conn-12 pipe:vector:max -inf
scalar TwoHosts6.server.tcp.conn-12 pipe:vector:starttime nan
scalar TwoHosts6.server.tcp.conn-12 pipe:vector:endtime nan
scalar TwoHosts6.server.tcp.conn-12 sndSacks:vector:count 0
scalar TwoHosts6.server.tcp.conn-12 sndSacks:vector:sum 0
scalar TwoHosts6.server.tcp.conn-12 sndSacks:vector:sumweights 0
scalar TwoHosts6.server.tcp.conn-12 sndSacks:vector:mean nan
scalar TwoHosts6.server.tcp.conn-12 sndSacks:vector:stddev nan
scalar TwoHosts6.server.tcp.conn-12 sndSacks:vector:min inf
scalar TwoHosts6.server.tcp.conn-12 sndSacks:vector:max -inf
scalar TwoHosts6.server.tcp.conn-12 sndSacks:vector:starttime nan
scalar TwoHosts6.server.tcp.conn-12 sndSacks:vector:endtime nan
scalar TwoHosts6.server.tcp.conn-12 rcvSacks:vector:count 0
scalar TwoHosts6.server.tcp.conn-12 rcvSacks:vector:sum 0
scalar TwoHosts6.server.tcp.conn-12 rcvSacks:vector:sumweights 0
scalar TwoHosts6.server.tcp.conn-12 rcvSacks:vector:mean nan
scalar TwoHosts6.server.tcp.conn-12 rcvSacks:vector:stddev nan
scalar TwoHosts6.server.tcp.conn-12 rcvSacks:vector:min inf
scalar TwoHosts6.server.tcp.conn-12 rcvSacks:vector:max -inf
scalar TwoHosts6.server.tcp.conn-12 rcvSacks:vector:starttime nan
scalar TwoHosts6.server.tcp.conn-12 rcvSacks:vector:endtime nan
scalar TwoHosts6.server.tcp.conn-12 rcvOooSeg:vector:count 0
scalar TwoHosts6.server.tcp.conn-12 rcvOooSeg:vector:sum 0
scalar TwoHosts6.server.tcp.conn-12 rcvOooSeg:vector:sumweights 0
scalar TwoHosts6.server.tcp.conn-12 rcvOooSeg:vector:mean nan
scalar TwoHosts6.server.tcp.conn-12 rcvOooSeg:vector:stddev nan
scalar TwoHosts6.server.tcp.conn-12 rcvOooSeg:vector:min inf
scalar TwoHosts6.server.tcp.conn-12 rcvOooSeg:vector:max -inf
scalar TwoHosts6.server.tcp.conn-12 rcvOooSeg:vector:starttime nan
scalar TwoHosts6.server.tcp.conn-12 rcvOooSeg:vector:endtime nan
scalar TwoHosts6.server.tcp.conn-12 rcvNASeg:vector:count 0
scalar TwoHosts6.server.tcp.conn-12 rcvNASeg:vector:sum 0
scalar TwoHosts6.server.tcp.conn-12 rcvNASeg:vector:sumweights 0
scalar TwoHosts6.server.tcp.conn-12 rcvNASeg:vector:mean nan
scalar TwoHosts6.server.tcp.conn-12 rcvNASeg:vector:stddev nan
scalar TwoHosts6.server.tcp.conn-12 rcvNASeg:vector:min inf
scalar TwoHosts6.server.tcp.conn-12 rcvNASeg:vector:max -inf
scalar TwoHosts6.server.tcp.conn-12 rcvNASeg:vector:starttime nan
scalar TwoHosts6.server.tcp.conn-12 rcvNASeg:vector:endtime nan
scalar TwoHosts6.server.tcp.conn-12 sackedBytes:vector:count 0
scalar TwoHosts6.server.tcp.conn-12 sackedBytes:vector:sum 0
scalar TwoHosts6.server.tcp.conn-12 sackedBytes:vector:sumweights 0
scalar TwoHosts6.server.tcp.conn-12 sackedBytes:vector:mean nan
scalar TwoHosts6.server.tcp.conn-12 sackedBytes:vector:stddev nan
scalar TwoHosts6.server.tcp.conn-12 sackedBytes:vector:min inf
scalar TwoHosts6.server.tcp.conn-12 sackedBytes:vector:max -inf
scalar TwoHosts6.server.tcp.conn-12 sackedBytes:vector:starttime nan
scalar TwoHosts6.server.tcp.conn-12 sackedBytes:vector:endtime nan
scalar TwoHosts6.server.tcp.conn-12 tcpRcvQueueBytes:vector:count 7467
scalar TwoHosts6.server.tcp.conn-12 tcpRcvQueueBytes:vector:sum 0
scalar TwoHosts6.server.tcp.conn-12 tcpRcvQueueBytes:vector:sumweights 7467
scalar TwoHosts6.server.tcp.conn-12 tcpRcvQueueBytes:vector:mean 0
scalar TwoHosts6.server.tcp.conn-12 tcpRcvQueueBytes:vector:stddev 0
scalar TwoHosts6.server.tcp.conn-12 tcpRcvQueueBytes:vector:min 0
scalar TwoHosts6.server.tcp.conn-12 tcpRcvQueueBytes:vector:max 0
scalar TwoHosts6.server.tcp.conn-12 tcpRcvQueueBytes:vector:starttime 0.20014830000000006
scalar TwoHosts6.server.tcp.conn-12 tcpRcvQueueBytes:vector:endtime 25.000145100000005
scalar TwoHosts6.server.tcp.conn-12 tcpRcvQueueDrops:vector:count 0
scalar TwoHosts6.server.tcp.conn-12 tcpRcvQueueDrops:vector:sum 0
scalar TwoHosts6.server.tcp.conn-12 tcpRcvQueueDrops:vector:sumweights 0
scalar TwoHosts6.server.tcp.conn-12 tcpRcvQueueDrops:vector:mean nan
scalar TwoHosts6.server.tcp.conn-12 tcpRcvQueueDrops:vector:stddev nan
scalar TwoHosts6.server.tcp.conn-12 tcpRcvQueueDrops:vector:min inf
scalar TwoHosts6.server.tcp.conn-12 tcpRcvQueueDrops:vector:max -inf
scalar TwoHosts6.server.tcp.conn-12 tcpRcvQueueDrops:vector:starttime nan
scalar TwoHosts6.server.tcp.conn-12 tcpRcvQueueDrops:vector:endtime nan
scalar TwoHosts6.server.tcp.conn-12 tcpRcvPayloadBytes:vector:count 5601
scalar TwoHosts6.server.tcp.conn-12 tcpRcvPayloadBytes:vector:sum 1e+06
scalar TwoHosts6.server.tcp.conn-12 tcpRcvPayloadBytes:vector:sumweights 5601
scalar TwoHosts6.server.tcp.conn-12 tcpRcvPayloadBytes:vector:mean 178.53954650955185
scalar TwoHosts6.server.tcp.conn-12 tcpRcvPayloadBytes:vector:stddev 252.628006269823
scalar TwoHosts6.server.tcp.conn-12 tcpRcvPayloadBytes:vector:min 0
scalar TwoHosts6.server.tcp.conn-12 tcpRcvPayloadBytes:vector:max 536
scalar TwoHosts6.server.tcp.conn-12 tcpRcvPayloadBytes:vector:starttime 0.20034530000000003
scalar TwoHosts6.server.tcp.conn-12 tcpRcvPayloadBytes:vector:endtime 25.000433300000005
scalar TwoHosts6.server.tcp.conn-12 cwnd:vector:count 3733
scalar TwoHosts6.server.tcp.conn-12 cwnd:vector:sum 3737658784
scalar TwoHosts6.server.tcp.conn-12 cwnd:vector:sumweights 3733
scalar TwoHosts6.server.tcp.conn-12 cwnd:vector:mean 1001248
scalar TwoHosts6.server.tcp.conn-12 cwnd:vector:stddev 577683.972464761
scalar TwoHosts6.server.tcp.conn-12 cwnd:vector:min 1072
scalar TwoHosts6.server.tcp.conn-12 cwnd:vector:max 2001424
scalar TwoHosts6.server.tcp.conn-12 cwnd:vector:starttime 0.4031067000000001
scalar TwoHosts6.server.tcp.conn-12 cwnd:vector:endtime 25.000433300000005
scalar TwoHosts6.server.tcp.conn-12 ssthresh:vector:count 3733
scalar TwoHosts6.server.tcp.conn-12 ssthresh:vector:sum 16033112912235
scalar TwoHosts6.server.tcp.conn-12 ssthresh:vector:sumweights 3733
scalar TwoHosts6.server.tcp.conn-12 ssthresh:vector:mean 4294967295
scalar TwoHosts6.server.tcp.conn-12 ssthresh:vector:stddev 0
scalar TwoHosts6.server.tcp.conn-12 ssthresh:vector:min 4294967295
scalar TwoHosts6.server.tcp.conn-12 ssthresh:vector:max 4294967295
scalar TwoHosts6.server.tcp.conn-12 ssthresh:vector:starttime 0.4031067000000001
scalar TwoHosts6.server.tcp.conn-12 ssthresh:vector:endtime 25.000433300000005
scalar TwoHosts6.server.tcp.conn-12 rtt:vector:count 271
scalar TwoHosts6.server.tcp.conn-12 rtt:vector:sum 3.0392036
scalar TwoHosts6.server.tcp.conn-12 rtt:vector:sumweights 271
scalar TwoHosts6.server.tcp.conn-12 rtt:vector:mean 0.011214773431734317
scalar TwoHosts6.server.tcp.conn-12 rtt:vector:stddev 0.004429648523156091
scalar TwoHosts6.server.tcp.conn-12 rtt:vector:min 0.00033779999999999997
scalar TwoHosts6.server.tcp.conn-12 rtt:vector:max 0.0157816
scalar TwoHosts6.server.tcp.conn-12 rtt:vector:starttime 0.4031067000000001
scalar TwoHosts6.server.tcp.conn-12 rtt:vector:endtime 3.4427239000000007
scalar TwoHosts6.server.tcp.conn-12 srtt:vector:count 271
scalar TwoHosts6.server.tcp.conn-12 srtt:vector:sum 2.995604106558
scalar TwoHosts6.server.tcp.conn-12 srtt:vector:sumweights 271
scalar TwoHosts6.server.tcp.conn-12 srtt:vector:mean 0.01105388969209594
scalar TwoHosts6.server.tcp.conn-12 srtt:vector:stddev 0.004239638645879319
scalar TwoHosts6.server.tcp.conn-12 srtt:vector:min 0.0002638
scalar TwoHosts6.server.tcp.conn-12 srtt:vector:max 0.015724799689
scalar TwoHosts6.server.tcp.conn-12 srtt:vector:starttime 0.4031067000000001
scalar TwoHosts6.server.tcp.conn-12 srtt:vector:endtime 3.4427239000000007
scalar TwoHosts6.server.tcp.conn-12 rttvar:vector:count 271
scalar TwoHosts6.server.tcp.conn-12 rttvar:vector:sum 5.445946726928
scalar TwoHosts6.server.tcp.conn-12 rttvar:vector:sumweights 271
scalar TwoHosts6.server.tcp.conn-12 rttvar:vector:mean 0.020095744379808118
scalar TwoHosts6.server.tcp.conn-12 rttvar:vector:stddev 0.08083626756661413
scalar TwoHosts6.server.tcp.conn-12 rttvar:vector:min 5.619e-09
scalar TwoHosts6.server.tcp.conn-12 rttvar:vector:max 0.6565138
scalar TwoHosts6.server.tcp.conn-12 rttvar:vector:starttime 0.4031067000000001
scalar TwoHosts6.server.tcp.conn-12 rttvar:vector:endtime 3.4427239000000007
scalar TwoHosts6.server.tcp.conn-12 rto:vector:count 271
scalar TwoHosts6.server.tcp.conn-12 rto:vector:sum 276.920922325067
scalar TwoHosts6.server.tcp.conn-12 rto:vector:sumweights 271
scalar TwoHosts6.server.tcp.conn-12 rto:vector:mean 1.0218484218637158
scalar TwoHosts6.server.tcp.conn-12 rto:vector:stddev 0.15324253685871397
scalar TwoHosts6.server.tcp.conn-12 rto:vector:min 1
scalar TwoHosts6.server.tcp.conn-12 rto:vector:max 2.626319
scalar TwoHosts6.server.tcp.conn-12 rto:vector:starttime 0.4031067000000001
scalar TwoHosts6.server.tcp.conn-12 rto:vector:endtime 3.4427239000000007
scalar TwoHosts6.server.tcp.conn-12 numRtos:vector:count 0
scalar TwoHosts6.server.tcp.conn-12 numRtos:vector:sum 0
scalar TwoHosts6.server.tcp.conn-12 numRtos:vector:sumweights 0
scalar TwoHosts6.server.tcp.conn-12 numRtos:vector:mean nan
scalar TwoHosts6.server.tcp.conn-12 numRtos:vector:stddev nan
scalar TwoHosts6.server.tcp.conn-12 numRtos:vector:min inf
scalar TwoHosts6.server.tcp.conn-12 numRtos:vector:max -inf
scalar TwoHosts6.server.tcp.conn-12 numRtos:vector:starttime nan
scalar TwoHosts6.server.tcp.conn-12 numRtos:vector:endtime nan
scalar TwoHosts6.server.tcp.conn-12 load:vector:count 0
scalar TwoHosts6.server.tcp.conn-12 load:vector:sum 0
scalar TwoHosts6.server.tcp.conn-12 load:vector:sumweights 0
scalar TwoHosts6.server.tcp.conn-12 load:vector:mean nan
scalar TwoHosts6.server.tcp.conn-12 load:vector:stddev nan
scalar TwoHosts6.server.tcp.conn-12 load:vector:min inf
scalar TwoHosts6.server.tcp.conn-12 load:vector:max -inf
scalar TwoHosts6.server.tcp.conn-12 load:vector:starttime nan
scalar TwoHosts6.server.tcp.conn-12 load:vector:endtime nan
scalar TwoHosts6.server.tcp.conn-12 calcLoad:vector:count 0
scalar TwoHosts6.server.tcp.conn-12 calcLoad:vector:sum 0
scalar TwoHosts6.server.tcp.conn-12 calcLoad:vector:sumweights 0
scalar TwoHosts6.server.tcp.conn-12 calcLoad:vector:mean nan
scalar TwoHosts6.server.tcp.conn-12 calcLoad:vector:stddev nan
scalar TwoHosts6.server.tcp.conn-12 calcLoad:vector:min inf
scalar TwoHosts6.server.tcp.conn-12 calcLoad:vector:max -inf
scalar TwoHosts6.server.tcp.conn-12 calcLoad:vector:starttime nan
scalar TwoHosts6.server.tcp.conn-12 calcLoad:vector:endtime nan
scalar TwoHosts6.server.tcp.conn-12 markingProb:vector:count 0
scalar TwoHosts6.server.tcp.conn-12 markingProb:vector:sum 0
scalar TwoHosts6.server.tcp.conn-12 markingProb:vector:sumweights 0
scalar TwoHosts6.server.tcp.conn-12 markingProb:vector:mean nan
scalar TwoHosts6.server.tcp.conn-12 markingProb:vector:stddev nan
scalar TwoHosts6.server.tcp.conn-12 markingProb:vector:min inf
scalar TwoHosts6.server.tcp.conn-12 markingProb:vector:max -inf
scalar TwoHosts6.server.tcp.conn-12 markingProb:vector:starttime nan
scalar TwoHosts6.server.tcp.conn-12 markingProb:vector:endtime nan
scalar TwoHosts6.server.app[1].thread_11 packetReceived:vector(packetBytes):count 1866
scalar TwoHosts6.server.app[1].thread_11 packetReceived:vector(packetBytes):sum 1e+06
scalar TwoHosts6.server.app[1].thread_11 packetReceived:vector(packetBytes):sumweights 1866
scalar TwoHosts6.server.app[1].thread_11 packetReceived:vector(packetBytes):mean 535.9056806002144
scalar TwoHosts6.server.app[1].thread_11 packetReceived:vector(packetBytes):stddev 4.074336063980765
scalar TwoHosts6.server.app[1].thread_11 packetReceived:vector(packetBytes):min 360
scalar TwoHosts6.server.app[1].thread_11 packetReceived:vector(packetBytes):max 536
scalar TwoHosts6.server.app[1].thread_11 packetReceived:vector(packetBytes):starttime 0.4004825000000001
scalar TwoHosts6.server.app[1].thread_11 packetReceived:vector(packetBytes):endtime 2.4979963000000005
scalar TwoHosts6.server.app[1].thread_11 packetSent:vector(packetBytes):count 1866
scalar TwoHosts6.server.app[1].thread_11 packetSent:vector(packetBytes):sum 1e+06
scalar TwoHosts6.server.app[1].thread_11 packetSent:vector(packetBytes):sumweights 1866
scalar TwoHosts6.server.app[1].thread_11 packetSent:vector(packetBytes):mean 535.9056806002144
scalar TwoHosts6.server.app[1].thread_11 packetSent:vector(packetBytes):stddev 4.074336063980765
scalar TwoHosts6.server.app[1].thread_11 packetSent:vector(packetBytes):min 360
scalar TwoHosts6.server.app[1].thread_11 packetSent:vector(packetBytes):max 536
scalar TwoHosts6.server.app[1].thread_11 packetSent:vector(packetBytes):starttime 0.4004825000000001
scalar TwoHosts6.server.app[1].thread_11 packetSent:vector(packetBytes):endtime 2.4979963000000005
scalar TwoHosts6.server.app[1].thread_11 endToEndDelay:vector:count 1866
scalar TwoHosts6.server.app[1].thread_11 endToEndDelay:vector:sum 1944.1713788
scalar TwoHosts6.server.app[1].thread_11 endToEndDelay:vector:sumweights 1866
scalar TwoHosts6.server.app[1].thread_11 endToEndDelay:vector:mean 1.041892485959271
scalar TwoHosts6.server.app[1].thread_11 endToEndDelay:vector:stddev 0.6051416998131938
scalar TwoHosts6.server.app[1].thread_11 endToEndDelay:vector:min 0.00048249999999999996
scalar TwoHosts6.server.app[1].thread_11 endToEndDelay:vector:max 2.0979963
scalar TwoHosts6.server.app[1].thread_11 endToEndDelay:vector:starttime 0.4004825000000001
scalar TwoHosts6.server.app[1].thread_11 endToEndDelay:vector:endtime 2.4979963000000005
scalar TwoHosts6.server.app[0].thread_12 packetReceived:vector(packetBytes):count 1866
scalar TwoHosts6.server.app[0].thread_12 packetReceived:vector(packetBytes):sum 1e+06
scalar TwoHosts6.server.app[0].thread_12 packetReceived:vector(packetBytes):sumweights 1866
scalar TwoHosts6.server.app[0].thread_12 packetReceived:vector(packetBytes):mean 535.9056806002144
scalar TwoHosts6.server.app[0].thread_12 packetReceived:vector(packetBytes):stddev 4.074336063980765
scalar TwoHosts6.server.app[0].thread_12 packetReceived:vector(packetBytes):min 360
scalar TwoHosts6.server.app[0].thread_12 packetReceived:vector(packetBytes):max 536
scalar TwoHosts6.server.app[0].thread_12 packetReceived:vector(packetBytes):starttime 0.4009963000000001
scalar TwoHosts6.server.app[0].thread_12 packetReceived:vector(packetBytes):endtime 2.4991733000000007
scalar TwoHosts6.server.app[0].thread_12 packetSent:vector(packetBytes):count 1866
scalar TwoHosts6.server.app[0].thread_12 packetSent:vector(packetBytes):sum 2e+06
scalar TwoHosts6.server.app[0].thread_12 packetSent:vector(packetBytes):sumweights 1866
scalar TwoHosts6.server.app[0].thread_12 packetSent:vector(packetBytes):mean 1071.8113612004288
scalar TwoHosts6.server.app[0].thread_12 packetSent:vector(packetBytes):stddev 8.14867212796153
scalar TwoHosts6.server.app[0].thread_12 packetSent:vector(packetBytes):min 720
scalar TwoHosts6.server.app[0].thread_12 packetSent:vector(packetBytes):max 1072
scalar TwoHosts6.server.app[0].thread_12 packetSent:vector(packetBytes):starttime 0.4009963000000001
scalar TwoHosts6.server.app[0].thread_12 packetSent:vector(packetBytes):endtime 2.4991733000000007
scalar TwoHosts6.server.app[0].thread_12 endToEndDelay:vector:count 1866
scalar TwoHosts6.server.app[0].thread_12 endToEndDelay:vector:sum 1958.4105672
scalar TwoHosts6.server.app[0].thread_12 endToEndDelay:vector:sumweights 1866
scalar TwoHosts6.server.app[0].thread_12 endToEndDelay:vector:mean 1.049523347909968
scalar TwoHosts6.server.app[0].thread_12 endToEndDelay:vector:stddev 0.6051941072257655
scalar TwoHosts6.server.app[0].thread_12 endToEndDelay:vector:min 0.0009962999999999999
scalar TwoHosts6.server.app[0].thread_12 endToEndDelay:vector:max 2.0991733
scalar TwoHosts6.server.app[0].thread_12 endToEndDelay:vector:starttime 0.4009963000000001
scalar TwoHosts6.server.app[0].thread_12 endToEndDelay:vector:endtime 2.4991733000000007

