version 3
run Handover-0-20260707-14:01:07-2223977
attr configname Handover
attr datetime 20260707-14:01:07
attr datetimef 20260707-140107
attr experiment Handover
attr inifile omnetpp.ini
attr iterationvars ""
attr iterationvarsd ""
attr iterationvarsf ""
attr measurement ""
attr network Mipv6Network
attr processid 2223977
attr repetition 0
attr replication #0
attr resultdir results
attr runnumber 0
attr seedset 1
config **.param-recording false
config image-path /home/andras/projects/inet/images
config output-scalar-file results/omnetpp.ini-Handover-#0.sca
config output-scalar-precision 17
config output-vector-file results/omnetpp.ini-Handover-#0.vec
config output-vector-precision 17
config record-eventlog false
config sim-time-limit 70s
config description "Plain handover: the foreign network is reached through the bidirectional home-agent tunnel (route optimization disabled)"
config sim-time-limit 70s
config *.MN[*].ipv6.mipv6.useRouteOptimization false
config *.CN[0].numApps 1
config *.CN[0].app[0].destAddr "\"2001:db8:0:2:8aa:ff:fe00:8\""
config *.CN[0].app[0].sendInterval 0.5s
config *.CN[0].app[0].startTime 1s
config network Mipv6Network
config seed-set 1
config num-rngs 3
config **.mobility.rng-0 2
config *.total_mn 1
config *.total_cn 2
config **.neighbourDiscovery.minIntervalBetweenRAs 3s
config **.neighbourDiscovery.maxIntervalBetweenRAs 7s
config *.radioMedium.mediumLimitCache.maxTransmissionPower 2.0mW
config *.radioMedium.mediumLimitCache.minReceptionPower -82dBm
config *.radioMedium.mediumLimitCache.minInterferencePower -82dBm
config **.AP*.wlan*.mgmt.beaconInterval 0.1s
config **.AP_Home.wlan*.mgmt.ssid "\"HOME\""
config **.AP_Home.wlan*.address "\"10:AA:00:00:00:01\""
config **.AP_Home.eth[0].address "\"10:AE:00:00:00:02\""
config **.AP_1.wlan*.mgmt.ssid "\"AP1\""
config **.AP_1.wlan*.address "\"10:AA:00:00:A1:01\""
config **.AP_1.eth[0].address "\"10:AE:00:00:A1:02\""
config *.AP*.bridging.typename MacRelayUnit
config **.AP_Home.wlan*.radio.channelNumber 1
config **.AP_1.wlan*.radio.channelNumber 2
config **.wlan*.agent.channelsToScan "\"1 2\""
config **.wlan*.agent.probeDelay 0.1s
config **.wlan*.agent.minChannelTime 0.15s
config **.wlan*.agent.maxChannelTime 0.3s
config **.wlan*.agent.authenticationTimeout 5s
config **.wlan*.agent.associationTimeout 5s
config **.wlan*.bitrate 2Mbps
config **.wlan*.mac.dcf.channelAccess.cwMin 7
config **.radio.transmitter.power 2.0mW
config **.analogModel.ignorePartialInterference true
config **.MN[0].mobility.typename TurtleMobility
config **.MN[0].mobility.turtleScript "xmldoc(\"movement.xml\")"
config **.MN*.mobility.updateInterval 0.1s
config **.mobility.constraintAreaMinZ 0m
config **.mobility.constraintAreaMaxZ 0m
config **.constraintAreaMaxX 850m
config **.constraintAreaMaxY 850m
config *.MN[*].displayStringTextFormat "\"AP: {.wlan[0].mib.ssid}\\n{.ipv6.mipv6.mobilityStatus}\""
config **.app[*].typename PingApp
config **.app[*].packetSize 56B
config **.app[*].hopLimit 32
config **.forwarding false
config **.eth[*].queue.typename EthernetQosQueue
config **.eth[*].queue.dataQueue.typename DropTailQueue
config **.eth[*].queue.dataQueue.packetCapacity 10

scalar Mipv6Network.radioMedium.propagation "Arrival computation count" 4564
scalar Mipv6Network.radioMedium "transmission count" 2282
scalar Mipv6Network.radioMedium "signal send count" 4564
scalar Mipv6Network.radioMedium "reception computation count" 4564
scalar Mipv6Network.radioMedium "interference computation count" 15926
scalar Mipv6Network.radioMedium "reception decision computation count" 1381
scalar Mipv6Network.radioMedium "listening decision computation count" 9996
scalar Mipv6Network.radioMedium "reception cache hit" 76.35478188788727
scalar Mipv6Network.radioMedium "interference cache hit" 66.66666666666667
scalar Mipv6Network.radioMedium "noise cache hit" 0
scalar Mipv6Network.radioMedium "snir cache hit" 50
scalar Mipv6Network.radioMedium "reception decision cache hit" 50
scalar Mipv6Network.radioMedium "reception result cache hit" 0
scalar Mipv6Network.Home_Agent.ethernet pauseSent:count 0
scalar Mipv6Network.Home_Agent.ethernet pauseSent:sum 0
scalar Mipv6Network.Home_Agent.ethernet decapPk:count 323
scalar Mipv6Network.Home_Agent.ethernet decapPk:sum(packetBytes) 33552
scalar Mipv6Network.Home_Agent.ethernet encapPk:count 377
scalar Mipv6Network.Home_Agent.ethernet encapPk:sum(packetBytes) 40356
scalar Mipv6Network.Home_Agent.lo[0].lo rcvdPkFromHl:count 0
scalar Mipv6Network.Home_Agent.lo[0].lo rcvdPkFromHl:sum(packetBytes) 0
scalar Mipv6Network.Home_Agent.lo[0].lo passedUpPk:count 0
scalar Mipv6Network.Home_Agent.lo[0].lo passedUpPk:sum(packetBytes) 0
scalar Mipv6Network.Home_Agent.lo[0] packetDropInterfaceDown:count 0
scalar Mipv6Network.Home_Agent.lo[0] packetDropInterfaceDown:sum(packetBytes) 0
scalar Mipv6Network.Home_Agent.lo[0] packetDropNoCarrier:count 0
scalar Mipv6Network.Home_Agent.lo[0] packetDropNoCarrier:sum(packetBytes) 0
scalar Mipv6Network.Home_Agent.eth[0].queue.classifier packets:count 267
scalar Mipv6Network.Home_Agent.eth[0].queue.classifier packetLengths:sum 272112
scalar Mipv6Network.Home_Agent.eth[0].queue.pauseQueue queueLength:last 0
scalar Mipv6Network.Home_Agent.eth[0].queue.pauseQueue queueLength:max 0
scalar Mipv6Network.Home_Agent.eth[0].queue.pauseQueue queueLength:timeavg 0
scalar Mipv6Network.Home_Agent.eth[0].queue.pauseQueue queueBitLength:last 0
scalar Mipv6Network.Home_Agent.eth[0].queue.pauseQueue queueBitLength:max 0
scalar Mipv6Network.Home_Agent.eth[0].queue.pauseQueue queueBitLength:timeavg 0
scalar Mipv6Network.Home_Agent.eth[0].queue.pauseQueue outgoingPackets:count 0
scalar Mipv6Network.Home_Agent.eth[0].queue.pauseQueue outgoingPacketLengths:sum 0
scalar Mipv6Network.Home_Agent.eth[0].queue.pauseQueue incomingPackets:count 0
scalar Mipv6Network.Home_Agent.eth[0].queue.pauseQueue incomingPacketLengths:sum 0
scalar Mipv6Network.Home_Agent.eth[0].queue.pauseQueue droppedPacketsQueueOverflow:count 0
scalar Mipv6Network.Home_Agent.eth[0].queue.pauseQueue droppedPacketLengthsQueueOverflow:sum 0
scalar Mipv6Network.Home_Agent.eth[0].queue.dataQueue queueLength:last 0
scalar Mipv6Network.Home_Agent.eth[0].queue.dataQueue queueLength:max 1
scalar Mipv6Network.Home_Agent.eth[0].queue.dataQueue queueLength:timeavg 7.0354285714285716e-06
scalar Mipv6Network.Home_Agent.eth[0].queue.dataQueue queueBitLength:last 0
scalar Mipv6Network.Home_Agent.eth[0].queue.dataQueue queueBitLength:max 1296
scalar Mipv6Network.Home_Agent.eth[0].queue.dataQueue queueBitLength:timeavg 0.005552420571428571
scalar Mipv6Network.Home_Agent.eth[0].queue.dataQueue outgoingPackets:count 267
scalar Mipv6Network.Home_Agent.eth[0].queue.dataQueue outgoingPacketLengths:sum 272112
scalar Mipv6Network.Home_Agent.eth[0].queue.dataQueue incomingPackets:count 267
scalar Mipv6Network.Home_Agent.eth[0].queue.dataQueue incomingPacketLengths:sum 272112
scalar Mipv6Network.Home_Agent.eth[0].queue.dataQueue droppedPacketsQueueOverflow:count 0
scalar Mipv6Network.Home_Agent.eth[0].queue.dataQueue droppedPacketLengthsQueueOverflow:sum 0
scalar Mipv6Network.Home_Agent.eth[0].queue.scheduler packets:count 267
scalar Mipv6Network.Home_Agent.eth[0].queue.scheduler packetLengths:sum 272112
scalar Mipv6Network.Home_Agent.eth[0].queue queueLength:last -267
scalar Mipv6Network.Home_Agent.eth[0].queue queueLength:max 0
scalar Mipv6Network.Home_Agent.eth[0].queue queueLength:timeavg -127.43825828049353
scalar Mipv6Network.Home_Agent.eth[0].queue queueBitLength:last -272112
scalar Mipv6Network.Home_Agent.eth[0].queue queueBitLength:max 0
scalar Mipv6Network.Home_Agent.eth[0].queue queueBitLength:timeavg -129030.70046321717
scalar Mipv6Network.Home_Agent.eth[0].queue outgoingPackets:count 267
scalar Mipv6Network.Home_Agent.eth[0].queue outgoingPacketLengths:sum 272112
scalar Mipv6Network.Home_Agent.eth[0].queue incomingPackets:count 0
scalar Mipv6Network.Home_Agent.eth[0].queue incomingPacketLengths:sum 0
scalar Mipv6Network.Home_Agent.eth[0].queue droppedPacketsQueueOverflow:count 0
scalar Mipv6Network.Home_Agent.eth[0].queue droppedPacketLengthsQueueOverflow:sum 0
scalar Mipv6Network.Home_Agent.eth[0].mac "simulated time" 70
scalar Mipv6Network.Home_Agent.eth[0].mac full-duplex 1
scalar Mipv6Network.Home_Agent.eth[0].mac "frames/sec sent" 3.8142857142857145
scalar Mipv6Network.Home_Agent.eth[0].mac "frames/sec rcvd" 3.4857142857142858
scalar Mipv6Network.Home_Agent.eth[0].mac "bits/sec sent" 3887.3142857142857
scalar Mipv6Network.Home_Agent.eth[0].mac "bits/sec rcvd" 3444.114285714286
scalar Mipv6Network.Home_Agent.eth[0].mac "rx channel idle (%)" 99.9963328
scalar Mipv6Network.Home_Agent.eth[0].mac "rx channel utilization (%)" 0.0036672
scalar Mipv6Network.Home_Agent.eth[0].mac rxPausePkUnits:count 0
scalar Mipv6Network.Home_Agent.eth[0].mac rxPausePkUnits:sum 0
scalar Mipv6Network.Home_Agent.eth[0].mac txPausePkUnits:count 0
scalar Mipv6Network.Home_Agent.eth[0].mac txPausePkUnits:sum 0
scalar Mipv6Network.Home_Agent.eth[0].mac rxPkOk:count 244
scalar Mipv6Network.Home_Agent.eth[0].mac rxPkOk:sum(packetBytes) 30136
scalar Mipv6Network.Home_Agent.eth[0].mac txPk:count 267
scalar Mipv6Network.Home_Agent.eth[0].mac txPk:sum(packetBytes) 34014
scalar Mipv6Network.Home_Agent.eth[0].mac packetReceivedFromUpper:count 267
scalar Mipv6Network.Home_Agent.eth[0].mac packetReceivedFromUpper:sum(packetBytes) 34014
scalar Mipv6Network.Home_Agent.eth[0].mac passedUpPk:count 244
scalar Mipv6Network.Home_Agent.eth[0].mac passedUpPk:sum(packetBytes) 30136
scalar Mipv6Network.Home_Agent.eth[0].mac packetDropIncorrectlyReceived:count 0
scalar Mipv6Network.Home_Agent.eth[0].mac packetDropIncorrectlyReceived:sum(packetBytes) 0
scalar Mipv6Network.Home_Agent.eth[0].mac packetDropInterfaceDown:count 0
scalar Mipv6Network.Home_Agent.eth[0].mac packetDropInterfaceDown:sum(packetBytes) 0
scalar Mipv6Network.Home_Agent.eth[0].mac packetDropNotAddressedToUs:count 0
scalar Mipv6Network.Home_Agent.eth[0].mac packetDropNotAddressedToUs:sum(packetBytes) 0
scalar Mipv6Network.Home_Agent.eth[0] packetDropInterfaceDown:count 0
scalar Mipv6Network.Home_Agent.eth[0] packetDropInterfaceDown:sum(packetBytes) 0
scalar Mipv6Network.Home_Agent.eth[0] packetDropNoCarrier:count 0
scalar Mipv6Network.Home_Agent.eth[0] packetDropNoCarrier:sum(packetBytes) 0
scalar Mipv6Network.Home_Agent.eth[1].queue.classifier packets:count 110
scalar Mipv6Network.Home_Agent.eth[1].queue.classifier packetLengths:sum 105024
scalar Mipv6Network.Home_Agent.eth[1].queue.pauseQueue queueLength:last 0
scalar Mipv6Network.Home_Agent.eth[1].queue.pauseQueue queueLength:max 0
scalar Mipv6Network.Home_Agent.eth[1].queue.pauseQueue queueLength:timeavg 0
scalar Mipv6Network.Home_Agent.eth[1].queue.pauseQueue queueBitLength:last 0
scalar Mipv6Network.Home_Agent.eth[1].queue.pauseQueue queueBitLength:max 0
scalar Mipv6Network.Home_Agent.eth[1].queue.pauseQueue queueBitLength:timeavg 0
scalar Mipv6Network.Home_Agent.eth[1].queue.pauseQueue outgoingPackets:count 0
scalar Mipv6Network.Home_Agent.eth[1].queue.pauseQueue outgoingPacketLengths:sum 0
scalar Mipv6Network.Home_Agent.eth[1].queue.pauseQueue incomingPackets:count 0
scalar Mipv6Network.Home_Agent.eth[1].queue.pauseQueue incomingPacketLengths:sum 0
scalar Mipv6Network.Home_Agent.eth[1].queue.pauseQueue droppedPacketsQueueOverflow:count 0
scalar Mipv6Network.Home_Agent.eth[1].queue.pauseQueue droppedPacketLengthsQueueOverflow:sum 0
scalar Mipv6Network.Home_Agent.eth[1].queue.dataQueue queueLength:last 0
scalar Mipv6Network.Home_Agent.eth[1].queue.dataQueue queueLength:max 3
scalar Mipv6Network.Home_Agent.eth[1].queue.dataQueue queueLength:timeavg 1.0902857142857144e-06
scalar Mipv6Network.Home_Agent.eth[1].queue.dataQueue queueBitLength:last 0
scalar Mipv6Network.Home_Agent.eth[1].queue.dataQueue queueBitLength:max 2928
scalar Mipv6Network.Home_Agent.eth[1].queue.dataQueue queueBitLength:timeavg 0.001064118857142857
scalar Mipv6Network.Home_Agent.eth[1].queue.dataQueue outgoingPackets:count 110
scalar Mipv6Network.Home_Agent.eth[1].queue.dataQueue outgoingPacketLengths:sum 105024
scalar Mipv6Network.Home_Agent.eth[1].queue.dataQueue incomingPackets:count 110
scalar Mipv6Network.Home_Agent.eth[1].queue.dataQueue incomingPacketLengths:sum 105024
scalar Mipv6Network.Home_Agent.eth[1].queue.dataQueue droppedPacketsQueueOverflow:count 0
scalar Mipv6Network.Home_Agent.eth[1].queue.dataQueue droppedPacketLengthsQueueOverflow:sum 0
scalar Mipv6Network.Home_Agent.eth[1].queue.scheduler packets:count 110
scalar Mipv6Network.Home_Agent.eth[1].queue.scheduler packetLengths:sum 105024
scalar Mipv6Network.Home_Agent.eth[1].queue queueLength:last -110
scalar Mipv6Network.Home_Agent.eth[1].queue queueLength:max 0
scalar Mipv6Network.Home_Agent.eth[1].queue queueLength:timeavg -60.721014540089435
scalar Mipv6Network.Home_Agent.eth[1].queue queueBitLength:last -105024
scalar Mipv6Network.Home_Agent.eth[1].queue queueBitLength:max 0
scalar Mipv6Network.Home_Agent.eth[1].queue queueBitLength:timeavg -57659.60122961548
scalar Mipv6Network.Home_Agent.eth[1].queue outgoingPackets:count 110
scalar Mipv6Network.Home_Agent.eth[1].queue outgoingPacketLengths:sum 105024
scalar Mipv6Network.Home_Agent.eth[1].queue incomingPackets:count 0
scalar Mipv6Network.Home_Agent.eth[1].queue incomingPacketLengths:sum 0
scalar Mipv6Network.Home_Agent.eth[1].queue droppedPacketsQueueOverflow:count 0
scalar Mipv6Network.Home_Agent.eth[1].queue droppedPacketLengthsQueueOverflow:sum 0
scalar Mipv6Network.Home_Agent.eth[1].mac "simulated time" 70
scalar Mipv6Network.Home_Agent.eth[1].mac full-duplex 1
scalar Mipv6Network.Home_Agent.eth[1].mac "frames/sec sent" 1.5714285714285714
scalar Mipv6Network.Home_Agent.eth[1].mac "frames/sec rcvd" 1.1285714285714286
scalar Mipv6Network.Home_Agent.eth[1].mac "bits/sec sent" 1500.3428571428572
scalar Mipv6Network.Home_Agent.eth[1].mac "bits/sec rcvd" 1054.857142857143
scalar Mipv6Network.Home_Agent.eth[1].mac "rx channel idle (%)" 99.99887291428571
scalar Mipv6Network.Home_Agent.eth[1].mac "rx channel utilization (%)" 0.0011270857142857142
scalar Mipv6Network.Home_Agent.eth[1].mac rxPausePkUnits:count 0
scalar Mipv6Network.Home_Agent.eth[1].mac rxPausePkUnits:sum 0
scalar Mipv6Network.Home_Agent.eth[1].mac txPausePkUnits:count 0
scalar Mipv6Network.Home_Agent.eth[1].mac txPausePkUnits:sum 0
scalar Mipv6Network.Home_Agent.eth[1].mac rxPkOk:count 79
scalar Mipv6Network.Home_Agent.eth[1].mac rxPkOk:sum(packetBytes) 9230
scalar Mipv6Network.Home_Agent.eth[1].mac txPk:count 110
scalar Mipv6Network.Home_Agent.eth[1].mac txPk:sum(packetBytes) 13128
scalar Mipv6Network.Home_Agent.eth[1].mac packetReceivedFromUpper:count 110
scalar Mipv6Network.Home_Agent.eth[1].mac packetReceivedFromUpper:sum(packetBytes) 13128
scalar Mipv6Network.Home_Agent.eth[1].mac passedUpPk:count 79
scalar Mipv6Network.Home_Agent.eth[1].mac passedUpPk:sum(packetBytes) 9230
scalar Mipv6Network.Home_Agent.eth[1].mac packetDropIncorrectlyReceived:count 0
scalar Mipv6Network.Home_Agent.eth[1].mac packetDropIncorrectlyReceived:sum(packetBytes) 0
scalar Mipv6Network.Home_Agent.eth[1].mac packetDropInterfaceDown:count 0
scalar Mipv6Network.Home_Agent.eth[1].mac packetDropInterfaceDown:sum(packetBytes) 0
scalar Mipv6Network.Home_Agent.eth[1].mac packetDropNotAddressedToUs:count 0
scalar Mipv6Network.Home_Agent.eth[1].mac packetDropNotAddressedToUs:sum(packetBytes) 0
scalar Mipv6Network.Home_Agent.eth[1] packetDropInterfaceDown:count 0
scalar Mipv6Network.Home_Agent.eth[1] packetDropInterfaceDown:sum(packetBytes) 0
scalar Mipv6Network.Home_Agent.eth[1] packetDropNoCarrier:count 0
scalar Mipv6Network.Home_Agent.eth[1] packetDropNoCarrier:sum(packetBytes) 0
scalar Mipv6Network.Home_Agent.ipv6.neighbourDiscovery dadFailed:count 0
scalar Mipv6Network.Home_Agent.ipv6.neighbourDiscovery dadCompleted:count 2
scalar Mipv6Network.Home_Agent.ipv6.neighbourDiscovery startDad:count 2
scalar Mipv6Network.Home_Agent.ip6tun3 packetDropInterfaceDown:count 0
scalar Mipv6Network.Home_Agent.ip6tun3 packetDropInterfaceDown:sum(packetBytes) 0
scalar Mipv6Network.Home_Agent.ip6tun3 packetDropNoCarrier:count 0
scalar Mipv6Network.Home_Agent.ip6tun3 packetDropNoCarrier:sum(packetBytes) 0
scalar Mipv6Network.R_1.ethernet pauseSent:count 0
scalar Mipv6Network.R_1.ethernet pauseSent:sum 0
scalar Mipv6Network.R_1.ethernet decapPk:count 174
scalar Mipv6Network.R_1.ethernet decapPk:sum(packetBytes) 21720
scalar Mipv6Network.R_1.ethernet encapPk:count 183
scalar Mipv6Network.R_1.ethernet encapPk:sum(packetBytes) 22888
scalar Mipv6Network.R_1.lo[0].lo rcvdPkFromHl:count 0
scalar Mipv6Network.R_1.lo[0].lo rcvdPkFromHl:sum(packetBytes) 0
scalar Mipv6Network.R_1.lo[0].lo passedUpPk:count 0
scalar Mipv6Network.R_1.lo[0].lo passedUpPk:sum(packetBytes) 0
scalar Mipv6Network.R_1.lo[0] packetDropInterfaceDown:count 0
scalar Mipv6Network.R_1.lo[0] packetDropInterfaceDown:sum(packetBytes) 0
scalar Mipv6Network.R_1.lo[0] packetDropNoCarrier:count 0
scalar Mipv6Network.R_1.lo[0] packetDropNoCarrier:sum(packetBytes) 0
scalar Mipv6Network.R_1.eth[0].queue.classifier packets:count 65
scalar Mipv6Network.R_1.eth[0].queue.classifier packetLengths:sum 74448
scalar Mipv6Network.R_1.eth[0].queue.pauseQueue queueLength:last 0
scalar Mipv6Network.R_1.eth[0].queue.pauseQueue queueLength:max 0
scalar Mipv6Network.R_1.eth[0].queue.pauseQueue queueLength:timeavg 0
scalar Mipv6Network.R_1.eth[0].queue.pauseQueue queueBitLength:last 0
scalar Mipv6Network.R_1.eth[0].queue.pauseQueue queueBitLength:max 0
scalar Mipv6Network.R_1.eth[0].queue.pauseQueue queueBitLength:timeavg 0
scalar Mipv6Network.R_1.eth[0].queue.pauseQueue outgoingPackets:count 0
scalar Mipv6Network.R_1.eth[0].queue.pauseQueue outgoingPacketLengths:sum 0
scalar Mipv6Network.R_1.eth[0].queue.pauseQueue incomingPackets:count 0
scalar Mipv6Network.R_1.eth[0].queue.pauseQueue incomingPacketLengths:sum 0
scalar Mipv6Network.R_1.eth[0].queue.pauseQueue droppedPacketsQueueOverflow:count 0
scalar Mipv6Network.R_1.eth[0].queue.pauseQueue droppedPacketLengthsQueueOverflow:sum 0
scalar Mipv6Network.R_1.eth[0].queue.dataQueue queueLength:last 0
scalar Mipv6Network.R_1.eth[0].queue.dataQueue queueLength:max 0
scalar Mipv6Network.R_1.eth[0].queue.dataQueue queueLength:timeavg 0
scalar Mipv6Network.R_1.eth[0].queue.dataQueue queueBitLength:last 0
scalar Mipv6Network.R_1.eth[0].queue.dataQueue queueBitLength:max 0
scalar Mipv6Network.R_1.eth[0].queue.dataQueue queueBitLength:timeavg 0
scalar Mipv6Network.R_1.eth[0].queue.dataQueue outgoingPackets:count 65
scalar Mipv6Network.R_1.eth[0].queue.dataQueue outgoingPacketLengths:sum 74448
scalar Mipv6Network.R_1.eth[0].queue.dataQueue incomingPackets:count 65
scalar Mipv6Network.R_1.eth[0].queue.dataQueue incomingPacketLengths:sum 74448
scalar Mipv6Network.R_1.eth[0].queue.dataQueue droppedPacketsQueueOverflow:count 0
scalar Mipv6Network.R_1.eth[0].queue.dataQueue droppedPacketLengthsQueueOverflow:sum 0
scalar Mipv6Network.R_1.eth[0].queue.scheduler packets:count 65
scalar Mipv6Network.R_1.eth[0].queue.scheduler packetLengths:sum 74448
scalar Mipv6Network.R_1.eth[0].queue queueLength:last -65
scalar Mipv6Network.R_1.eth[0].queue queueLength:max 0
scalar Mipv6Network.R_1.eth[0].queue queueLength:timeavg -29.420215189406385
scalar Mipv6Network.R_1.eth[0].queue queueBitLength:last -74448
scalar Mipv6Network.R_1.eth[0].queue queueBitLength:max 0
scalar Mipv6Network.R_1.eth[0].queue queueBitLength:timeavg -33638.25381537487
scalar Mipv6Network.R_1.eth[0].queue outgoingPackets:count 65
scalar Mipv6Network.R_1.eth[0].queue outgoingPacketLengths:sum 74448
scalar Mipv6Network.R_1.eth[0].queue incomingPackets:count 0
scalar Mipv6Network.R_1.eth[0].queue incomingPacketLengths:sum 0
scalar Mipv6Network.R_1.eth[0].queue droppedPacketsQueueOverflow:count 0
scalar Mipv6Network.R_1.eth[0].queue droppedPacketLengthsQueueOverflow:sum 0
scalar Mipv6Network.R_1.eth[0].mac "simulated time" 70
scalar Mipv6Network.R_1.eth[0].mac full-duplex 1
scalar Mipv6Network.R_1.eth[0].mac "frames/sec sent" 0.9285714285714286
scalar Mipv6Network.R_1.eth[0].mac "frames/sec rcvd" 1.7
scalar Mipv6Network.R_1.eth[0].mac "bits/sec sent" 1063.5428571428572
scalar Mipv6Network.R_1.eth[0].mac "bits/sec rcvd" 1938.9714285714285
scalar Mipv6Network.R_1.eth[0].mac "rx channel idle (%)" 99.99795222857144
scalar Mipv6Network.R_1.eth[0].mac "rx channel utilization (%)" 0.0020477714285714287
scalar Mipv6Network.R_1.eth[0].mac rxPausePkUnits:count 0
scalar Mipv6Network.R_1.eth[0].mac rxPausePkUnits:sum 0
scalar Mipv6Network.R_1.eth[0].mac txPausePkUnits:count 0
scalar Mipv6Network.R_1.eth[0].mac txPausePkUnits:sum 0
scalar Mipv6Network.R_1.eth[0].mac rxPkOk:count 119
scalar Mipv6Network.R_1.eth[0].mac rxPkOk:sum(packetBytes) 16966
scalar Mipv6Network.R_1.eth[0].mac txPk:count 65
scalar Mipv6Network.R_1.eth[0].mac txPk:sum(packetBytes) 9306
scalar Mipv6Network.R_1.eth[0].mac packetReceivedFromUpper:count 65
scalar Mipv6Network.R_1.eth[0].mac packetReceivedFromUpper:sum(packetBytes) 9306
scalar Mipv6Network.R_1.eth[0].mac passedUpPk:count 119
scalar Mipv6Network.R_1.eth[0].mac passedUpPk:sum(packetBytes) 16966
scalar Mipv6Network.R_1.eth[0].mac packetDropIncorrectlyReceived:count 0
scalar Mipv6Network.R_1.eth[0].mac packetDropIncorrectlyReceived:sum(packetBytes) 0
scalar Mipv6Network.R_1.eth[0].mac packetDropInterfaceDown:count 0
scalar Mipv6Network.R_1.eth[0].mac packetDropInterfaceDown:sum(packetBytes) 0
scalar Mipv6Network.R_1.eth[0].mac packetDropNotAddressedToUs:count 0
scalar Mipv6Network.R_1.eth[0].mac packetDropNotAddressedToUs:sum(packetBytes) 0
scalar Mipv6Network.R_1.eth[0] packetDropInterfaceDown:count 0
scalar Mipv6Network.R_1.eth[0] packetDropInterfaceDown:sum(packetBytes) 0
scalar Mipv6Network.R_1.eth[0] packetDropNoCarrier:count 0
scalar Mipv6Network.R_1.eth[0] packetDropNoCarrier:sum(packetBytes) 0
scalar Mipv6Network.R_1.eth[1].queue.classifier packets:count 118
scalar Mipv6Network.R_1.eth[1].queue.classifier packetLengths:sum 135008
scalar Mipv6Network.R_1.eth[1].queue.pauseQueue queueLength:last 0
scalar Mipv6Network.R_1.eth[1].queue.pauseQueue queueLength:max 0
scalar Mipv6Network.R_1.eth[1].queue.pauseQueue queueLength:timeavg 0
scalar Mipv6Network.R_1.eth[1].queue.pauseQueue queueBitLength:last 0
scalar Mipv6Network.R_1.eth[1].queue.pauseQueue queueBitLength:max 0
scalar Mipv6Network.R_1.eth[1].queue.pauseQueue queueBitLength:timeavg 0
scalar Mipv6Network.R_1.eth[1].queue.pauseQueue outgoingPackets:count 0
scalar Mipv6Network.R_1.eth[1].queue.pauseQueue outgoingPacketLengths:sum 0
scalar Mipv6Network.R_1.eth[1].queue.pauseQueue incomingPackets:count 0
scalar Mipv6Network.R_1.eth[1].queue.pauseQueue incomingPacketLengths:sum 0
scalar Mipv6Network.R_1.eth[1].queue.pauseQueue droppedPacketsQueueOverflow:count 0
scalar Mipv6Network.R_1.eth[1].queue.pauseQueue droppedPacketLengthsQueueOverflow:sum 0
scalar Mipv6Network.R_1.eth[1].queue.dataQueue queueLength:last 0
scalar Mipv6Network.R_1.eth[1].queue.dataQueue queueLength:max 0
scalar Mipv6Network.R_1.eth[1].queue.dataQueue queueLength:timeavg 0
scalar Mipv6Network.R_1.eth[1].queue.dataQueue queueBitLength:last 0
scalar Mipv6Network.R_1.eth[1].queue.dataQueue queueBitLength:max 0
scalar Mipv6Network.R_1.eth[1].queue.dataQueue queueBitLength:timeavg 0
scalar Mipv6Network.R_1.eth[1].queue.dataQueue outgoingPackets:count 118
scalar Mipv6Network.R_1.eth[1].queue.dataQueue outgoingPacketLengths:sum 135008
scalar Mipv6Network.R_1.eth[1].queue.dataQueue incomingPackets:count 118
scalar Mipv6Network.R_1.eth[1].queue.dataQueue incomingPacketLengths:sum 135008
scalar Mipv6Network.R_1.eth[1].queue.dataQueue droppedPacketsQueueOverflow:count 0
scalar Mipv6Network.R_1.eth[1].queue.dataQueue droppedPacketLengthsQueueOverflow:sum 0
scalar Mipv6Network.R_1.eth[1].queue.scheduler packets:count 118
scalar Mipv6Network.R_1.eth[1].queue.scheduler packetLengths:sum 135008
scalar Mipv6Network.R_1.eth[1].queue queueLength:last -118
scalar Mipv6Network.R_1.eth[1].queue queueLength:max 0
scalar Mipv6Network.R_1.eth[1].queue queueLength:timeavg -52.664746509944884
scalar Mipv6Network.R_1.eth[1].queue queueBitLength:last -135008
scalar Mipv6Network.R_1.eth[1].queue queueBitLength:max 0
scalar Mipv6Network.R_1.eth[1].queue queueBitLength:timeavg -60051.07706949476
scalar Mipv6Network.R_1.eth[1].queue outgoingPackets:count 118
scalar Mipv6Network.R_1.eth[1].queue outgoingPacketLengths:sum 135008
scalar Mipv6Network.R_1.eth[1].queue incomingPackets:count 0
scalar Mipv6Network.R_1.eth[1].queue incomingPacketLengths:sum 0
scalar Mipv6Network.R_1.eth[1].queue droppedPacketsQueueOverflow:count 0
scalar Mipv6Network.R_1.eth[1].queue droppedPacketLengthsQueueOverflow:sum 0
scalar Mipv6Network.R_1.eth[1].mac "simulated time" 70
scalar Mipv6Network.R_1.eth[1].mac full-duplex 1
scalar Mipv6Network.R_1.eth[1].mac "frames/sec sent" 1.6857142857142857
scalar Mipv6Network.R_1.eth[1].mac "frames/sec rcvd" 0.7857142857142857
scalar Mipv6Network.R_1.eth[1].mac "bits/sec sent" 1928.6857142857143
scalar Mipv6Network.R_1.eth[1].mac "bits/sec rcvd" 901.2571428571429
scalar Mipv6Network.R_1.eth[1].mac "rx channel idle (%)" 99.99904845714286
scalar Mipv6Network.R_1.eth[1].mac "rx channel utilization (%)" 0.0009515428571428571
scalar Mipv6Network.R_1.eth[1].mac rxPausePkUnits:count 0
scalar Mipv6Network.R_1.eth[1].mac rxPausePkUnits:sum 0
scalar Mipv6Network.R_1.eth[1].mac txPausePkUnits:count 0
scalar Mipv6Network.R_1.eth[1].mac txPausePkUnits:sum 0
scalar Mipv6Network.R_1.eth[1].mac rxPkOk:count 55
scalar Mipv6Network.R_1.eth[1].mac rxPkOk:sum(packetBytes) 7886
scalar Mipv6Network.R_1.eth[1].mac txPk:count 118
scalar Mipv6Network.R_1.eth[1].mac txPk:sum(packetBytes) 16876
scalar Mipv6Network.R_1.eth[1].mac packetReceivedFromUpper:count 118
scalar Mipv6Network.R_1.eth[1].mac packetReceivedFromUpper:sum(packetBytes) 16876
scalar Mipv6Network.R_1.eth[1].mac passedUpPk:count 55
scalar Mipv6Network.R_1.eth[1].mac passedUpPk:sum(packetBytes) 7886
scalar Mipv6Network.R_1.eth[1].mac packetDropIncorrectlyReceived:count 0
scalar Mipv6Network.R_1.eth[1].mac packetDropIncorrectlyReceived:sum(packetBytes) 0
scalar Mipv6Network.R_1.eth[1].mac packetDropInterfaceDown:count 0
scalar Mipv6Network.R_1.eth[1].mac packetDropInterfaceDown:sum(packetBytes) 0
scalar Mipv6Network.R_1.eth[1].mac packetDropNotAddressedToUs:count 0
scalar Mipv6Network.R_1.eth[1].mac packetDropNotAddressedToUs:sum(packetBytes) 0
scalar Mipv6Network.R_1.eth[1] packetDropInterfaceDown:count 0
scalar Mipv6Network.R_1.eth[1] packetDropInterfaceDown:sum(packetBytes) 0
scalar Mipv6Network.R_1.eth[1] packetDropNoCarrier:count 0
scalar Mipv6Network.R_1.eth[1] packetDropNoCarrier:sum(packetBytes) 0
scalar Mipv6Network.R_1.ipv6.neighbourDiscovery dadFailed:count 0
scalar Mipv6Network.R_1.ipv6.neighbourDiscovery dadCompleted:count 2
scalar Mipv6Network.R_1.ipv6.neighbourDiscovery startDad:count 2
scalar Mipv6Network.R_2.ethernet pauseSent:count 0
scalar Mipv6Network.R_2.ethernet pauseSent:sum 0
scalar Mipv6Network.R_2.ethernet decapPk:count 482
scalar Mipv6Network.R_2.ethernet decapPk:sum(packetBytes) 52464
scalar Mipv6Network.R_2.ethernet encapPk:count 490
scalar Mipv6Network.R_2.ethernet encapPk:sum(packetBytes) 53600
scalar Mipv6Network.R_2.lo[0].lo rcvdPkFromHl:count 0
scalar Mipv6Network.R_2.lo[0].lo rcvdPkFromHl:sum(packetBytes) 0
scalar Mipv6Network.R_2.lo[0].lo passedUpPk:count 0
scalar Mipv6Network.R_2.lo[0].lo passedUpPk:sum(packetBytes) 0
scalar Mipv6Network.R_2.lo[0] packetDropInterfaceDown:count 0
scalar Mipv6Network.R_2.lo[0] packetDropInterfaceDown:sum(packetBytes) 0
scalar Mipv6Network.R_2.lo[0] packetDropNoCarrier:count 0
scalar Mipv6Network.R_2.lo[0] packetDropNoCarrier:sum(packetBytes) 0
scalar Mipv6Network.R_2.eth[0].queue.classifier packets:count 119
scalar Mipv6Network.R_2.eth[0].queue.classifier packetLengths:sum 135728
scalar Mipv6Network.R_2.eth[0].queue.pauseQueue queueLength:last 0
scalar Mipv6Network.R_2.eth[0].queue.pauseQueue queueLength:max 0
scalar Mipv6Network.R_2.eth[0].queue.pauseQueue queueLength:timeavg 0
scalar Mipv6Network.R_2.eth[0].queue.pauseQueue queueBitLength:last 0
scalar Mipv6Network.R_2.eth[0].queue.pauseQueue queueBitLength:max 0
scalar Mipv6Network.R_2.eth[0].queue.pauseQueue queueBitLength:timeavg 0
scalar Mipv6Network.R_2.eth[0].queue.pauseQueue outgoingPackets:count 0
scalar Mipv6Network.R_2.eth[0].queue.pauseQueue outgoingPacketLengths:sum 0
scalar Mipv6Network.R_2.eth[0].queue.pauseQueue incomingPackets:count 0
scalar Mipv6Network.R_2.eth[0].queue.pauseQueue incomingPacketLengths:sum 0
scalar Mipv6Network.R_2.eth[0].queue.pauseQueue droppedPacketsQueueOverflow:count 0
scalar Mipv6Network.R_2.eth[0].queue.pauseQueue droppedPacketLengthsQueueOverflow:sum 0
scalar Mipv6Network.R_2.eth[0].queue.dataQueue queueLength:last 0
scalar Mipv6Network.R_2.eth[0].queue.dataQueue queueLength:max 1
scalar Mipv6Network.R_2.eth[0].queue.dataQueue queueLength:timeavg 1.1657142857142857e-07
scalar Mipv6Network.R_2.eth[0].queue.dataQueue queueBitLength:last 0
scalar Mipv6Network.R_2.eth[0].queue.dataQueue queueBitLength:max 1296
scalar Mipv6Network.R_2.eth[0].queue.dataQueue queueBitLength:timeavg 0.00015107657142857141
scalar Mipv6Network.R_2.eth[0].queue.dataQueue outgoingPackets:count 119
scalar Mipv6Network.R_2.eth[0].queue.dataQueue outgoingPacketLengths:sum 135728
scalar Mipv6Network.R_2.eth[0].queue.dataQueue incomingPackets:count 119
scalar Mipv6Network.R_2.eth[0].queue.dataQueue incomingPacketLengths:sum 135728
scalar Mipv6Network.R_2.eth[0].queue.dataQueue droppedPacketsQueueOverflow:count 0
scalar Mipv6Network.R_2.eth[0].queue.dataQueue droppedPacketLengthsQueueOverflow:sum 0
scalar Mipv6Network.R_2.eth[0].queue.scheduler packets:count 119
scalar Mipv6Network.R_2.eth[0].queue.scheduler packetLengths:sum 135728
scalar Mipv6Network.R_2.eth[0].queue queueLength:last -119
scalar Mipv6Network.R_2.eth[0].queue queueLength:max 0
scalar Mipv6Network.R_2.eth[0].queue queueLength:timeavg -53.190897637046184
scalar Mipv6Network.R_2.eth[0].queue queueBitLength:last -135728
scalar Mipv6Network.R_2.eth[0].queue queueBitLength:max 0
scalar Mipv6Network.R_2.eth[0].queue queueBitLength:timeavg -60539.74284609285
scalar Mipv6Network.R_2.eth[0].queue outgoingPackets:count 119
scalar Mipv6Network.R_2.eth[0].queue outgoingPacketLengths:sum 135728
scalar Mipv6Network.R_2.eth[0].queue incomingPackets:count 0
scalar Mipv6Network.R_2.eth[0].queue incomingPacketLengths:sum 0
scalar Mipv6Network.R_2.eth[0].queue droppedPacketsQueueOverflow:count 0
scalar Mipv6Network.R_2.eth[0].queue droppedPacketLengthsQueueOverflow:sum 0
scalar Mipv6Network.R_2.eth[0].mac "simulated time" 70
scalar Mipv6Network.R_2.eth[0].mac full-duplex 1
scalar Mipv6Network.R_2.eth[0].mac "frames/sec sent" 1.7
scalar Mipv6Network.R_2.eth[0].mac "frames/sec rcvd" 0.9285714285714286
scalar Mipv6Network.R_2.eth[0].mac "bits/sec sent" 1938.9714285714285
scalar Mipv6Network.R_2.eth[0].mac "bits/sec rcvd" 1063.5428571428572
scalar Mipv6Network.R_2.eth[0].mac "rx channel idle (%)" 99.99887702857143
scalar Mipv6Network.R_2.eth[0].mac "rx channel utilization (%)" 0.0011229714285714287
scalar Mipv6Network.R_2.eth[0].mac rxPausePkUnits:count 0
scalar Mipv6Network.R_2.eth[0].mac rxPausePkUnits:sum 0
scalar Mipv6Network.R_2.eth[0].mac txPausePkUnits:count 0
scalar Mipv6Network.R_2.eth[0].mac txPausePkUnits:sum 0
scalar Mipv6Network.R_2.eth[0].mac rxPkOk:count 65
scalar Mipv6Network.R_2.eth[0].mac rxPkOk:sum(packetBytes) 9306
scalar Mipv6Network.R_2.eth[0].mac txPk:count 119
scalar Mipv6Network.R_2.eth[0].mac txPk:sum(packetBytes) 16966
scalar Mipv6Network.R_2.eth[0].mac packetReceivedFromUpper:count 119
scalar Mipv6Network.R_2.eth[0].mac packetReceivedFromUpper:sum(packetBytes) 16966
scalar Mipv6Network.R_2.eth[0].mac passedUpPk:count 65
scalar Mipv6Network.R_2.eth[0].mac passedUpPk:sum(packetBytes) 9306
scalar Mipv6Network.R_2.eth[0].mac packetDropIncorrectlyReceived:count 0
scalar Mipv6Network.R_2.eth[0].mac packetDropIncorrectlyReceived:sum(packetBytes) 0
scalar Mipv6Network.R_2.eth[0].mac packetDropInterfaceDown:count 0
scalar Mipv6Network.R_2.eth[0].mac packetDropInterfaceDown:sum(packetBytes) 0
scalar Mipv6Network.R_2.eth[0].mac packetDropNotAddressedToUs:count 0
scalar Mipv6Network.R_2.eth[0].mac packetDropNotAddressedToUs:sum(packetBytes) 0
scalar Mipv6Network.R_2.eth[0] packetDropInterfaceDown:count 0
scalar Mipv6Network.R_2.eth[0] packetDropInterfaceDown:sum(packetBytes) 0
scalar Mipv6Network.R_2.eth[0] packetDropNoCarrier:count 0
scalar Mipv6Network.R_2.eth[0] packetDropNoCarrier:sum(packetBytes) 0
scalar Mipv6Network.R_2.eth[1].queue.classifier packets:count 244
scalar Mipv6Network.R_2.eth[1].queue.classifier packetLengths:sum 241088
scalar Mipv6Network.R_2.eth[1].queue.pauseQueue queueLength:last 0
scalar Mipv6Network.R_2.eth[1].queue.pauseQueue queueLength:max 0
scalar Mipv6Network.R_2.eth[1].queue.pauseQueue queueLength:timeavg 0
scalar Mipv6Network.R_2.eth[1].queue.pauseQueue queueBitLength:last 0
scalar Mipv6Network.R_2.eth[1].queue.pauseQueue queueBitLength:max 0
scalar Mipv6Network.R_2.eth[1].queue.pauseQueue queueBitLength:timeavg 0
scalar Mipv6Network.R_2.eth[1].queue.pauseQueue outgoingPackets:count 0
scalar Mipv6Network.R_2.eth[1].queue.pauseQueue outgoingPacketLengths:sum 0
scalar Mipv6Network.R_2.eth[1].queue.pauseQueue incomingPackets:count 0
scalar Mipv6Network.R_2.eth[1].queue.pauseQueue incomingPacketLengths:sum 0
scalar Mipv6Network.R_2.eth[1].queue.pauseQueue droppedPacketsQueueOverflow:count 0
scalar Mipv6Network.R_2.eth[1].queue.pauseQueue droppedPacketLengthsQueueOverflow:sum 0
scalar Mipv6Network.R_2.eth[1].queue.dataQueue queueLength:last 0
scalar Mipv6Network.R_2.eth[1].queue.dataQueue queueLength:max 2
scalar Mipv6Network.R_2.eth[1].queue.dataQueue queueLength:timeavg 7.325714285714285e-07
scalar Mipv6Network.R_2.eth[1].queue.dataQueue queueBitLength:last 0
scalar Mipv6Network.R_2.eth[1].queue.dataQueue queueBitLength:max 1952
scalar Mipv6Network.R_2.eth[1].queue.dataQueue queueBitLength:timeavg 0.0007149897142857142
scalar Mipv6Network.R_2.eth[1].queue.dataQueue outgoingPackets:count 244
scalar Mipv6Network.R_2.eth[1].queue.dataQueue outgoingPacketLengths:sum 241088
scalar Mipv6Network.R_2.eth[1].queue.dataQueue incomingPackets:count 244
scalar Mipv6Network.R_2.eth[1].queue.dataQueue incomingPacketLengths:sum 241088
scalar Mipv6Network.R_2.eth[1].queue.dataQueue droppedPacketsQueueOverflow:count 0
scalar Mipv6Network.R_2.eth[1].queue.dataQueue droppedPacketLengthsQueueOverflow:sum 0
scalar Mipv6Network.R_2.eth[1].queue.scheduler packets:count 244
scalar Mipv6Network.R_2.eth[1].queue.scheduler packetLengths:sum 241088
scalar Mipv6Network.R_2.eth[1].queue queueLength:last -244
scalar Mipv6Network.R_2.eth[1].queue queueLength:max 0
scalar Mipv6Network.R_2.eth[1].queue queueLength:timeavg -117.73645180659875
scalar Mipv6Network.R_2.eth[1].queue queueBitLength:last -241088
scalar Mipv6Network.R_2.eth[1].queue queueBitLength:max 0
scalar Mipv6Network.R_2.eth[1].queue queueBitLength:timeavg -115859.38449579327
scalar Mipv6Network.R_2.eth[1].queue outgoingPackets:count 244
scalar Mipv6Network.R_2.eth[1].queue outgoingPacketLengths:sum 241088
scalar Mipv6Network.R_2.eth[1].queue incomingPackets:count 0
scalar Mipv6Network.R_2.eth[1].queue incomingPacketLengths:sum 0
scalar Mipv6Network.R_2.eth[1].queue droppedPacketsQueueOverflow:count 0
scalar Mipv6Network.R_2.eth[1].queue droppedPacketLengthsQueueOverflow:sum 0
scalar Mipv6Network.R_2.eth[1].mac "simulated time" 70
scalar Mipv6Network.R_2.eth[1].mac full-duplex 1
scalar Mipv6Network.R_2.eth[1].mac "frames/sec sent" 3.4857142857142858
scalar Mipv6Network.R_2.eth[1].mac "frames/sec rcvd" 3.8142857142857145
scalar Mipv6Network.R_2.eth[1].mac "bits/sec sent" 3444.114285714286
scalar Mipv6Network.R_2.eth[1].mac "bits/sec rcvd" 3887.3142857142857
scalar Mipv6Network.R_2.eth[1].mac "rx channel idle (%)" 99.99586857142857
scalar Mipv6Network.R_2.eth[1].mac "rx channel utilization (%)" 0.0041314285714285715
scalar Mipv6Network.R_2.eth[1].mac rxPausePkUnits:count 0
scalar Mipv6Network.R_2.eth[1].mac rxPausePkUnits:sum 0
scalar Mipv6Network.R_2.eth[1].mac txPausePkUnits:count 0
scalar Mipv6Network.R_2.eth[1].mac txPausePkUnits:sum 0
scalar Mipv6Network.R_2.eth[1].mac rxPkOk:count 267
scalar Mipv6Network.R_2.eth[1].mac rxPkOk:sum(packetBytes) 34014
scalar Mipv6Network.R_2.eth[1].mac txPk:count 244
scalar Mipv6Network.R_2.eth[1].mac txPk:sum(packetBytes) 30136
scalar Mipv6Network.R_2.eth[1].mac packetReceivedFromUpper:count 244
scalar Mipv6Network.R_2.eth[1].mac packetReceivedFromUpper:sum(packetBytes) 30136
scalar Mipv6Network.R_2.eth[1].mac passedUpPk:count 267
scalar Mipv6Network.R_2.eth[1].mac passedUpPk:sum(packetBytes) 34014
scalar Mipv6Network.R_2.eth[1].mac packetDropIncorrectlyReceived:count 0
scalar Mipv6Network.R_2.eth[1].mac packetDropIncorrectlyReceived:sum(packetBytes) 0
scalar Mipv6Network.R_2.eth[1].mac packetDropInterfaceDown:count 0
scalar Mipv6Network.R_2.eth[1].mac packetDropInterfaceDown:sum(packetBytes) 0
scalar Mipv6Network.R_2.eth[1].mac packetDropNotAddressedToUs:count 0
scalar Mipv6Network.R_2.eth[1].mac packetDropNotAddressedToUs:sum(packetBytes) 0
scalar Mipv6Network.R_2.eth[1] packetDropInterfaceDown:count 0
scalar Mipv6Network.R_2.eth[1] packetDropInterfaceDown:sum(packetBytes) 0
scalar Mipv6Network.R_2.eth[1] packetDropNoCarrier:count 0
scalar Mipv6Network.R_2.eth[1] packetDropNoCarrier:sum(packetBytes) 0
scalar Mipv6Network.R_2.eth[2].queue.classifier packets:count 127
scalar Mipv6Network.R_2.eth[2].queue.classifier packetLengths:sum 122544
scalar Mipv6Network.R_2.eth[2].queue.pauseQueue queueLength:last 0
scalar Mipv6Network.R_2.eth[2].queue.pauseQueue queueLength:max 0
scalar Mipv6Network.R_2.eth[2].queue.pauseQueue queueLength:timeavg 0
scalar Mipv6Network.R_2.eth[2].queue.pauseQueue queueBitLength:last 0
scalar Mipv6Network.R_2.eth[2].queue.pauseQueue queueBitLength:max 0
scalar Mipv6Network.R_2.eth[2].queue.pauseQueue queueBitLength:timeavg 0
scalar Mipv6Network.R_2.eth[2].queue.pauseQueue outgoingPackets:count 0
scalar Mipv6Network.R_2.eth[2].queue.pauseQueue outgoingPacketLengths:sum 0
scalar Mipv6Network.R_2.eth[2].queue.pauseQueue incomingPackets:count 0
scalar Mipv6Network.R_2.eth[2].queue.pauseQueue incomingPacketLengths:sum 0
scalar Mipv6Network.R_2.eth[2].queue.pauseQueue droppedPacketsQueueOverflow:count 0
scalar Mipv6Network.R_2.eth[2].queue.pauseQueue droppedPacketLengthsQueueOverflow:sum 0
scalar Mipv6Network.R_2.eth[2].queue.dataQueue queueLength:last 0
scalar Mipv6Network.R_2.eth[2].queue.dataQueue queueLength:max 0
scalar Mipv6Network.R_2.eth[2].queue.dataQueue queueLength:timeavg 0
scalar Mipv6Network.R_2.eth[2].queue.dataQueue queueBitLength:last 0
scalar Mipv6Network.R_2.eth[2].queue.dataQueue queueBitLength:max 0
scalar Mipv6Network.R_2.eth[2].queue.dataQueue queueBitLength:timeavg 0
scalar Mipv6Network.R_2.eth[2].queue.dataQueue outgoingPackets:count 127
scalar Mipv6Network.R_2.eth[2].queue.dataQueue outgoingPacketLengths:sum 122544
scalar Mipv6Network.R_2.eth[2].queue.dataQueue incomingPackets:count 127
scalar Mipv6Network.R_2.eth[2].queue.dataQueue incomingPacketLengths:sum 122544
scalar Mipv6Network.R_2.eth[2].queue.dataQueue droppedPacketsQueueOverflow:count 0
scalar Mipv6Network.R_2.eth[2].queue.dataQueue droppedPacketLengthsQueueOverflow:sum 0
scalar Mipv6Network.R_2.eth[2].queue.scheduler packets:count 127
scalar Mipv6Network.R_2.eth[2].queue.scheduler packetLengths:sum 122544
scalar Mipv6Network.R_2.eth[2].queue queueLength:last -127
scalar Mipv6Network.R_2.eth[2].queue queueLength:max 0
scalar Mipv6Network.R_2.eth[2].queue queueLength:timeavg -66.59301772345424
scalar Mipv6Network.R_2.eth[2].queue queueBitLength:last -122544
scalar Mipv6Network.R_2.eth[2].queue queueBitLength:max 0
scalar Mipv6Network.R_2.eth[2].queue queueBitLength:timeavg -63932.64934680187
scalar Mipv6Network.R_2.eth[2].queue outgoingPackets:count 127
scalar Mipv6Network.R_2.eth[2].queue outgoingPacketLengths:sum 122544
scalar Mipv6Network.R_2.eth[2].queue incomingPackets:count 0
scalar Mipv6Network.R_2.eth[2].queue incomingPacketLengths:sum 0
scalar Mipv6Network.R_2.eth[2].queue droppedPacketsQueueOverflow:count 0
scalar Mipv6Network.R_2.eth[2].queue droppedPacketLengthsQueueOverflow:sum 0
scalar Mipv6Network.R_2.eth[2].mac "simulated time" 70
scalar Mipv6Network.R_2.eth[2].mac full-duplex 1
scalar Mipv6Network.R_2.eth[2].mac "frames/sec sent" 1.8142857142857143
scalar Mipv6Network.R_2.eth[2].mac "frames/sec rcvd" 2.142857142857143
scalar Mipv6Network.R_2.eth[2].mac "bits/sec sent" 1750.6285714285714
scalar Mipv6Network.R_2.eth[2].mac "bits/sec rcvd" 2036.5714285714287
scalar Mipv6Network.R_2.eth[2].mac "rx channel idle (%)" 99.99782628571428
scalar Mipv6Network.R_2.eth[2].mac "rx channel utilization (%)" 0.0021737142857142858
scalar Mipv6Network.R_2.eth[2].mac rxPausePkUnits:count 0
scalar Mipv6Network.R_2.eth[2].mac rxPausePkUnits:sum 0
scalar Mipv6Network.R_2.eth[2].mac txPausePkUnits:count 0
scalar Mipv6Network.R_2.eth[2].mac txPausePkUnits:sum 0
scalar Mipv6Network.R_2.eth[2].mac rxPkOk:count 150
scalar Mipv6Network.R_2.eth[2].mac rxPkOk:sum(packetBytes) 17820
scalar Mipv6Network.R_2.eth[2].mac txPk:count 127
scalar Mipv6Network.R_2.eth[2].mac txPk:sum(packetBytes) 15318
scalar Mipv6Network.R_2.eth[2].mac packetReceivedFromUpper:count 127
scalar Mipv6Network.R_2.eth[2].mac packetReceivedFromUpper:sum(packetBytes) 15318
scalar Mipv6Network.R_2.eth[2].mac passedUpPk:count 150
scalar Mipv6Network.R_2.eth[2].mac passedUpPk:sum(packetBytes) 17820
scalar Mipv6Network.R_2.eth[2].mac packetDropIncorrectlyReceived:count 0
scalar Mipv6Network.R_2.eth[2].mac packetDropIncorrectlyReceived:sum(packetBytes) 0
scalar Mipv6Network.R_2.eth[2].mac packetDropInterfaceDown:count 0
scalar Mipv6Network.R_2.eth[2].mac packetDropInterfaceDown:sum(packetBytes) 0
scalar Mipv6Network.R_2.eth[2].mac packetDropNotAddressedToUs:count 0
scalar Mipv6Network.R_2.eth[2].mac packetDropNotAddressedToUs:sum(packetBytes) 0
scalar Mipv6Network.R_2.eth[2] packetDropInterfaceDown:count 0
scalar Mipv6Network.R_2.eth[2] packetDropInterfaceDown:sum(packetBytes) 0
scalar Mipv6Network.R_2.eth[2] packetDropNoCarrier:count 0
scalar Mipv6Network.R_2.eth[2] packetDropNoCarrier:sum(packetBytes) 0
scalar Mipv6Network.R_2.ipv6.neighbourDiscovery dadFailed:count 0
scalar Mipv6Network.R_2.ipv6.neighbourDiscovery dadCompleted:count 3
scalar Mipv6Network.R_2.ipv6.neighbourDiscovery startDad:count 3
scalar Mipv6Network.MN[0].lo[0].lo rcvdPkFromHl:count 0
scalar Mipv6Network.MN[0].lo[0].lo rcvdPkFromHl:sum(packetBytes) 0
scalar Mipv6Network.MN[0].lo[0].lo passedUpPk:count 0
scalar Mipv6Network.MN[0].lo[0].lo passedUpPk:sum(packetBytes) 0
scalar Mipv6Network.MN[0].lo[0] packetDropInterfaceDown:count 0
scalar Mipv6Network.MN[0].lo[0] packetDropInterfaceDown:sum(packetBytes) 0
scalar Mipv6Network.MN[0].lo[0] packetDropNoCarrier:count 0
scalar Mipv6Network.MN[0].lo[0] packetDropNoCarrier:sum(packetBytes) 0
scalar Mipv6Network.MN[0].wlan[0].agent dropConfirm:count 0
scalar Mipv6Network.MN[0].wlan[0].agent acceptConfirm:count 12
scalar Mipv6Network.MN[0].wlan[0].agent sentRequest:count 12
scalar Mipv6Network.MN[0].wlan[0].mac.dcf.channelAccess.pendingQueue queueLength:last 0
scalar Mipv6Network.MN[0].wlan[0].mac.dcf.channelAccess.pendingQueue queueLength:max 3
scalar Mipv6Network.MN[0].wlan[0].mac.dcf.channelAccess.pendingQueue queueLength:timeavg 0.0007794400197714286
scalar Mipv6Network.MN[0].wlan[0].mac.dcf.channelAccess.pendingQueue queueBitLength:last 0
scalar Mipv6Network.MN[0].wlan[0].mac.dcf.channelAccess.pendingQueue queueBitLength:max 3360
scalar Mipv6Network.MN[0].wlan[0].mac.dcf.channelAccess.pendingQueue queueBitLength:timeavg 0.9028553364297143
scalar Mipv6Network.MN[0].wlan[0].mac.dcf.channelAccess.pendingQueue outgoingPackets:count 154
scalar Mipv6Network.MN[0].wlan[0].mac.dcf.channelAccess.pendingQueue outgoingPacketLengths:sum 162112
scalar Mipv6Network.MN[0].wlan[0].mac.dcf.channelAccess.pendingQueue incomingPackets:count 154
scalar Mipv6Network.MN[0].wlan[0].mac.dcf.channelAccess.pendingQueue incomingPacketLengths:sum 162112
scalar Mipv6Network.MN[0].wlan[0].mac.dcf.channelAccess.pendingQueue droppedPacketsQueueOverflow:count 0
scalar Mipv6Network.MN[0].wlan[0].mac.dcf.channelAccess.pendingQueue droppedPacketLengthsQueueOverflow:sum 0
scalar Mipv6Network.MN[0].wlan[0].mac.dcf.channelAccess.inProgressFrames queueLength:max 2
scalar Mipv6Network.MN[0].wlan[0].mac.dcf.channelAccess.inProgressFrames queueLength:timeavg 0.0021218080975428572
scalar Mipv6Network.MN[0].wlan[0].mac.dcf.channelAccess.contention channelAccessGranted:count 154
scalar Mipv6Network.MN[0].wlan[0].mac.dcf.channelAccess.contention stateChanged:count 5574
scalar Mipv6Network.MN[0].wlan[0].mac.dcf.channelAccess channelOwnershipChanged:count 308
scalar Mipv6Network.MN[0].wlan[0].mac.dcf.originatorMacDataService packetAggregated:count 0
scalar Mipv6Network.MN[0].wlan[0].mac.dcf.originatorMacDataService packetFragmented:count 0
scalar Mipv6Network.MN[0].wlan[0].mac.dcf.recipientMacDataService packetDeaggregated:count 0
scalar Mipv6Network.MN[0].wlan[0].mac.dcf.recipientMacDataService packetDefragmented:count 885
scalar Mipv6Network.MN[0].wlan[0].mac.dcf.recipientMacDataService packetDropDuplicateDetected:count 0
scalar Mipv6Network.MN[0].wlan[0].mac.dcf.recipientMacDataService packetDropDuplicateDetected:sum(packetBytes) 0
scalar Mipv6Network.MN[0].wlan[0].mac.dcf.recoveryProcedure retryLimitReached:count 0
scalar Mipv6Network.MN[0].wlan[0].mac.dcf frameSequenceFinished:count 154
scalar Mipv6Network.MN[0].wlan[0].mac.dcf packetReceivedFromPeer:count 1031
scalar Mipv6Network.MN[0].wlan[0].mac.dcf packetReceivedFromPeer:sum(packetBytes) 68988
scalar Mipv6Network.MN[0].wlan[0].mac.dcf packetReceivedFromPeerUnicast:count 323
scalar Mipv6Network.MN[0].wlan[0].mac.dcf packetReceivedFromPeerUnicast:sum(packetBytes) 27558
scalar Mipv6Network.MN[0].wlan[0].mac.dcf packetReceivedFromPeerMulticast:count 708
scalar Mipv6Network.MN[0].wlan[0].mac.dcf packetReceivedFromPeerMulticast:sum(packetBytes) 41430
scalar Mipv6Network.MN[0].wlan[0].mac.dcf packetReceivedFromPeerBroadcast:count 685
scalar Mipv6Network.MN[0].wlan[0].mac.dcf packetReceivedFromPeerBroadcast:sum(packetBytes) 38338
scalar Mipv6Network.MN[0].wlan[0].mac.dcf packetReceivedFromPeerWithRetry:count 0
scalar Mipv6Network.MN[0].wlan[0].mac.dcf packetReceivedFromPeerWithRetry:sum(packetBytes) 0
scalar Mipv6Network.MN[0].wlan[0].mac.dcf packetReceivedFromPeerWithoutRetry:count 1031
scalar Mipv6Network.MN[0].wlan[0].mac.dcf packetReceivedFromPeerWithoutRetry:sum(packetBytes) 68988
scalar Mipv6Network.MN[0].wlan[0].mac.dcf packetSentToPeer:count 331
scalar Mipv6Network.MN[0].wlan[0].mac.dcf packetSentToPeer:sum(packetBytes) 22742
scalar Mipv6Network.MN[0].wlan[0].mac.dcf packetSentToPeerUnicast:count 323
scalar Mipv6Network.MN[0].wlan[0].mac.dcf packetSentToPeerUnicast:sum(packetBytes) 22422
scalar Mipv6Network.MN[0].wlan[0].mac.dcf packetSentToPeerMulticast:count 8
scalar Mipv6Network.MN[0].wlan[0].mac.dcf packetSentToPeerMulticast:sum(packetBytes) 320
scalar Mipv6Network.MN[0].wlan[0].mac.dcf packetSentToPeerBroadcast:count 8
scalar Mipv6Network.MN[0].wlan[0].mac.dcf packetSentToPeerBroadcast:sum(packetBytes) 320
scalar Mipv6Network.MN[0].wlan[0].mac.dcf packetSentToPeerWithRetry:count 0
scalar Mipv6Network.MN[0].wlan[0].mac.dcf packetSentToPeerWithRetry:sum(packetBytes) 0
scalar Mipv6Network.MN[0].wlan[0].mac.dcf packetSentToPeerWithoutRetry:count 331
scalar Mipv6Network.MN[0].wlan[0].mac.dcf packetSentToPeerWithoutRetry:sum(packetBytes) 22742
scalar Mipv6Network.MN[0].wlan[0].mac.dcf packetDrop:count 23
scalar Mipv6Network.MN[0].wlan[0].mac.dcf packetDrop:sum(packetBytes) 2308
scalar Mipv6Network.MN[0].wlan[0].mac.dcf packetDropNotAddressedToUs:count 23
scalar Mipv6Network.MN[0].wlan[0].mac.dcf packetDropNotAddressedToUs:sum(packetBytes) 2308
scalar Mipv6Network.MN[0].wlan[0].mac.dcf packetDropQueueOverflow:count 0
scalar Mipv6Network.MN[0].wlan[0].mac.dcf packetDropQueueOverflow:sum(packetBytes) 0
scalar Mipv6Network.MN[0].wlan[0].mac.dcf packetDropRetryLimitReached:count 0
scalar Mipv6Network.MN[0].wlan[0].mac.dcf packetDropRetryLimitReached:sum(packetBytes) 0
scalar Mipv6Network.MN[0].wlan[0].mac.dcf linkBroken:count 0
scalar Mipv6Network.MN[0].wlan[0].mac packetReceivedFromLower:count 1054
scalar Mipv6Network.MN[0].wlan[0].mac packetReceivedFromLower:sum(packetBytes) 71296
scalar Mipv6Network.MN[0].wlan[0].mac packetSentToLower:count 331
scalar Mipv6Network.MN[0].wlan[0].mac packetSentToLower:sum(packetBytes) 22742
scalar Mipv6Network.MN[0].wlan[0].mac packetReceivedFromUpper:count 135
scalar Mipv6Network.MN[0].wlan[0].mac packetReceivedFromUpper:sum(packetBytes) 15848
scalar Mipv6Network.MN[0].wlan[0].mac packetSentToUpper:count 189
scalar Mipv6Network.MN[0].wlan[0].mac packetSentToUpper:sum(packetBytes) 23116
scalar Mipv6Network.MN[0].wlan[0].mac packetDrop:count 25
scalar Mipv6Network.MN[0].wlan[0].mac packetDrop:sum(packetBytes) 2492
scalar Mipv6Network.MN[0].wlan[0].mac packetDropIncorrectlyReceived:count 0
scalar Mipv6Network.MN[0].wlan[0].mac packetDropIncorrectlyReceived:sum(packetBytes) 0
scalar Mipv6Network.MN[0].wlan[0].mac packetDropNotAddressedToUs:count 23
scalar Mipv6Network.MN[0].wlan[0].mac packetDropNotAddressedToUs:sum(packetBytes) 2308
scalar Mipv6Network.MN[0].wlan[0].mac packetDropQueueOverflow:count 0
scalar Mipv6Network.MN[0].wlan[0].mac packetDropQueueOverflow:sum(packetBytes) 0
scalar Mipv6Network.MN[0].wlan[0].mac packetDropRetryLimitReached:count 0
scalar Mipv6Network.MN[0].wlan[0].mac packetDropRetryLimitReached:sum(packetBytes) 0
scalar Mipv6Network.MN[0].wlan[0].mac packetDropDuplicateDetected:count 0
scalar Mipv6Network.MN[0].wlan[0].mac packetDropDuplicateDetected:sum(packetBytes) 0
scalar Mipv6Network.MN[0].wlan[0].mac packetDropOther:count 2
scalar Mipv6Network.MN[0].wlan[0].mac packetDropOther:sum(packetBytes) 184
scalar Mipv6Network.MN[0].wlan[0].mac linkBroken:count 0
scalar Mipv6Network.MN[0].wlan[0].radio radioMode:count 665
scalar Mipv6Network.MN[0].wlan[0].radio receptionState:count 2771
scalar Mipv6Network.MN[0].wlan[0].radio transmissionState:count 1324
scalar Mipv6Network.MN[0].wlan[0] packetDropInterfaceDown:count 0
scalar Mipv6Network.MN[0].wlan[0] packetDropInterfaceDown:sum(packetBytes) 0
scalar Mipv6Network.MN[0].wlan[0] packetDropNoCarrier:count 0
scalar Mipv6Network.MN[0].wlan[0] packetDropNoCarrier:sum(packetBytes) 0
scalar Mipv6Network.MN[0].ipv6.neighbourDiscovery dadFailed:count 0
scalar Mipv6Network.MN[0].ipv6.neighbourDiscovery dadCompleted:count 4
scalar Mipv6Network.MN[0].ipv6.neighbourDiscovery startDad:count 4
scalar Mipv6Network.MN[0].udp packetReceived:count 0
scalar Mipv6Network.MN[0].udp packetReceived:sum(packetBytes) 0
scalar Mipv6Network.MN[0].udp packetSent:count 0
scalar Mipv6Network.MN[0].udp packetSent:sum(packetBytes) 0
scalar Mipv6Network.MN[0].udp passedUpPk:count 0
scalar Mipv6Network.MN[0].udp droppedPkWrongPort:count 0
scalar Mipv6Network.MN[0].udp droppedPkBadChecksum:count 0
scalar Mipv6Network.MN[0].ip6tun1 packetDropInterfaceDown:count 0
scalar Mipv6Network.MN[0].ip6tun1 packetDropInterfaceDown:sum(packetBytes) 0
scalar Mipv6Network.MN[0].ip6tun1 packetDropNoCarrier:count 0
scalar Mipv6Network.MN[0].ip6tun1 packetDropNoCarrier:sum(packetBytes) 0
scalar Mipv6Network.CN[0].ethernet pauseSent:count 0
scalar Mipv6Network.CN[0].ethernet pauseSent:sum 0
scalar Mipv6Network.CN[0].ethernet decapPk:count 130
scalar Mipv6Network.CN[0].ethernet decapPk:sum(packetBytes) 13216
scalar Mipv6Network.CN[0].ethernet encapPk:count 148
scalar Mipv6Network.CN[0].ethernet encapPk:sum(packetBytes) 15040
scalar Mipv6Network.CN[0].lo[0].lo rcvdPkFromHl:count 0
scalar Mipv6Network.CN[0].lo[0].lo rcvdPkFromHl:sum(packetBytes) 0
scalar Mipv6Network.CN[0].lo[0].lo passedUpPk:count 0
scalar Mipv6Network.CN[0].lo[0].lo passedUpPk:sum(packetBytes) 0
scalar Mipv6Network.CN[0].lo[0] packetDropInterfaceDown:count 0
scalar Mipv6Network.CN[0].lo[0] packetDropInterfaceDown:sum(packetBytes) 0
scalar Mipv6Network.CN[0].lo[0] packetDropNoCarrier:count 0
scalar Mipv6Network.CN[0].lo[0] packetDropNoCarrier:sum(packetBytes) 0
scalar Mipv6Network.CN[0].eth[0].queue.classifier packets:count 148
scalar Mipv6Network.CN[0].eth[0].queue.classifier packetLengths:sum 141632
scalar Mipv6Network.CN[0].eth[0].queue.pauseQueue queueLength:last 0
scalar Mipv6Network.CN[0].eth[0].queue.pauseQueue queueLength:max 0
scalar Mipv6Network.CN[0].eth[0].queue.pauseQueue queueLength:timeavg 0
scalar Mipv6Network.CN[0].eth[0].queue.pauseQueue queueBitLength:last 0
scalar Mipv6Network.CN[0].eth[0].queue.pauseQueue queueBitLength:max 0
scalar Mipv6Network.CN[0].eth[0].queue.pauseQueue queueBitLength:timeavg 0
scalar Mipv6Network.CN[0].eth[0].queue.pauseQueue outgoingPackets:count 0
scalar Mipv6Network.CN[0].eth[0].queue.pauseQueue outgoingPacketLengths:sum 0
scalar Mipv6Network.CN[0].eth[0].queue.pauseQueue incomingPackets:count 0
scalar Mipv6Network.CN[0].eth[0].queue.pauseQueue incomingPacketLengths:sum 0
scalar Mipv6Network.CN[0].eth[0].queue.pauseQueue droppedPacketsQueueOverflow:count 0
scalar Mipv6Network.CN[0].eth[0].queue.pauseQueue droppedPacketLengthsQueueOverflow:sum 0
scalar Mipv6Network.CN[0].eth[0].queue.dataQueue queueLength:last 0
scalar Mipv6Network.CN[0].eth[0].queue.dataQueue queueLength:max 4
scalar Mipv6Network.CN[0].eth[0].queue.dataQueue queueLength:timeavg 2.521142857142857e-06
scalar Mipv6Network.CN[0].eth[0].queue.dataQueue queueBitLength:last 0
scalar Mipv6Network.CN[0].eth[0].queue.dataQueue queueBitLength:max 3456
scalar Mipv6Network.CN[0].eth[0].queue.dataQueue queueBitLength:timeavg 0.0023879314285714286
scalar Mipv6Network.CN[0].eth[0].queue.dataQueue outgoingPackets:count 148
scalar Mipv6Network.CN[0].eth[0].queue.dataQueue outgoingPacketLengths:sum 141632
scalar Mipv6Network.CN[0].eth[0].queue.dataQueue incomingPackets:count 148
scalar Mipv6Network.CN[0].eth[0].queue.dataQueue incomingPacketLengths:sum 141632
scalar Mipv6Network.CN[0].eth[0].queue.dataQueue droppedPacketsQueueOverflow:count 0
scalar Mipv6Network.CN[0].eth[0].queue.dataQueue droppedPacketLengthsQueueOverflow:sum 0
scalar Mipv6Network.CN[0].eth[0].queue.scheduler packets:count 148
scalar Mipv6Network.CN[0].eth[0].queue.scheduler packetLengths:sum 141632
scalar Mipv6Network.CN[0].eth[0].queue queueLength:last -148
scalar Mipv6Network.CN[0].eth[0].queue queueLength:max 0
scalar Mipv6Network.CN[0].eth[0].queue queueLength:timeavg -75.9424476256526
scalar Mipv6Network.CN[0].eth[0].queue queueBitLength:last -141632
scalar Mipv6Network.CN[0].eth[0].queue queueBitLength:max 0
scalar Mipv6Network.CN[0].eth[0].queue queueBitLength:timeavg -71739.06840028762
scalar Mipv6Network.CN[0].eth[0].queue outgoingPackets:count 148
scalar Mipv6Network.CN[0].eth[0].queue outgoingPacketLengths:sum 141632
scalar Mipv6Network.CN[0].eth[0].queue incomingPackets:count 0
scalar Mipv6Network.CN[0].eth[0].queue incomingPacketLengths:sum 0
scalar Mipv6Network.CN[0].eth[0].queue droppedPacketsQueueOverflow:count 0
scalar Mipv6Network.CN[0].eth[0].queue droppedPacketLengthsQueueOverflow:sum 0
scalar Mipv6Network.CN[0].eth[0].mac "simulated time" 70
scalar Mipv6Network.CN[0].eth[0].mac full-duplex 1
scalar Mipv6Network.CN[0].eth[0].mac "frames/sec sent" 2.1
scalar Mipv6Network.CN[0].eth[0].mac "frames/sec rcvd" 1.8571428571428572
scalar Mipv6Network.CN[0].eth[0].mac "bits/sec sent" 2009.3714285714286
scalar Mipv6Network.CN[0].eth[0].mac "bits/sec rcvd" 1777.8285714285714
scalar Mipv6Network.CN[0].eth[0].mac "rx channel idle (%)" 99.99810331428571
scalar Mipv6Network.CN[0].eth[0].mac "rx channel utilization (%)" 0.0018966857142857143
scalar Mipv6Network.CN[0].eth[0].mac rxPausePkUnits:count 0
scalar Mipv6Network.CN[0].eth[0].mac rxPausePkUnits:sum 0
scalar Mipv6Network.CN[0].eth[0].mac txPausePkUnits:count 0
scalar Mipv6Network.CN[0].eth[0].mac txPausePkUnits:sum 0
scalar Mipv6Network.CN[0].eth[0].mac rxPkOk:count 130
scalar Mipv6Network.CN[0].eth[0].mac rxPkOk:sum(packetBytes) 15556
scalar Mipv6Network.CN[0].eth[0].mac txPk:count 147
scalar Mipv6Network.CN[0].eth[0].mac txPk:sum(packetBytes) 17582
scalar Mipv6Network.CN[0].eth[0].mac packetReceivedFromUpper:count 148
scalar Mipv6Network.CN[0].eth[0].mac packetReceivedFromUpper:sum(packetBytes) 17704
scalar Mipv6Network.CN[0].eth[0].mac passedUpPk:count 130
scalar Mipv6Network.CN[0].eth[0].mac passedUpPk:sum(packetBytes) 15556
scalar Mipv6Network.CN[0].eth[0].mac packetDropIncorrectlyReceived:count 0
scalar Mipv6Network.CN[0].eth[0].mac packetDropIncorrectlyReceived:sum(packetBytes) 0
scalar Mipv6Network.CN[0].eth[0].mac packetDropInterfaceDown:count 0
scalar Mipv6Network.CN[0].eth[0].mac packetDropInterfaceDown:sum(packetBytes) 0
scalar Mipv6Network.CN[0].eth[0].mac packetDropNotAddressedToUs:count 0
scalar Mipv6Network.CN[0].eth[0].mac packetDropNotAddressedToUs:sum(packetBytes) 0
scalar Mipv6Network.CN[0].eth[0] packetDropInterfaceDown:count 0
scalar Mipv6Network.CN[0].eth[0] packetDropInterfaceDown:sum(packetBytes) 0
scalar Mipv6Network.CN[0].eth[0] packetDropNoCarrier:count 0
scalar Mipv6Network.CN[0].eth[0] packetDropNoCarrier:sum(packetBytes) 0
scalar Mipv6Network.CN[0].ipv6.neighbourDiscovery dadFailed:count 0
scalar Mipv6Network.CN[0].ipv6.neighbourDiscovery dadCompleted:count 2
scalar Mipv6Network.CN[0].ipv6.neighbourDiscovery startDad:count 2
scalar Mipv6Network.CN[0].udp packetReceived:count 0
scalar Mipv6Network.CN[0].udp packetReceived:sum(packetBytes) 0
scalar Mipv6Network.CN[0].udp packetSent:count 0
scalar Mipv6Network.CN[0].udp packetSent:sum(packetBytes) 0
scalar Mipv6Network.CN[0].udp passedUpPk:count 0
scalar Mipv6Network.CN[0].udp droppedPkWrongPort:count 0
scalar Mipv6Network.CN[0].udp droppedPkBadChecksum:count 0
scalar Mipv6Network.CN[0].app[0] "Pings sent" 139
scalar Mipv6Network.CN[0].app[0] "ping loss rate (%)" 23.02158273381295
scalar Mipv6Network.CN[0].app[0] "ping out-of-order rate (%)" 0
scalar Mipv6Network.CN[0].app[0] pingRxSeq:count 107
scalar Mipv6Network.CN[0].app[0] pingTxSeq:count 139
scalar Mipv6Network.CN[0].app[0] numOutOfOrderArrivals:last nan
scalar Mipv6Network.CN[0].app[0] numLost:last 31
scalar Mipv6Network.CN[1].ethernet pauseSent:count 0
scalar Mipv6Network.CN[1].ethernet pauseSent:sum 0
scalar Mipv6Network.CN[1].ethernet decapPk:count 29
scalar Mipv6Network.CN[1].ethernet decapPk:sum(packetBytes) 2488
scalar Mipv6Network.CN[1].ethernet encapPk:count 3
scalar Mipv6Network.CN[1].ethernet encapPk:sum(packetBytes) 184
scalar Mipv6Network.CN[1].lo[0].lo rcvdPkFromHl:count 0
scalar Mipv6Network.CN[1].lo[0].lo rcvdPkFromHl:sum(packetBytes) 0
scalar Mipv6Network.CN[1].lo[0].lo passedUpPk:count 0
scalar Mipv6Network.CN[1].lo[0].lo passedUpPk:sum(packetBytes) 0
scalar Mipv6Network.CN[1].lo[0] packetDropInterfaceDown:count 0
scalar Mipv6Network.CN[1].lo[0] packetDropInterfaceDown:sum(packetBytes) 0
scalar Mipv6Network.CN[1].lo[0] packetDropNoCarrier:count 0
scalar Mipv6Network.CN[1].lo[0] packetDropNoCarrier:sum(packetBytes) 0
scalar Mipv6Network.CN[1].eth[0].queue.classifier packets:count 3
scalar Mipv6Network.CN[1].eth[0].queue.classifier packetLengths:sum 1904
scalar Mipv6Network.CN[1].eth[0].queue.pauseQueue queueLength:last 0
scalar Mipv6Network.CN[1].eth[0].queue.pauseQueue queueLength:max 0
scalar Mipv6Network.CN[1].eth[0].queue.pauseQueue queueLength:timeavg 0
scalar Mipv6Network.CN[1].eth[0].queue.pauseQueue queueBitLength:last 0
scalar Mipv6Network.CN[1].eth[0].queue.pauseQueue queueBitLength:max 0
scalar Mipv6Network.CN[1].eth[0].queue.pauseQueue queueBitLength:timeavg 0
scalar Mipv6Network.CN[1].eth[0].queue.pauseQueue outgoingPackets:count 0
scalar Mipv6Network.CN[1].eth[0].queue.pauseQueue outgoingPacketLengths:sum 0
scalar Mipv6Network.CN[1].eth[0].queue.pauseQueue incomingPackets:count 0
scalar Mipv6Network.CN[1].eth[0].queue.pauseQueue incomingPacketLengths:sum 0
scalar Mipv6Network.CN[1].eth[0].queue.pauseQueue droppedPacketsQueueOverflow:count 0
scalar Mipv6Network.CN[1].eth[0].queue.pauseQueue droppedPacketLengthsQueueOverflow:sum 0
scalar Mipv6Network.CN[1].eth[0].queue.dataQueue queueLength:last 0
scalar Mipv6Network.CN[1].eth[0].queue.dataQueue queueLength:max 0
scalar Mipv6Network.CN[1].eth[0].queue.dataQueue queueLength:timeavg 0
scalar Mipv6Network.CN[1].eth[0].queue.dataQueue queueBitLength:last 0
scalar Mipv6Network.CN[1].eth[0].queue.dataQueue queueBitLength:max 0
scalar Mipv6Network.CN[1].eth[0].queue.dataQueue queueBitLength:timeavg 0
scalar Mipv6Network.CN[1].eth[0].queue.dataQueue outgoingPackets:count 3
scalar Mipv6Network.CN[1].eth[0].queue.dataQueue outgoingPacketLengths:sum 1904
scalar Mipv6Network.CN[1].eth[0].queue.dataQueue incomingPackets:count 3
scalar Mipv6Network.CN[1].eth[0].queue.dataQueue incomingPacketLengths:sum 1904
scalar Mipv6Network.CN[1].eth[0].queue.dataQueue droppedPacketsQueueOverflow:count 0
scalar Mipv6Network.CN[1].eth[0].queue.dataQueue droppedPacketLengthsQueueOverflow:sum 0
scalar Mipv6Network.CN[1].eth[0].queue.scheduler packets:count 3
scalar Mipv6Network.CN[1].eth[0].queue.scheduler packetLengths:sum 1904
scalar Mipv6Network.CN[1].eth[0].queue queueLength:last -3
scalar Mipv6Network.CN[1].eth[0].queue queueLength:max 0
scalar Mipv6Network.CN[1].eth[0].queue queueLength:timeavg -2.9071034919661
scalar Mipv6Network.CN[1].eth[0].queue queueBitLength:last -1904
scalar Mipv6Network.CN[1].eth[0].queue queueBitLength:max 0
scalar Mipv6Network.CN[1].eth[0].queue queueBitLength:timeavg -1845.4069626341309
scalar Mipv6Network.CN[1].eth[0].queue outgoingPackets:count 3
scalar Mipv6Network.CN[1].eth[0].queue outgoingPacketLengths:sum 1904
scalar Mipv6Network.CN[1].eth[0].queue incomingPackets:count 0
scalar Mipv6Network.CN[1].eth[0].queue incomingPacketLengths:sum 0
scalar Mipv6Network.CN[1].eth[0].queue droppedPacketsQueueOverflow:count 0
scalar Mipv6Network.CN[1].eth[0].queue droppedPacketLengthsQueueOverflow:sum 0
scalar Mipv6Network.CN[1].eth[0].mac "simulated time" 70
scalar Mipv6Network.CN[1].eth[0].mac full-duplex 1
scalar Mipv6Network.CN[1].eth[0].mac "frames/sec sent" 0.04285714285714286
scalar Mipv6Network.CN[1].eth[0].mac "frames/sec rcvd" 0.4142857142857143
scalar Mipv6Network.CN[1].eth[0].mac "bits/sec sent" 27.2
scalar Mipv6Network.CN[1].eth[0].mac "bits/sec rcvd" 344
scalar Mipv6Network.CN[1].eth[0].mac "rx channel idle (%)" 99.99962948571428
scalar Mipv6Network.CN[1].eth[0].mac "rx channel utilization (%)" 0.0003705142857142857
scalar Mipv6Network.CN[1].eth[0].mac rxPausePkUnits:count 0
scalar Mipv6Network.CN[1].eth[0].mac rxPausePkUnits:sum 0
scalar Mipv6Network.CN[1].eth[0].mac txPausePkUnits:count 0
scalar Mipv6Network.CN[1].eth[0].mac txPausePkUnits:sum 0
scalar Mipv6Network.CN[1].eth[0].mac rxPkOk:count 29
scalar Mipv6Network.CN[1].eth[0].mac rxPkOk:sum(packetBytes) 3010
scalar Mipv6Network.CN[1].eth[0].mac txPk:count 3
scalar Mipv6Network.CN[1].eth[0].mac txPk:sum(packetBytes) 238
scalar Mipv6Network.CN[1].eth[0].mac packetReceivedFromUpper:count 3
scalar Mipv6Network.CN[1].eth[0].mac packetReceivedFromUpper:sum(packetBytes) 238
scalar Mipv6Network.CN[1].eth[0].mac passedUpPk:count 29
scalar Mipv6Network.CN[1].eth[0].mac passedUpPk:sum(packetBytes) 3010
scalar Mipv6Network.CN[1].eth[0].mac packetDropIncorrectlyReceived:count 0
scalar Mipv6Network.CN[1].eth[0].mac packetDropIncorrectlyReceived:sum(packetBytes) 0
scalar Mipv6Network.CN[1].eth[0].mac packetDropInterfaceDown:count 0
scalar Mipv6Network.CN[1].eth[0].mac packetDropInterfaceDown:sum(packetBytes) 0
scalar Mipv6Network.CN[1].eth[0].mac packetDropNotAddressedToUs:count 0
scalar Mipv6Network.CN[1].eth[0].mac packetDropNotAddressedToUs:sum(packetBytes) 0
scalar Mipv6Network.CN[1].eth[0] packetDropInterfaceDown:count 0
scalar Mipv6Network.CN[1].eth[0] packetDropInterfaceDown:sum(packetBytes) 0
scalar Mipv6Network.CN[1].eth[0] packetDropNoCarrier:count 0
scalar Mipv6Network.CN[1].eth[0] packetDropNoCarrier:sum(packetBytes) 0
scalar Mipv6Network.CN[1].ipv6.neighbourDiscovery dadFailed:count 0
scalar Mipv6Network.CN[1].ipv6.neighbourDiscovery dadCompleted:count 2
scalar Mipv6Network.CN[1].ipv6.neighbourDiscovery startDad:count 2
scalar Mipv6Network.CN[1].udp packetReceived:count 0
scalar Mipv6Network.CN[1].udp packetReceived:sum(packetBytes) 0
scalar Mipv6Network.CN[1].udp packetSent:count 0
scalar Mipv6Network.CN[1].udp packetSent:sum(packetBytes) 0
scalar Mipv6Network.CN[1].udp passedUpPk:count 0
scalar Mipv6Network.CN[1].udp droppedPkWrongPort:count 0
scalar Mipv6Network.CN[1].udp droppedPkBadChecksum:count 0
scalar Mipv6Network.AP_Home.bridging "processed frames" 189
scalar Mipv6Network.AP_Home.bridging "discarded frames" 0
scalar Mipv6Network.AP_Home.bridging packetDropped:count 0
scalar Mipv6Network.AP_Home.bridging packetDropped:sum(packetBytes) 0
scalar Mipv6Network.AP_Home.ethernet pauseSent:count 0
scalar Mipv6Network.AP_Home.ethernet pauseSent:sum 0
scalar Mipv6Network.AP_Home.ethernet decapPk:count 189
scalar Mipv6Network.AP_Home.ethernet decapPk:sum(packetBytes) 18956
scalar Mipv6Network.AP_Home.ethernet encapPk:count 189
scalar Mipv6Network.AP_Home.ethernet encapPk:sum(packetBytes) 18956
scalar Mipv6Network.AP_Home.wlan[0].mac.dcf.channelAccess.pendingQueue queueLength:last 0
scalar Mipv6Network.AP_Home.wlan[0].mac.dcf.channelAccess.pendingQueue queueLength:max 5
scalar Mipv6Network.AP_Home.wlan[0].mac.dcf.channelAccess.pendingQueue queueLength:timeavg 0.0007735450608
scalar Mipv6Network.AP_Home.wlan[0].mac.dcf.channelAccess.pendingQueue queueBitLength:last 0
scalar Mipv6Network.AP_Home.wlan[0].mac.dcf.channelAccess.pendingQueue queueBitLength:max 5344
scalar Mipv6Network.AP_Home.wlan[0].mac.dcf.channelAccess.pendingQueue queueBitLength:timeavg 0.5410147228141714
scalar Mipv6Network.AP_Home.wlan[0].mac.dcf.channelAccess.pendingQueue outgoingPackets:count 828
scalar Mipv6Network.AP_Home.wlan[0].mac.dcf.channelAccess.pendingQueue outgoingPacketLengths:sum 445088
scalar Mipv6Network.AP_Home.wlan[0].mac.dcf.channelAccess.pendingQueue incomingPackets:count 828
scalar Mipv6Network.AP_Home.wlan[0].mac.dcf.channelAccess.pendingQueue incomingPacketLengths:sum 445088
scalar Mipv6Network.AP_Home.wlan[0].mac.dcf.channelAccess.pendingQueue droppedPacketsQueueOverflow:count 0
scalar Mipv6Network.AP_Home.wlan[0].mac.dcf.channelAccess.pendingQueue droppedPacketLengthsQueueOverflow:sum 0
scalar Mipv6Network.AP_Home.wlan[0].mac.dcf.channelAccess.inProgressFrames queueLength:max 2
scalar Mipv6Network.AP_Home.wlan[0].mac.dcf.channelAccess.inProgressFrames queueLength:timeavg 0.0075976110466
scalar Mipv6Network.AP_Home.wlan[0].mac.dcf.channelAccess.contention channelAccessGranted:count 918
scalar Mipv6Network.AP_Home.wlan[0].mac.dcf.channelAccess.contention stateChanged:count 8034
scalar Mipv6Network.AP_Home.wlan[0].mac.dcf.channelAccess channelOwnershipChanged:count 1836
scalar Mipv6Network.AP_Home.wlan[0].mac.dcf.originatorMacDataService packetAggregated:count 0
scalar Mipv6Network.AP_Home.wlan[0].mac.dcf.originatorMacDataService packetFragmented:count 0
scalar Mipv6Network.AP_Home.wlan[0].mac.dcf.recipientMacDataService packetDeaggregated:count 0
scalar Mipv6Network.AP_Home.wlan[0].mac.dcf.recipientMacDataService packetDefragmented:count 87
scalar Mipv6Network.AP_Home.wlan[0].mac.dcf.recipientMacDataService packetDropDuplicateDetected:count 0
scalar Mipv6Network.AP_Home.wlan[0].mac.dcf.recipientMacDataService packetDropDuplicateDetected:sum(packetBytes) 0
scalar Mipv6Network.AP_Home.wlan[0].mac.dcf.recoveryProcedure retryLimitReached:count 15
scalar Mipv6Network.AP_Home.wlan[0].mac.dcf frameSequenceFinished:count 918
scalar Mipv6Network.AP_Home.wlan[0].mac.dcf packetReceivedFromPeer:count 164
scalar Mipv6Network.AP_Home.wlan[0].mac.dcf packetReceivedFromPeer:sum(packetBytes) 12018
scalar Mipv6Network.AP_Home.wlan[0].mac.dcf packetReceivedFromPeerUnicast:count 162
scalar Mipv6Network.AP_Home.wlan[0].mac.dcf packetReceivedFromPeerUnicast:sum(packetBytes) 11938
scalar Mipv6Network.AP_Home.wlan[0].mac.dcf packetReceivedFromPeerMulticast:count 2
scalar Mipv6Network.AP_Home.wlan[0].mac.dcf packetReceivedFromPeerMulticast:sum(packetBytes) 80
scalar Mipv6Network.AP_Home.wlan[0].mac.dcf packetReceivedFromPeerBroadcast:count 2
scalar Mipv6Network.AP_Home.wlan[0].mac.dcf packetReceivedFromPeerBroadcast:sum(packetBytes) 80
scalar Mipv6Network.AP_Home.wlan[0].mac.dcf packetReceivedFromPeerWithRetry:count 0
scalar Mipv6Network.AP_Home.wlan[0].mac.dcf packetReceivedFromPeerWithRetry:sum(packetBytes) 0
scalar Mipv6Network.AP_Home.wlan[0].mac.dcf packetReceivedFromPeerWithoutRetry:count 164
scalar Mipv6Network.AP_Home.wlan[0].mac.dcf packetReceivedFromPeerWithoutRetry:sum(packetBytes) 12018
scalar Mipv6Network.AP_Home.wlan[0].mac.dcf packetSentToPeer:count 1003
scalar Mipv6Network.AP_Home.wlan[0].mac.dcf packetSentToPeer:sum(packetBytes) 69426
scalar Mipv6Network.AP_Home.wlan[0].mac.dcf packetSentToPeerUnicast:count 267
scalar Mipv6Network.AP_Home.wlan[0].mac.dcf packetSentToPeerUnicast:sum(packetBytes) 25886
scalar Mipv6Network.AP_Home.wlan[0].mac.dcf packetSentToPeerMulticast:count 736
scalar Mipv6Network.AP_Home.wlan[0].mac.dcf packetSentToPeerMulticast:sum(packetBytes) 43540
scalar Mipv6Network.AP_Home.wlan[0].mac.dcf packetSentToPeerBroadcast:count 709
scalar Mipv6Network.AP_Home.wlan[0].mac.dcf packetSentToPeerBroadcast:sum(packetBytes) 40128
scalar Mipv6Network.AP_Home.wlan[0].mac.dcf packetSentToPeerWithRetry:count 90
scalar Mipv6Network.AP_Home.wlan[0].mac.dcf packetSentToPeerWithRetry:sum(packetBytes) 12600
scalar Mipv6Network.AP_Home.wlan[0].mac.dcf packetSentToPeerWithoutRetry:count 913
scalar Mipv6Network.AP_Home.wlan[0].mac.dcf packetSentToPeerWithoutRetry:sum(packetBytes) 56826
scalar Mipv6Network.AP_Home.wlan[0].mac.dcf packetDrop:count 15
scalar Mipv6Network.AP_Home.wlan[0].mac.dcf packetDrop:sum(packetBytes) 2100
scalar Mipv6Network.AP_Home.wlan[0].mac.dcf packetDropNotAddressedToUs:count 0
scalar Mipv6Network.AP_Home.wlan[0].mac.dcf packetDropNotAddressedToUs:sum(packetBytes) 0
scalar Mipv6Network.AP_Home.wlan[0].mac.dcf packetDropQueueOverflow:count 0
scalar Mipv6Network.AP_Home.wlan[0].mac.dcf packetDropQueueOverflow:sum(packetBytes) 0
scalar Mipv6Network.AP_Home.wlan[0].mac.dcf packetDropRetryLimitReached:count 15
scalar Mipv6Network.AP_Home.wlan[0].mac.dcf packetDropRetryLimitReached:sum(packetBytes) 2100
scalar Mipv6Network.AP_Home.wlan[0].mac.dcf linkBroken:count 15
scalar Mipv6Network.AP_Home.wlan[0].mac packetReceivedFromLower:count 164
scalar Mipv6Network.AP_Home.wlan[0].mac packetReceivedFromLower:sum(packetBytes) 12018
scalar Mipv6Network.AP_Home.wlan[0].mac packetSentToLower:count 1003
scalar Mipv6Network.AP_Home.wlan[0].mac packetSentToLower:sum(packetBytes) 69426
scalar Mipv6Network.AP_Home.wlan[0].mac packetReceivedFromUpper:count 110
scalar Mipv6Network.AP_Home.wlan[0].mac packetReceivedFromUpper:sum(packetBytes) 12028
scalar Mipv6Network.AP_Home.wlan[0].mac packetSentToUpper:count 79
scalar Mipv6Network.AP_Home.wlan[0].mac packetSentToUpper:sum(packetBytes) 8440
scalar Mipv6Network.AP_Home.wlan[0].mac packetDrop:count 15
scalar Mipv6Network.AP_Home.wlan[0].mac packetDrop:sum(packetBytes) 2100
scalar Mipv6Network.AP_Home.wlan[0].mac packetDropIncorrectlyReceived:count 0
scalar Mipv6Network.AP_Home.wlan[0].mac packetDropIncorrectlyReceived:sum(packetBytes) 0
scalar Mipv6Network.AP_Home.wlan[0].mac packetDropNotAddressedToUs:count 0
scalar Mipv6Network.AP_Home.wlan[0].mac packetDropNotAddressedToUs:sum(packetBytes) 0
scalar Mipv6Network.AP_Home.wlan[0].mac packetDropQueueOverflow:count 0
scalar Mipv6Network.AP_Home.wlan[0].mac packetDropQueueOverflow:sum(packetBytes) 0
scalar Mipv6Network.AP_Home.wlan[0].mac packetDropRetryLimitReached:count 15
scalar Mipv6Network.AP_Home.wlan[0].mac packetDropRetryLimitReached:sum(packetBytes) 2100
scalar Mipv6Network.AP_Home.wlan[0].mac packetDropDuplicateDetected:count 0
scalar Mipv6Network.AP_Home.wlan[0].mac packetDropDuplicateDetected:sum(packetBytes) 0
scalar Mipv6Network.AP_Home.wlan[0].mac packetDropOther:count 0
scalar Mipv6Network.AP_Home.wlan[0].mac packetDropOther:sum(packetBytes) 0
scalar Mipv6Network.AP_Home.wlan[0].mac linkBroken:count 15
scalar Mipv6Network.AP_Home.wlan[0].radio radioMode:count 2009
scalar Mipv6Network.AP_Home.wlan[0].radio receptionState:count 2335
scalar Mipv6Network.AP_Home.wlan[0].radio transmissionState:count 4012
scalar Mipv6Network.AP_Home.wlan[0] packetDropInterfaceDown:count 0
scalar Mipv6Network.AP_Home.wlan[0] packetDropInterfaceDown:sum(packetBytes) 0
scalar Mipv6Network.AP_Home.wlan[0] packetDropNoCarrier:count 0
scalar Mipv6Network.AP_Home.wlan[0] packetDropNoCarrier:sum(packetBytes) 0
scalar Mipv6Network.AP_Home.eth[0].queue.classifier packets:count 79
scalar Mipv6Network.AP_Home.eth[0].queue.classifier packetLengths:sum 73840
scalar Mipv6Network.AP_Home.eth[0].queue.pauseQueue queueLength:last 0
scalar Mipv6Network.AP_Home.eth[0].queue.pauseQueue queueLength:max 0
scalar Mipv6Network.AP_Home.eth[0].queue.pauseQueue queueLength:timeavg 0
scalar Mipv6Network.AP_Home.eth[0].queue.pauseQueue queueBitLength:last 0
scalar Mipv6Network.AP_Home.eth[0].queue.pauseQueue queueBitLength:max 0
scalar Mipv6Network.AP_Home.eth[0].queue.pauseQueue queueBitLength:timeavg 0
scalar Mipv6Network.AP_Home.eth[0].queue.pauseQueue outgoingPackets:count 0
scalar Mipv6Network.AP_Home.eth[0].queue.pauseQueue outgoingPacketLengths:sum 0
scalar Mipv6Network.AP_Home.eth[0].queue.pauseQueue incomingPackets:count 0
scalar Mipv6Network.AP_Home.eth[0].queue.pauseQueue incomingPacketLengths:sum 0
scalar Mipv6Network.AP_Home.eth[0].queue.pauseQueue droppedPacketsQueueOverflow:count 0
scalar Mipv6Network.AP_Home.eth[0].queue.pauseQueue droppedPacketLengthsQueueOverflow:sum 0
scalar Mipv6Network.AP_Home.eth[0].queue.dataQueue queueLength:last 0
scalar Mipv6Network.AP_Home.eth[0].queue.dataQueue queueLength:max 0
scalar Mipv6Network.AP_Home.eth[0].queue.dataQueue queueLength:timeavg 0
scalar Mipv6Network.AP_Home.eth[0].queue.dataQueue queueBitLength:last 0
scalar Mipv6Network.AP_Home.eth[0].queue.dataQueue queueBitLength:max 0
scalar Mipv6Network.AP_Home.eth[0].queue.dataQueue queueBitLength:timeavg 0
scalar Mipv6Network.AP_Home.eth[0].queue.dataQueue outgoingPackets:count 79
scalar Mipv6Network.AP_Home.eth[0].queue.dataQueue outgoingPacketLengths:sum 73840
scalar Mipv6Network.AP_Home.eth[0].queue.dataQueue incomingPackets:count 79
scalar Mipv6Network.AP_Home.eth[0].queue.dataQueue incomingPacketLengths:sum 73840
scalar Mipv6Network.AP_Home.eth[0].queue.dataQueue droppedPacketsQueueOverflow:count 0
scalar Mipv6Network.AP_Home.eth[0].queue.dataQueue droppedPacketLengthsQueueOverflow:sum 0
scalar Mipv6Network.AP_Home.eth[0].queue.scheduler packets:count 79
scalar Mipv6Network.AP_Home.eth[0].queue.scheduler packetLengths:sum 73840
scalar Mipv6Network.AP_Home.eth[0].queue queueLength:last -79
scalar Mipv6Network.AP_Home.eth[0].queue queueLength:max 0
scalar Mipv6Network.AP_Home.eth[0].queue queueLength:timeavg -46.51982092901603
scalar Mipv6Network.AP_Home.eth[0].queue queueBitLength:last -73840
scalar Mipv6Network.AP_Home.eth[0].queue queueBitLength:max 0
scalar Mipv6Network.AP_Home.eth[0].queue queueBitLength:timeavg -43191.22855414892
scalar Mipv6Network.AP_Home.eth[0].queue outgoingPackets:count 79
scalar Mipv6Network.AP_Home.eth[0].queue outgoingPacketLengths:sum 73840
scalar Mipv6Network.AP_Home.eth[0].queue incomingPackets:count 0
scalar Mipv6Network.AP_Home.eth[0].queue incomingPacketLengths:sum 0
scalar Mipv6Network.AP_Home.eth[0].queue droppedPacketsQueueOverflow:count 0
scalar Mipv6Network.AP_Home.eth[0].queue droppedPacketLengthsQueueOverflow:sum 0
scalar Mipv6Network.AP_Home.eth[0].mac "simulated time" 70
scalar Mipv6Network.AP_Home.eth[0].mac full-duplex 1
scalar Mipv6Network.AP_Home.eth[0].mac "frames/sec sent" 1.1285714285714286
scalar Mipv6Network.AP_Home.eth[0].mac "frames/sec rcvd" 1.5714285714285714
scalar Mipv6Network.AP_Home.eth[0].mac "bits/sec sent" 1054.857142857143
scalar Mipv6Network.AP_Home.eth[0].mac "bits/sec rcvd" 1500.3428571428572
scalar Mipv6Network.AP_Home.eth[0].mac "rx channel idle (%)" 99.99839908571428
scalar Mipv6Network.AP_Home.eth[0].mac "rx channel utilization (%)" 0.001600914285714286
scalar Mipv6Network.AP_Home.eth[0].mac rxPausePkUnits:count 0
scalar Mipv6Network.AP_Home.eth[0].mac rxPausePkUnits:sum 0
scalar Mipv6Network.AP_Home.eth[0].mac txPausePkUnits:count 0
scalar Mipv6Network.AP_Home.eth[0].mac txPausePkUnits:sum 0
scalar Mipv6Network.AP_Home.eth[0].mac rxPkOk:count 110
scalar Mipv6Network.AP_Home.eth[0].mac rxPkOk:sum(packetBytes) 13128
scalar Mipv6Network.AP_Home.eth[0].mac txPk:count 79
scalar Mipv6Network.AP_Home.eth[0].mac txPk:sum(packetBytes) 9230
scalar Mipv6Network.AP_Home.eth[0].mac packetReceivedFromUpper:count 79
scalar Mipv6Network.AP_Home.eth[0].mac packetReceivedFromUpper:sum(packetBytes) 9230
scalar Mipv6Network.AP_Home.eth[0].mac passedUpPk:count 110
scalar Mipv6Network.AP_Home.eth[0].mac passedUpPk:sum(packetBytes) 13128
scalar Mipv6Network.AP_Home.eth[0].mac packetDropIncorrectlyReceived:count 0
scalar Mipv6Network.AP_Home.eth[0].mac packetDropIncorrectlyReceived:sum(packetBytes) 0
scalar Mipv6Network.AP_Home.eth[0].mac packetDropInterfaceDown:count 0
scalar Mipv6Network.AP_Home.eth[0].mac packetDropInterfaceDown:sum(packetBytes) 0
scalar Mipv6Network.AP_Home.eth[0].mac packetDropNotAddressedToUs:count 0
scalar Mipv6Network.AP_Home.eth[0].mac packetDropNotAddressedToUs:sum(packetBytes) 0
scalar Mipv6Network.AP_Home.eth[0] packetDropInterfaceDown:count 0
scalar Mipv6Network.AP_Home.eth[0] packetDropInterfaceDown:sum(packetBytes) 0
scalar Mipv6Network.AP_Home.eth[0] packetDropNoCarrier:count 0
scalar Mipv6Network.AP_Home.eth[0] packetDropNoCarrier:sum(packetBytes) 0
scalar Mipv6Network.AP_1.bridging "processed frames" 173
scalar Mipv6Network.AP_1.bridging "discarded frames" 0
scalar Mipv6Network.AP_1.bridging packetDropped:count 0
scalar Mipv6Network.AP_1.bridging packetDropped:sum(packetBytes) 0
scalar Mipv6Network.AP_1.ethernet pauseSent:count 0
scalar Mipv6Network.AP_1.ethernet pauseSent:sum 0
scalar Mipv6Network.AP_1.ethernet decapPk:count 173
scalar Mipv6Network.AP_1.ethernet decapPk:sum(packetBytes) 21648
scalar Mipv6Network.AP_1.ethernet encapPk:count 173
scalar Mipv6Network.AP_1.ethernet encapPk:sum(packetBytes) 21648
scalar Mipv6Network.AP_1.wlan[0].mac.dcf.channelAccess.pendingQueue queueLength:last 0
scalar Mipv6Network.AP_1.wlan[0].mac.dcf.channelAccess.pendingQueue queueLength:max 3
scalar Mipv6Network.AP_1.wlan[0].mac.dcf.channelAccess.pendingQueue queueLength:timeavg 0.00032240190805714287
scalar Mipv6Network.AP_1.wlan[0].mac.dcf.channelAccess.pendingQueue queueBitLength:last 0
scalar Mipv6Network.AP_1.wlan[0].mac.dcf.channelAccess.pendingQueue queueBitLength:max 2304
scalar Mipv6Network.AP_1.wlan[0].mac.dcf.channelAccess.pendingQueue queueBitLength:timeavg 0.3336879388470857
scalar Mipv6Network.AP_1.wlan[0].mac.dcf.channelAccess.pendingQueue outgoingPackets:count 839
scalar Mipv6Network.AP_1.wlan[0].mac.dcf.channelAccess.pendingQueue outgoingPacketLengths:sum 473200
scalar Mipv6Network.AP_1.wlan[0].mac.dcf.channelAccess.pendingQueue incomingPackets:count 839
scalar Mipv6Network.AP_1.wlan[0].mac.dcf.channelAccess.pendingQueue incomingPacketLengths:sum 473200
scalar Mipv6Network.AP_1.wlan[0].mac.dcf.channelAccess.pendingQueue droppedPacketsQueueOverflow:count 0
scalar Mipv6Network.AP_1.wlan[0].mac.dcf.channelAccess.pendingQueue droppedPacketLengthsQueueOverflow:sum 0
scalar Mipv6Network.AP_1.wlan[0].mac.dcf.channelAccess.inProgressFrames queueLength:max 2
scalar Mipv6Network.AP_1.wlan[0].mac.dcf.channelAccess.inProgressFrames queueLength:timeavg 0.004359782166985714
scalar Mipv6Network.AP_1.wlan[0].mac.dcf.channelAccess.contention channelAccessGranted:count 887
[...]
scalar Mipv6Network.switch.eth[2].mac transmitting:vector:sumweights 302
scalar Mipv6Network.switch.eth[2].mac transmitting:vector:mean 0.4966887417218543
scalar Mipv6Network.switch.eth[2].mac transmitting:vector:stddev 0.5008188933396844
scalar Mipv6Network.switch.eth[2].mac transmitting:vector:min 0
scalar Mipv6Network.switch.eth[2].mac transmitting:vector:max 1
scalar Mipv6Network.switch.eth[2].mac transmitting:vector:starttime 0
scalar Mipv6Network.switch.eth[2].mac transmitting:vector:endtime 69.50002090000001
scalar Mipv6Network.switch.eth[2].mac throughput:vector:count 700
scalar Mipv6Network.switch.eth[2].mac throughput:vector:sum 1521600
scalar Mipv6Network.switch.eth[2].mac throughput:vector:sumweights 700
scalar Mipv6Network.switch.eth[2].mac throughput:vector:mean 2173.714285714286
scalar Mipv6Network.switch.eth[2].mac throughput:vector:stddev 4857.738975933947
scalar Mipv6Network.switch.eth[2].mac throughput:vector:min 0
scalar Mipv6Network.switch.eth[2].mac throughput:vector:max 55360.00000000001
scalar Mipv6Network.switch.eth[2].mac throughput:vector:starttime 0.1
scalar Mipv6Network.switch.eth[2].mac throughput:vector:endtime 70
scalar Mipv6Network.switch.eth[2].mac utilization:vector:count 700
scalar Mipv6Network.switch.eth[2].mac utilization:vector:sum 1.5216000000000003
scalar Mipv6Network.switch.eth[2].mac utilization:vector:sumweights 700
scalar Mipv6Network.switch.eth[2].mac utilization:vector:mean 0.002173714285714286
scalar Mipv6Network.switch.eth[2].mac utilization:vector:stddev 0.004857738975933947
scalar Mipv6Network.switch.eth[2].mac utilization:vector:min 0
scalar Mipv6Network.switch.eth[2].mac utilization:vector:max 0.05536000000000001
scalar Mipv6Network.switch.eth[2].mac utilization:vector:starttime 0.1
scalar Mipv6Network.switch.eth[2].mac utilization:vector:endtime 70
scalar Mipv6Network.switch.eth[2].mac txPk:vector(packetBytes):count 150
scalar Mipv6Network.switch.eth[2].mac txPk:vector(packetBytes):sum 17820
scalar Mipv6Network.switch.eth[2].mac txPk:vector(packetBytes):sumweights 150
scalar Mipv6Network.switch.eth[2].mac txPk:vector(packetBytes):mean 118.8
scalar Mipv6Network.switch.eth[2].mac txPk:vector(packetBytes):stddev 11.083575126460458
scalar Mipv6Network.switch.eth[2].mac txPk:vector(packetBytes):min 66
scalar Mipv6Network.switch.eth[2].mac txPk:vector(packetBytes):max 122
scalar Mipv6Network.switch.eth[2].mac txPk:vector(packetBytes):starttime 0.7545321866460002
scalar Mipv6Network.switch.eth[2].mac txPk:vector(packetBytes):endtime 69.50002090000001
scalar Mipv6Network.switch.eth[2].mac rxPkOk:vector(packetBytes):count 127
scalar Mipv6Network.switch.eth[2].mac rxPkOk:vector(packetBytes):sum 15318
scalar Mipv6Network.switch.eth[2].mac rxPkOk:vector(packetBytes):sumweights 127
scalar Mipv6Network.switch.eth[2].mac rxPkOk:vector(packetBytes):mean 120.61417322834646
scalar Mipv6Network.switch.eth[2].mac rxPkOk:vector(packetBytes):stddev 6.91679259104473
scalar Mipv6Network.switch.eth[2].mac rxPkOk:vector(packetBytes):min 82
scalar Mipv6Network.switch.eth[2].mac rxPkOk:vector(packetBytes):max 122
scalar Mipv6Network.switch.eth[2].mac rxPkOk:vector(packetBytes):starttime 0.20288377103000005
scalar Mipv6Network.switch.eth[2].mac rxPkOk:vector(packetBytes):endtime 69.98612759382502
scalar Mipv6Network.switch.eth[2].mac passedUpPk:vector(packetBytes):count 127
scalar Mipv6Network.switch.eth[2].mac passedUpPk:vector(packetBytes):sum 15318
scalar Mipv6Network.switch.eth[2].mac passedUpPk:vector(packetBytes):sumweights 127
scalar Mipv6Network.switch.eth[2].mac passedUpPk:vector(packetBytes):mean 120.61417322834646
scalar Mipv6Network.switch.eth[2].mac passedUpPk:vector(packetBytes):stddev 6.91679259104473
scalar Mipv6Network.switch.eth[2].mac passedUpPk:vector(packetBytes):min 82
scalar Mipv6Network.switch.eth[2].mac passedUpPk:vector(packetBytes):max 122
scalar Mipv6Network.switch.eth[2].mac passedUpPk:vector(packetBytes):starttime 0.20288377103000005
scalar Mipv6Network.switch.eth[2].mac passedUpPk:vector(packetBytes):endtime 69.98612759382502
scalar Mipv6Network.switch.eth[2].mac txPausePkUnits:vector:count 0
scalar Mipv6Network.switch.eth[2].mac txPausePkUnits:vector:sum 0
scalar Mipv6Network.switch.eth[2].mac txPausePkUnits:vector:sumweights 0
scalar Mipv6Network.switch.eth[2].mac txPausePkUnits:vector:mean nan
scalar Mipv6Network.switch.eth[2].mac txPausePkUnits:vector:stddev nan
scalar Mipv6Network.switch.eth[2].mac txPausePkUnits:vector:min inf
scalar Mipv6Network.switch.eth[2].mac txPausePkUnits:vector:max -inf
scalar Mipv6Network.switch.eth[2].mac txPausePkUnits:vector:starttime nan
scalar Mipv6Network.switch.eth[2].mac txPausePkUnits:vector:endtime nan
scalar Mipv6Network.switch.eth[2].mac rxPausePkUnits:vector:count 0
scalar Mipv6Network.switch.eth[2].mac rxPausePkUnits:vector:sum 0
scalar Mipv6Network.switch.eth[2].mac rxPausePkUnits:vector:sumweights 0
scalar Mipv6Network.switch.eth[2].mac rxPausePkUnits:vector:mean nan
scalar Mipv6Network.switch.eth[2].mac rxPausePkUnits:vector:stddev nan
scalar Mipv6Network.switch.eth[2].mac rxPausePkUnits:vector:min inf
scalar Mipv6Network.switch.eth[2].mac rxPausePkUnits:vector:max -inf
scalar Mipv6Network.switch.eth[2].mac rxPausePkUnits:vector:starttime nan
scalar Mipv6Network.switch.eth[2].mac rxPausePkUnits:vector:endtime nan
scalar Mipv6Network.switch.eth[2].mac packetReceivedFromUpper:vector(packetBytes):count 150
scalar Mipv6Network.switch.eth[2].mac packetReceivedFromUpper:vector(packetBytes):sum 17820
scalar Mipv6Network.switch.eth[2].mac packetReceivedFromUpper:vector(packetBytes):sumweights 150
scalar Mipv6Network.switch.eth[2].mac packetReceivedFromUpper:vector(packetBytes):mean 118.8
scalar Mipv6Network.switch.eth[2].mac packetReceivedFromUpper:vector(packetBytes):stddev 11.083575126460458
scalar Mipv6Network.switch.eth[2].mac packetReceivedFromUpper:vector(packetBytes):min 66
scalar Mipv6Network.switch.eth[2].mac packetReceivedFromUpper:vector(packetBytes):max 122
scalar Mipv6Network.switch.eth[2].mac packetReceivedFromUpper:vector(packetBytes):starttime 0.7545249866460001
scalar Mipv6Network.switch.eth[2].mac packetReceivedFromUpper:vector(packetBytes):endtime 69.50001050000002
scalar Mipv6Network.switch.eth[2].mac packetDropIncorrectlyReceived:vector(packetBytes):count 0
scalar Mipv6Network.switch.eth[2].mac packetDropIncorrectlyReceived:vector(packetBytes):sum 0
scalar Mipv6Network.switch.eth[2].mac packetDropIncorrectlyReceived:vector(packetBytes):sumweights 0
scalar Mipv6Network.switch.eth[2].mac packetDropIncorrectlyReceived:vector(packetBytes):mean nan
scalar Mipv6Network.switch.eth[2].mac packetDropIncorrectlyReceived:vector(packetBytes):stddev nan
scalar Mipv6Network.switch.eth[2].mac packetDropIncorrectlyReceived:vector(packetBytes):min inf
scalar Mipv6Network.switch.eth[2].mac packetDropIncorrectlyReceived:vector(packetBytes):max -inf
scalar Mipv6Network.switch.eth[2].mac packetDropIncorrectlyReceived:vector(packetBytes):starttime nan
scalar Mipv6Network.switch.eth[2].mac packetDropIncorrectlyReceived:vector(packetBytes):endtime nan
scalar Mipv6Network.switch.eth[2].mac packetDropInterfaceDown:vector(packetBytes):count 0
scalar Mipv6Network.switch.eth[2].mac packetDropInterfaceDown:vector(packetBytes):sum 0
scalar Mipv6Network.switch.eth[2].mac packetDropInterfaceDown:vector(packetBytes):sumweights 0
scalar Mipv6Network.switch.eth[2].mac packetDropInterfaceDown:vector(packetBytes):mean nan
scalar Mipv6Network.switch.eth[2].mac packetDropInterfaceDown:vector(packetBytes):stddev nan
scalar Mipv6Network.switch.eth[2].mac packetDropInterfaceDown:vector(packetBytes):min inf
scalar Mipv6Network.switch.eth[2].mac packetDropInterfaceDown:vector(packetBytes):max -inf
scalar Mipv6Network.switch.eth[2].mac packetDropInterfaceDown:vector(packetBytes):starttime nan
scalar Mipv6Network.switch.eth[2].mac packetDropInterfaceDown:vector(packetBytes):endtime nan
scalar Mipv6Network.switch.eth[2].mac packetDropNotAddressedToUs:vector(packetBytes):count 0
scalar Mipv6Network.switch.eth[2].mac packetDropNotAddressedToUs:vector(packetBytes):sum 0
scalar Mipv6Network.switch.eth[2].mac packetDropNotAddressedToUs:vector(packetBytes):sumweights 0
scalar Mipv6Network.switch.eth[2].mac packetDropNotAddressedToUs:vector(packetBytes):mean nan
scalar Mipv6Network.switch.eth[2].mac packetDropNotAddressedToUs:vector(packetBytes):stddev nan
scalar Mipv6Network.switch.eth[2].mac packetDropNotAddressedToUs:vector(packetBytes):min inf
scalar Mipv6Network.switch.eth[2].mac packetDropNotAddressedToUs:vector(packetBytes):max -inf
scalar Mipv6Network.switch.eth[2].mac packetDropNotAddressedToUs:vector(packetBytes):starttime nan
scalar Mipv6Network.switch.eth[2].mac packetDropNotAddressedToUs:vector(packetBytes):endtime nan
scalar Mipv6Network.switch.eth[2] packetDropInterfaceDown:vector(packetBytes):count 0
scalar Mipv6Network.switch.eth[2] packetDropInterfaceDown:vector(packetBytes):sum 0
scalar Mipv6Network.switch.eth[2] packetDropInterfaceDown:vector(packetBytes):sumweights 0
scalar Mipv6Network.switch.eth[2] packetDropInterfaceDown:vector(packetBytes):mean nan
scalar Mipv6Network.switch.eth[2] packetDropInterfaceDown:vector(packetBytes):stddev nan
scalar Mipv6Network.switch.eth[2] packetDropInterfaceDown:vector(packetBytes):min inf
scalar Mipv6Network.switch.eth[2] packetDropInterfaceDown:vector(packetBytes):max -inf
scalar Mipv6Network.switch.eth[2] packetDropInterfaceDown:vector(packetBytes):starttime nan
scalar Mipv6Network.switch.eth[2] packetDropInterfaceDown:vector(packetBytes):endtime nan
scalar Mipv6Network.switch.eth[2] packetDropNoCarrier:vector(packetBytes):count 0
scalar Mipv6Network.switch.eth[2] packetDropNoCarrier:vector(packetBytes):sum 0
scalar Mipv6Network.switch.eth[2] packetDropNoCarrier:vector(packetBytes):sumweights 0
scalar Mipv6Network.switch.eth[2] packetDropNoCarrier:vector(packetBytes):mean nan
scalar Mipv6Network.switch.eth[2] packetDropNoCarrier:vector(packetBytes):stddev nan
scalar Mipv6Network.switch.eth[2] packetDropNoCarrier:vector(packetBytes):min inf
scalar Mipv6Network.switch.eth[2] packetDropNoCarrier:vector(packetBytes):max -inf
scalar Mipv6Network.switch.eth[2] packetDropNoCarrier:vector(packetBytes):starttime nan
scalar Mipv6Network.switch.eth[2] packetDropNoCarrier:vector(packetBytes):endtime nan
scalar Mipv6Network.Home_Agent.ip6tun0 packetDropInterfaceDown:vector(packetBytes):count 0
scalar Mipv6Network.Home_Agent.ip6tun0 packetDropInterfaceDown:vector(packetBytes):sum 0
scalar Mipv6Network.Home_Agent.ip6tun0 packetDropInterfaceDown:vector(packetBytes):sumweights 0
scalar Mipv6Network.Home_Agent.ip6tun0 packetDropInterfaceDown:vector(packetBytes):mean nan
scalar Mipv6Network.Home_Agent.ip6tun0 packetDropInterfaceDown:vector(packetBytes):stddev nan
scalar Mipv6Network.Home_Agent.ip6tun0 packetDropInterfaceDown:vector(packetBytes):min inf
scalar Mipv6Network.Home_Agent.ip6tun0 packetDropInterfaceDown:vector(packetBytes):max -inf
scalar Mipv6Network.Home_Agent.ip6tun0 packetDropInterfaceDown:vector(packetBytes):starttime nan
scalar Mipv6Network.Home_Agent.ip6tun0 packetDropInterfaceDown:vector(packetBytes):endtime nan
scalar Mipv6Network.Home_Agent.ip6tun0 packetDropNoCarrier:vector(packetBytes):count 0
scalar Mipv6Network.Home_Agent.ip6tun0 packetDropNoCarrier:vector(packetBytes):sum 0
scalar Mipv6Network.Home_Agent.ip6tun0 packetDropNoCarrier:vector(packetBytes):sumweights 0
scalar Mipv6Network.Home_Agent.ip6tun0 packetDropNoCarrier:vector(packetBytes):mean nan
scalar Mipv6Network.Home_Agent.ip6tun0 packetDropNoCarrier:vector(packetBytes):stddev nan
scalar Mipv6Network.Home_Agent.ip6tun0 packetDropNoCarrier:vector(packetBytes):min inf
scalar Mipv6Network.Home_Agent.ip6tun0 packetDropNoCarrier:vector(packetBytes):max -inf
scalar Mipv6Network.Home_Agent.ip6tun0 packetDropNoCarrier:vector(packetBytes):starttime nan
scalar Mipv6Network.Home_Agent.ip6tun0 packetDropNoCarrier:vector(packetBytes):endtime nan
scalar Mipv6Network.Home_Agent.ip6tun1 packetDropInterfaceDown:vector(packetBytes):count 0
scalar Mipv6Network.Home_Agent.ip6tun1 packetDropInterfaceDown:vector(packetBytes):sum 0
scalar Mipv6Network.Home_Agent.ip6tun1 packetDropInterfaceDown:vector(packetBytes):sumweights 0
scalar Mipv6Network.Home_Agent.ip6tun1 packetDropInterfaceDown:vector(packetBytes):mean nan
scalar Mipv6Network.Home_Agent.ip6tun1 packetDropInterfaceDown:vector(packetBytes):stddev nan
scalar Mipv6Network.Home_Agent.ip6tun1 packetDropInterfaceDown:vector(packetBytes):min inf
scalar Mipv6Network.Home_Agent.ip6tun1 packetDropInterfaceDown:vector(packetBytes):max -inf
scalar Mipv6Network.Home_Agent.ip6tun1 packetDropInterfaceDown:vector(packetBytes):starttime nan
scalar Mipv6Network.Home_Agent.ip6tun1 packetDropInterfaceDown:vector(packetBytes):endtime nan
scalar Mipv6Network.Home_Agent.ip6tun1 packetDropNoCarrier:vector(packetBytes):count 0
scalar Mipv6Network.Home_Agent.ip6tun1 packetDropNoCarrier:vector(packetBytes):sum 0
scalar Mipv6Network.Home_Agent.ip6tun1 packetDropNoCarrier:vector(packetBytes):sumweights 0
scalar Mipv6Network.Home_Agent.ip6tun1 packetDropNoCarrier:vector(packetBytes):mean nan
scalar Mipv6Network.Home_Agent.ip6tun1 packetDropNoCarrier:vector(packetBytes):stddev nan
scalar Mipv6Network.Home_Agent.ip6tun1 packetDropNoCarrier:vector(packetBytes):min inf
scalar Mipv6Network.Home_Agent.ip6tun1 packetDropNoCarrier:vector(packetBytes):max -inf
scalar Mipv6Network.Home_Agent.ip6tun1 packetDropNoCarrier:vector(packetBytes):starttime nan
scalar Mipv6Network.Home_Agent.ip6tun1 packetDropNoCarrier:vector(packetBytes):endtime nan
scalar Mipv6Network.MN[0].ip6tun0 packetDropInterfaceDown:vector(packetBytes):count 0
scalar Mipv6Network.MN[0].ip6tun0 packetDropInterfaceDown:vector(packetBytes):sum 0
scalar Mipv6Network.MN[0].ip6tun0 packetDropInterfaceDown:vector(packetBytes):sumweights 0
scalar Mipv6Network.MN[0].ip6tun0 packetDropInterfaceDown:vector(packetBytes):mean nan
scalar Mipv6Network.MN[0].ip6tun0 packetDropInterfaceDown:vector(packetBytes):stddev nan
scalar Mipv6Network.MN[0].ip6tun0 packetDropInterfaceDown:vector(packetBytes):min inf
scalar Mipv6Network.MN[0].ip6tun0 packetDropInterfaceDown:vector(packetBytes):max -inf
scalar Mipv6Network.MN[0].ip6tun0 packetDropInterfaceDown:vector(packetBytes):starttime nan
scalar Mipv6Network.MN[0].ip6tun0 packetDropInterfaceDown:vector(packetBytes):endtime nan
scalar Mipv6Network.MN[0].ip6tun0 packetDropNoCarrier:vector(packetBytes):count 0
scalar Mipv6Network.MN[0].ip6tun0 packetDropNoCarrier:vector(packetBytes):sum 0
scalar Mipv6Network.MN[0].ip6tun0 packetDropNoCarrier:vector(packetBytes):sumweights 0
scalar Mipv6Network.MN[0].ip6tun0 packetDropNoCarrier:vector(packetBytes):mean nan
scalar Mipv6Network.MN[0].ip6tun0 packetDropNoCarrier:vector(packetBytes):stddev nan
scalar Mipv6Network.MN[0].ip6tun0 packetDropNoCarrier:vector(packetBytes):min inf
scalar Mipv6Network.MN[0].ip6tun0 packetDropNoCarrier:vector(packetBytes):max -inf
scalar Mipv6Network.MN[0].ip6tun0 packetDropNoCarrier:vector(packetBytes):starttime nan
scalar Mipv6Network.MN[0].ip6tun0 packetDropNoCarrier:vector(packetBytes):endtime nan
scalar Mipv6Network.Home_Agent.ip6tun2 packetDropInterfaceDown:vector(packetBytes):count 0
scalar Mipv6Network.Home_Agent.ip6tun2 packetDropInterfaceDown:vector(packetBytes):sum 0
scalar Mipv6Network.Home_Agent.ip6tun2 packetDropInterfaceDown:vector(packetBytes):sumweights 0
scalar Mipv6Network.Home_Agent.ip6tun2 packetDropInterfaceDown:vector(packetBytes):mean nan
scalar Mipv6Network.Home_Agent.ip6tun2 packetDropInterfaceDown:vector(packetBytes):stddev nan
scalar Mipv6Network.Home_Agent.ip6tun2 packetDropInterfaceDown:vector(packetBytes):min inf
scalar Mipv6Network.Home_Agent.ip6tun2 packetDropInterfaceDown:vector(packetBytes):max -inf
scalar Mipv6Network.Home_Agent.ip6tun2 packetDropInterfaceDown:vector(packetBytes):starttime nan
scalar Mipv6Network.Home_Agent.ip6tun2 packetDropInterfaceDown:vector(packetBytes):endtime nan
scalar Mipv6Network.Home_Agent.ip6tun2 packetDropNoCarrier:vector(packetBytes):count 0
scalar Mipv6Network.Home_Agent.ip6tun2 packetDropNoCarrier:vector(packetBytes):sum 0
scalar Mipv6Network.Home_Agent.ip6tun2 packetDropNoCarrier:vector(packetBytes):sumweights 0
scalar Mipv6Network.Home_Agent.ip6tun2 packetDropNoCarrier:vector(packetBytes):mean nan
scalar Mipv6Network.Home_Agent.ip6tun2 packetDropNoCarrier:vector(packetBytes):stddev nan
scalar Mipv6Network.Home_Agent.ip6tun2 packetDropNoCarrier:vector(packetBytes):min inf
scalar Mipv6Network.Home_Agent.ip6tun2 packetDropNoCarrier:vector(packetBytes):max -inf
scalar Mipv6Network.Home_Agent.ip6tun2 packetDropNoCarrier:vector(packetBytes):starttime nan
scalar Mipv6Network.Home_Agent.ip6tun2 packetDropNoCarrier:vector(packetBytes):endtime nan
scalar Mipv6Network.Home_Agent.ip6tun3 packetDropInterfaceDown:vector(packetBytes):count 0
scalar Mipv6Network.Home_Agent.ip6tun3 packetDropInterfaceDown:vector(packetBytes):sum 0
scalar Mipv6Network.Home_Agent.ip6tun3 packetDropInterfaceDown:vector(packetBytes):sumweights 0
scalar Mipv6Network.Home_Agent.ip6tun3 packetDropInterfaceDown:vector(packetBytes):mean nan
scalar Mipv6Network.Home_Agent.ip6tun3 packetDropInterfaceDown:vector(packetBytes):stddev nan
scalar Mipv6Network.Home_Agent.ip6tun3 packetDropInterfaceDown:vector(packetBytes):min inf
scalar Mipv6Network.Home_Agent.ip6tun3 packetDropInterfaceDown:vector(packetBytes):max -inf
scalar Mipv6Network.Home_Agent.ip6tun3 packetDropInterfaceDown:vector(packetBytes):starttime nan
scalar Mipv6Network.Home_Agent.ip6tun3 packetDropInterfaceDown:vector(packetBytes):endtime nan
scalar Mipv6Network.Home_Agent.ip6tun3 packetDropNoCarrier:vector(packetBytes):count 0
scalar Mipv6Network.Home_Agent.ip6tun3 packetDropNoCarrier:vector(packetBytes):sum 0
scalar Mipv6Network.Home_Agent.ip6tun3 packetDropNoCarrier:vector(packetBytes):sumweights 0
scalar Mipv6Network.Home_Agent.ip6tun3 packetDropNoCarrier:vector(packetBytes):mean nan
scalar Mipv6Network.Home_Agent.ip6tun3 packetDropNoCarrier:vector(packetBytes):stddev nan
scalar Mipv6Network.Home_Agent.ip6tun3 packetDropNoCarrier:vector(packetBytes):min inf
scalar Mipv6Network.Home_Agent.ip6tun3 packetDropNoCarrier:vector(packetBytes):max -inf
scalar Mipv6Network.Home_Agent.ip6tun3 packetDropNoCarrier:vector(packetBytes):starttime nan
scalar Mipv6Network.Home_Agent.ip6tun3 packetDropNoCarrier:vector(packetBytes):endtime nan
scalar Mipv6Network.MN[0].ip6tun1 packetDropInterfaceDown:vector(packetBytes):count 0
scalar Mipv6Network.MN[0].ip6tun1 packetDropInterfaceDown:vector(packetBytes):sum 0
scalar Mipv6Network.MN[0].ip6tun1 packetDropInterfaceDown:vector(packetBytes):sumweights 0
scalar Mipv6Network.MN[0].ip6tun1 packetDropInterfaceDown:vector(packetBytes):mean nan
scalar Mipv6Network.MN[0].ip6tun1 packetDropInterfaceDown:vector(packetBytes):stddev nan
scalar Mipv6Network.MN[0].ip6tun1 packetDropInterfaceDown:vector(packetBytes):min inf
scalar Mipv6Network.MN[0].ip6tun1 packetDropInterfaceDown:vector(packetBytes):max -inf
scalar Mipv6Network.MN[0].ip6tun1 packetDropInterfaceDown:vector(packetBytes):starttime nan
scalar Mipv6Network.MN[0].ip6tun1 packetDropInterfaceDown:vector(packetBytes):endtime nan
scalar Mipv6Network.MN[0].ip6tun1 packetDropNoCarrier:vector(packetBytes):count 0
scalar Mipv6Network.MN[0].ip6tun1 packetDropNoCarrier:vector(packetBytes):sum 0
scalar Mipv6Network.MN[0].ip6tun1 packetDropNoCarrier:vector(packetBytes):sumweights 0
scalar Mipv6Network.MN[0].ip6tun1 packetDropNoCarrier:vector(packetBytes):mean nan
scalar Mipv6Network.MN[0].ip6tun1 packetDropNoCarrier:vector(packetBytes):stddev nan
scalar Mipv6Network.MN[0].ip6tun1 packetDropNoCarrier:vector(packetBytes):min inf
scalar Mipv6Network.MN[0].ip6tun1 packetDropNoCarrier:vector(packetBytes):max -inf
scalar Mipv6Network.MN[0].ip6tun1 packetDropNoCarrier:vector(packetBytes):starttime nan
scalar Mipv6Network.MN[0].ip6tun1 packetDropNoCarrier:vector(packetBytes):endtime nan

