version 3
run OneMasterClock-0-20251218-17:15:25-236151
attr configname OneMasterClock
attr datetime 20251218-17:15:25
attr datetimef 20251218-171525
attr experiment OneMasterClock
attr inifile omnetpp.ini
attr iterationvars ""
attr iterationvarsd ""
attr iterationvarsf ""
attr measurement ""
attr network OneMasterClockGptpShowcase
attr processid 236151
attr repetition 0
attr replication #0
attr resultdir results
attr runnumber 0
attr seedset 0
config **.param-recording false
config image-path /home/levy/workspace/inet/images
config output-scalar-file results/omnetpp.ini-OneMasterClock-#0.sca
config output-scalar-precision 17
config output-vector-file results/omnetpp.ini-OneMasterClock-#0.vec
config output-vector-precision 17
config record-eventlog false
config sim-time-limit 1s
config network OneMasterClockGptpShowcase
config description "Basic tree topology with one master clock"
config *.tsnClock.gptp.masterPorts "[\"eth0\"]"
config *.tsnSwitch.gptp.masterPorts "[\"eth1\", \"eth2\"]"
config **.referenceClock "\"tsnClock.clock\""
config *.visualizer.dataLinkVisualizer[0].displayLinks true
config *.visualizer.dataLinkVisualizer[0].activityLevel "\"protocol\""
config *.visualizer.dataLinkVisualizer[0].packetFilter "\"GptpSync\""
config *.visualizer.dataLinkVisualizer[0].lineColor "\"blue2\""
config *.visualizer.numInfoVisualizers 3
config *.visualizer.infoVisualizer[0].modules "\"*.tsnClock.clock\""
config *.tsnClock.clock.displayStringTextFormat "\"time: %T\""
config *.visualizer.infoVisualizer[1].modules "\"*.tsnSwitch.clock\""
config *.visualizer.infoVisualizer[1].placementHint "\"topLeft\""
config *.visualizer.infoVisualizer[2].modules "\"*.tsnDevice*.clock\""
config *.visualizer.infoVisualizer[2].placementHint "\"bottom\""
config *.tsnDevice*.clock.displayStringTextFormat "\"diff: %d\""
config *.tsnSwitch.clock.displayStringTextFormat "\"diff: %d\""
config sim-time-limit 1s
config simtime-resolution fs
config description abstract
config **.transmitter.typename StreamingTransmitter
config **.receiver.typename DestreamingReceiver
config *.*.hasTimeSynchronization true
config **.tsnClock*.clock.oscillator.typename RandomDriftOscillator
config **.oscillator.nominalTickLength 10ns
config **.oscillator.changeInterval 12.5ms
config **.oscillator.driftRate "uniform(-100ppm, 100ppm)"
config **.oscillator.driftRateChange "uniform(-1ppm, 1ppm)"
config **.oscillator.driftRateChangeUpperLimit 100ppm
config **.oscillator.driftRateChangeLowerLimit -100ppm
config *.*.eth[*].bitrate 100Mbps
config *.visualizer.typename IntegratedMultiCanvasVisualizer
config *.visualizer.infoVisualizer[*].displayInfos true

scalar OneMasterClockGptpShowcase.tsnClock.ethernet.macHeaderInserter outgoingPackets:count 18
scalar OneMasterClockGptpShowcase.tsnClock.ethernet.macHeaderInserter outgoingPacketLengths:sum 10560
scalar OneMasterClockGptpShowcase.tsnClock.ethernet.macHeaderInserter flowOutgoingPacketLengths:sum 0
scalar OneMasterClockGptpShowcase.tsnClock.ethernet.macHeaderInserter incomingPackets:count 18
scalar OneMasterClockGptpShowcase.tsnClock.ethernet.macHeaderInserter incomingPacketLengths:sum 8544
scalar OneMasterClockGptpShowcase.tsnClock.ethernet.macHeaderInserter flowIncomingPacketLengths:sum 0
scalar OneMasterClockGptpShowcase.tsnClock.ethernet.paddingInserter outgoingPackets:count 18
scalar OneMasterClockGptpShowcase.tsnClock.ethernet.paddingInserter outgoingPacketLengths:sum 10688
scalar OneMasterClockGptpShowcase.tsnClock.ethernet.paddingInserter flowOutgoingPacketLengths:sum 0
scalar OneMasterClockGptpShowcase.tsnClock.ethernet.paddingInserter incomingPackets:count 18
scalar OneMasterClockGptpShowcase.tsnClock.ethernet.paddingInserter incomingPacketLengths:sum 10560
scalar OneMasterClockGptpShowcase.tsnClock.ethernet.paddingInserter flowIncomingPacketLengths:sum 0
scalar OneMasterClockGptpShowcase.tsnClock.ethernet.fcsInserter outgoingPackets:count 18
scalar OneMasterClockGptpShowcase.tsnClock.ethernet.fcsInserter outgoingPacketLengths:sum 11264
scalar OneMasterClockGptpShowcase.tsnClock.ethernet.fcsInserter flowOutgoingPacketLengths:sum 0
scalar OneMasterClockGptpShowcase.tsnClock.ethernet.fcsInserter incomingPackets:count 18
scalar OneMasterClockGptpShowcase.tsnClock.ethernet.fcsInserter incomingPacketLengths:sum 10688
scalar OneMasterClockGptpShowcase.tsnClock.ethernet.fcsInserter flowIncomingPacketLengths:sum 0
scalar OneMasterClockGptpShowcase.tsnClock.ethernet.macHeaderChecker outgoingPackets:count 1
scalar OneMasterClockGptpShowcase.tsnClock.ethernet.macHeaderChecker outgoingPacketLengths:sum 432
scalar OneMasterClockGptpShowcase.tsnClock.ethernet.macHeaderChecker flowOutgoingPacketLengths:sum 0
scalar OneMasterClockGptpShowcase.tsnClock.ethernet.macHeaderChecker incomingPackets:count 1
scalar OneMasterClockGptpShowcase.tsnClock.ethernet.macHeaderChecker incomingPacketLengths:sum 544
scalar OneMasterClockGptpShowcase.tsnClock.ethernet.macHeaderChecker flowIncomingPacketLengths:sum 0
scalar OneMasterClockGptpShowcase.tsnClock.ethernet.macHeaderChecker droppedPackets:count 0
scalar OneMasterClockGptpShowcase.tsnClock.ethernet.macHeaderChecker droppedPacketLengths:sum 0
scalar OneMasterClockGptpShowcase.tsnClock.ethernet.macHeaderChecker flowDroppedPacketLengths:sum 0
scalar OneMasterClockGptpShowcase.tsnClock.ethernet.fcsChecker outgoingPackets:count 1
scalar OneMasterClockGptpShowcase.tsnClock.ethernet.fcsChecker outgoingPacketLengths:sum 544
scalar OneMasterClockGptpShowcase.tsnClock.ethernet.fcsChecker flowOutgoingPacketLengths:sum 0
scalar OneMasterClockGptpShowcase.tsnClock.ethernet.fcsChecker incomingPackets:count 1
scalar OneMasterClockGptpShowcase.tsnClock.ethernet.fcsChecker incomingPacketLengths:sum 576
scalar OneMasterClockGptpShowcase.tsnClock.ethernet.fcsChecker flowIncomingPacketLengths:sum 0
scalar OneMasterClockGptpShowcase.tsnClock.ethernet.fcsChecker droppedPackets:count 0
scalar OneMasterClockGptpShowcase.tsnClock.ethernet.fcsChecker droppedPacketLengths:sum 0
scalar OneMasterClockGptpShowcase.tsnClock.ethernet.fcsChecker flowDroppedPacketLengths:sum 0
scalar OneMasterClockGptpShowcase.tsnClock.lo[0].lo rcvdPkFromHl:count 0
scalar OneMasterClockGptpShowcase.tsnClock.lo[0].lo rcvdPkFromHl:sum(packetBytes) 0
scalar OneMasterClockGptpShowcase.tsnClock.lo[0].lo passedUpPk:count 0
scalar OneMasterClockGptpShowcase.tsnClock.lo[0].lo passedUpPk:sum(packetBytes) 0
scalar OneMasterClockGptpShowcase.tsnClock.lo[0] packetDropInterfaceDown:count 0
scalar OneMasterClockGptpShowcase.tsnClock.lo[0] packetDropInterfaceDown:sum(packetBytes) 0
scalar OneMasterClockGptpShowcase.tsnClock.lo[0] packetDropNoCarrier:count 0
scalar OneMasterClockGptpShowcase.tsnClock.lo[0] packetDropNoCarrier:sum(packetBytes) 0
scalar OneMasterClockGptpShowcase.tsnClock.eth[0].macLayer.queue queueLength:last 1
scalar OneMasterClockGptpShowcase.tsnClock.eth[0].macLayer.queue queueLength:max 1
scalar OneMasterClockGptpShowcase.tsnClock.eth[0].macLayer.queue queueLength:timeavg 5.2694077305000008e-05
scalar OneMasterClockGptpShowcase.tsnClock.eth[0].macLayer.queue queueBitLength:last 752
scalar OneMasterClockGptpShowcase.tsnClock.eth[0].macLayer.queue queueBitLength:max 752
scalar OneMasterClockGptpShowcase.tsnClock.eth[0].macLayer.queue queueBitLength:timeavg 0.039456986133360003
scalar OneMasterClockGptpShowcase.tsnClock.eth[0].macLayer.queue outgoingPackets:count 17
scalar OneMasterClockGptpShowcase.tsnClock.eth[0].macLayer.queue outgoingPacketLengths:sum 10512
scalar OneMasterClockGptpShowcase.tsnClock.eth[0].macLayer.queue incomingPackets:count 18
scalar OneMasterClockGptpShowcase.tsnClock.eth[0].macLayer.queue incomingPacketLengths:sum 11264
scalar OneMasterClockGptpShowcase.tsnClock.eth[0].macLayer.queue droppedPacketsQueueOverflow:count 0
scalar OneMasterClockGptpShowcase.tsnClock.eth[0].macLayer.queue droppedPacketLengthsQueueOverflow:sum 0
scalar OneMasterClockGptpShowcase.tsnClock.eth[0].macLayer.server incomingPackets:count 17
scalar OneMasterClockGptpShowcase.tsnClock.eth[0].macLayer.server incomingPacketLengths:sum 10512
scalar OneMasterClockGptpShowcase.tsnClock.eth[0].macLayer.server outgoingPackets:count 17
scalar OneMasterClockGptpShowcase.tsnClock.eth[0].macLayer.server outgoingPacketLengths:sum 10512
scalar OneMasterClockGptpShowcase.tsnClock.eth[0].macLayer.outboundEmitter outgoingPackets:count 17
scalar OneMasterClockGptpShowcase.tsnClock.eth[0].macLayer.outboundEmitter outgoingPacketLengths:sum 10512
scalar OneMasterClockGptpShowcase.tsnClock.eth[0].macLayer.outboundEmitter flowOutgoingPacketLengths:sum 0
scalar OneMasterClockGptpShowcase.tsnClock.eth[0].macLayer.outboundEmitter incomingPackets:count 17
scalar OneMasterClockGptpShowcase.tsnClock.eth[0].macLayer.outboundEmitter incomingPacketLengths:sum 10512
scalar OneMasterClockGptpShowcase.tsnClock.eth[0].macLayer.outboundEmitter flowIncomingPacketLengths:sum 0
scalar OneMasterClockGptpShowcase.tsnClock.eth[0].macLayer.fcsChecker outgoingPackets:count 1
scalar OneMasterClockGptpShowcase.tsnClock.eth[0].macLayer.fcsChecker outgoingPacketLengths:sum 576
scalar OneMasterClockGptpShowcase.tsnClock.eth[0].macLayer.fcsChecker flowOutgoingPacketLengths:sum 0
scalar OneMasterClockGptpShowcase.tsnClock.eth[0].macLayer.fcsChecker incomingPackets:count 1
scalar OneMasterClockGptpShowcase.tsnClock.eth[0].macLayer.fcsChecker incomingPacketLengths:sum 576
scalar OneMasterClockGptpShowcase.tsnClock.eth[0].macLayer.fcsChecker flowIncomingPacketLengths:sum 0
scalar OneMasterClockGptpShowcase.tsnClock.eth[0].macLayer.fcsChecker droppedPackets:count 0
scalar OneMasterClockGptpShowcase.tsnClock.eth[0].macLayer.fcsChecker droppedPacketLengths:sum 0
scalar OneMasterClockGptpShowcase.tsnClock.eth[0].macLayer.fcsChecker flowDroppedPacketLengths:sum 0
scalar OneMasterClockGptpShowcase.tsnClock.eth[0].macLayer.inboundEmitter outgoingPackets:count 1
scalar OneMasterClockGptpShowcase.tsnClock.eth[0].macLayer.inboundEmitter outgoingPacketLengths:sum 576
scalar OneMasterClockGptpShowcase.tsnClock.eth[0].macLayer.inboundEmitter flowOutgoingPacketLengths:sum 0
scalar OneMasterClockGptpShowcase.tsnClock.eth[0].macLayer.inboundEmitter incomingPackets:count 1
scalar OneMasterClockGptpShowcase.tsnClock.eth[0].macLayer.inboundEmitter incomingPacketLengths:sum 576
scalar OneMasterClockGptpShowcase.tsnClock.eth[0].macLayer.inboundEmitter flowIncomingPacketLengths:sum 0
scalar OneMasterClockGptpShowcase.tsnClock.eth[0].phyLayer.phyHeaderInserter outgoingPackets:count 17
scalar OneMasterClockGptpShowcase.tsnClock.eth[0].phyLayer.phyHeaderInserter outgoingPacketLengths:sum 11600
scalar OneMasterClockGptpShowcase.tsnClock.eth[0].phyLayer.phyHeaderInserter flowOutgoingPacketLengths:sum 0
scalar OneMasterClockGptpShowcase.tsnClock.eth[0].phyLayer.phyHeaderInserter incomingPackets:count 17
scalar OneMasterClockGptpShowcase.tsnClock.eth[0].phyLayer.phyHeaderInserter incomingPacketLengths:sum 10512
scalar OneMasterClockGptpShowcase.tsnClock.eth[0].phyLayer.phyHeaderInserter flowIncomingPacketLengths:sum 0
scalar OneMasterClockGptpShowcase.tsnClock.eth[0].phyLayer.outboundEmitter outgoingPackets:count 17
scalar OneMasterClockGptpShowcase.tsnClock.eth[0].phyLayer.outboundEmitter outgoingPacketLengths:sum 11600
scalar OneMasterClockGptpShowcase.tsnClock.eth[0].phyLayer.outboundEmitter flowOutgoingPacketLengths:sum 0
scalar OneMasterClockGptpShowcase.tsnClock.eth[0].phyLayer.outboundEmitter incomingPackets:count 17
scalar OneMasterClockGptpShowcase.tsnClock.eth[0].phyLayer.outboundEmitter incomingPacketLengths:sum 11600
scalar OneMasterClockGptpShowcase.tsnClock.eth[0].phyLayer.outboundEmitter flowIncomingPacketLengths:sum 0
scalar OneMasterClockGptpShowcase.tsnClock.eth[0].phyLayer.transmitter propagationTime 5.0000000000000004e-08
scalar OneMasterClockGptpShowcase.tsnClock.eth[0].phyLayer.phyHeaderChecker outgoingPackets:count 1
scalar OneMasterClockGptpShowcase.tsnClock.eth[0].phyLayer.phyHeaderChecker outgoingPacketLengths:sum 576
scalar OneMasterClockGptpShowcase.tsnClock.eth[0].phyLayer.phyHeaderChecker flowOutgoingPacketLengths:sum 0
scalar OneMasterClockGptpShowcase.tsnClock.eth[0].phyLayer.phyHeaderChecker incomingPackets:count 1
scalar OneMasterClockGptpShowcase.tsnClock.eth[0].phyLayer.phyHeaderChecker incomingPacketLengths:sum 640
scalar OneMasterClockGptpShowcase.tsnClock.eth[0].phyLayer.phyHeaderChecker flowIncomingPacketLengths:sum 0
scalar OneMasterClockGptpShowcase.tsnClock.eth[0].phyLayer.phyHeaderChecker droppedPackets:count 0
scalar OneMasterClockGptpShowcase.tsnClock.eth[0].phyLayer.phyHeaderChecker droppedPacketLengths:sum 0
scalar OneMasterClockGptpShowcase.tsnClock.eth[0].phyLayer.phyHeaderChecker flowDroppedPacketLengths:sum 0
scalar OneMasterClockGptpShowcase.tsnClock.eth[0].phyLayer.inboundEmitter outgoingPackets:count 1
scalar OneMasterClockGptpShowcase.tsnClock.eth[0].phyLayer.inboundEmitter outgoingPacketLengths:sum 640
scalar OneMasterClockGptpShowcase.tsnClock.eth[0].phyLayer.inboundEmitter flowOutgoingPacketLengths:sum 0
scalar OneMasterClockGptpShowcase.tsnClock.eth[0].phyLayer.inboundEmitter incomingPackets:count 1
scalar OneMasterClockGptpShowcase.tsnClock.eth[0].phyLayer.inboundEmitter incomingPacketLengths:sum 640
scalar OneMasterClockGptpShowcase.tsnClock.eth[0].phyLayer.inboundEmitter flowIncomingPacketLengths:sum 0
scalar OneMasterClockGptpShowcase.tsnClock.eth[0] packetDropInterfaceDown:count 0
scalar OneMasterClockGptpShowcase.tsnClock.eth[0] packetDropInterfaceDown:sum(packetBytes) 0
scalar OneMasterClockGptpShowcase.tsnClock.eth[0] packetDropNoCarrier:count 0
scalar OneMasterClockGptpShowcase.tsnClock.eth[0] packetDropNoCarrier:sum(packetBytes) 0
scalar OneMasterClockGptpShowcase.tsnClock.ipv4.ip packetDropAddressResolutionFailed:count 0
scalar OneMasterClockGptpShowcase.tsnClock.ipv4.ip packetDropAddressResolutionFailed:sum(packetBytes) 0
scalar OneMasterClockGptpShowcase.tsnClock.ipv4.ip packetDropHopLimitReached:count 0
scalar OneMasterClockGptpShowcase.tsnClock.ipv4.ip packetDropHopLimitReached:sum(packetBytes) 0
scalar OneMasterClockGptpShowcase.tsnClock.ipv4.ip packetDropForwardingDisabled:count 0
scalar OneMasterClockGptpShowcase.tsnClock.ipv4.ip packetDropForwardingDisabled:sum(packetBytes) 0
scalar OneMasterClockGptpShowcase.tsnClock.ipv4.ip packetDropLifetimeExpired:count 0
scalar OneMasterClockGptpShowcase.tsnClock.ipv4.ip packetDropLifetimeExpired:sum(packetBytes) 0
scalar OneMasterClockGptpShowcase.tsnClock.ipv4.ip packetDropNoInterfaceFound:count 0
scalar OneMasterClockGptpShowcase.tsnClock.ipv4.ip packetDropNoInterfaceFound:sum(packetBytes) 0
scalar OneMasterClockGptpShowcase.tsnClock.ipv4.ip packetDropNoRouteFound:count 0
scalar OneMasterClockGptpShowcase.tsnClock.ipv4.ip packetDropNoRouteFound:sum(packetBytes) 0
scalar OneMasterClockGptpShowcase.tsnClock.ipv4.ip packetDropUndefined:count 0
scalar OneMasterClockGptpShowcase.tsnClock.ipv4.ip packetDropUndefined:sum(packetBytes) 0
scalar OneMasterClockGptpShowcase.tsnClock.udp packetReceived:count 0
scalar OneMasterClockGptpShowcase.tsnClock.udp packetReceived:sum(packetBytes) 0
scalar OneMasterClockGptpShowcase.tsnClock.udp packetSent:count 0
scalar OneMasterClockGptpShowcase.tsnClock.udp packetSent:sum(packetBytes) 0
scalar OneMasterClockGptpShowcase.tsnClock.udp passedUpPk:count 0
scalar OneMasterClockGptpShowcase.tsnClock.udp droppedPkWrongPort:count 0
scalar OneMasterClockGptpShowcase.tsnClock.udp droppedPkBadChecksum:count 0
scalar OneMasterClockGptpShowcase.tsnClock.gptp packetDropNotAddressedToUs:count 0
scalar OneMasterClockGptpShowcase.tsnClock.gptp packetDropNotAddressedToUs:sum(packetBytes) 0
scalar OneMasterClockGptpShowcase.tsnSwitch.gptp packetDropNotAddressedToUs:count 0
scalar OneMasterClockGptpShowcase.tsnSwitch.gptp packetDropNotAddressedToUs:sum(packetBytes) 0
scalar OneMasterClockGptpShowcase.tsnSwitch.bridging.directionReverser.reverser outgoingPackets:count 0
scalar OneMasterClockGptpShowcase.tsnSwitch.bridging.directionReverser.reverser outgoingPacketLengths:sum 0
scalar OneMasterClockGptpShowcase.tsnSwitch.bridging.directionReverser.reverser flowOutgoingPacketLengths:sum 0
scalar OneMasterClockGptpShowcase.tsnSwitch.bridging.directionReverser.reverser incomingPackets:count 0
scalar OneMasterClockGptpShowcase.tsnSwitch.bridging.directionReverser.reverser incomingPacketLengths:sum 0
scalar OneMasterClockGptpShowcase.tsnSwitch.bridging.directionReverser.reverser flowIncomingPacketLengths:sum 0
scalar OneMasterClockGptpShowcase.tsnSwitch.bridging.directionReverser.join packets:count 0
scalar OneMasterClockGptpShowcase.tsnSwitch.bridging.directionReverser.join packetLengths:sum 0
scalar OneMasterClockGptpShowcase.tsnSwitch.bridging.interfaceRelay.learner outgoingPackets:count 20
scalar OneMasterClockGptpShowcase.tsnSwitch.bridging.interfaceRelay.learner outgoingPacketLengths:sum 9424
scalar OneMasterClockGptpShowcase.tsnSwitch.bridging.interfaceRelay.learner flowOutgoingPacketLengths:sum 0
scalar OneMasterClockGptpShowcase.tsnSwitch.bridging.interfaceRelay.learner incomingPackets:count 20
scalar OneMasterClockGptpShowcase.tsnSwitch.bridging.interfaceRelay.learner incomingPacketLengths:sum 9424
scalar OneMasterClockGptpShowcase.tsnSwitch.bridging.interfaceRelay.learner flowIncomingPacketLengths:sum 0
scalar OneMasterClockGptpShowcase.tsnSwitch.bridging.interfaceRelay.selector packetDropped:count 0
scalar OneMasterClockGptpShowcase.tsnSwitch.bridging.interfaceRelay.selector packetDropped:sum(packetBytes) 0
scalar OneMasterClockGptpShowcase.tsnSwitch.ethernet.macHeaderInserter outgoingPackets:count 37
scalar OneMasterClockGptpShowcase.tsnSwitch.ethernet.macHeaderInserter outgoingPacketLengths:sum 21472
scalar OneMasterClockGptpShowcase.tsnSwitch.ethernet.macHeaderInserter flowOutgoingPacketLengths:sum 0
scalar OneMasterClockGptpShowcase.tsnSwitch.ethernet.macHeaderInserter incomingPackets:count 37
scalar OneMasterClockGptpShowcase.tsnSwitch.ethernet.macHeaderInserter incomingPacketLengths:sum 17328
scalar OneMasterClockGptpShowcase.tsnSwitch.ethernet.macHeaderInserter flowIncomingPacketLengths:sum 0
scalar OneMasterClockGptpShowcase.tsnSwitch.ethernet.paddingInserter outgoingPackets:count 37
scalar OneMasterClockGptpShowcase.tsnSwitch.ethernet.paddingInserter outgoingPacketLengths:sum 21696
scalar OneMasterClockGptpShowcase.tsnSwitch.ethernet.paddingInserter flowOutgoingPacketLengths:sum 0
scalar OneMasterClockGptpShowcase.tsnSwitch.ethernet.paddingInserter incomingPackets:count 37
scalar OneMasterClockGptpShowcase.tsnSwitch.ethernet.paddingInserter incomingPacketLengths:sum 21472
scalar OneMasterClockGptpShowcase.tsnSwitch.ethernet.paddingInserter flowIncomingPacketLengths:sum 0
scalar OneMasterClockGptpShowcase.tsnSwitch.ethernet.fcsInserter outgoingPackets:count 37
scalar OneMasterClockGptpShowcase.tsnSwitch.ethernet.fcsInserter outgoingPacketLengths:sum 22880
scalar OneMasterClockGptpShowcase.tsnSwitch.ethernet.fcsInserter flowOutgoingPacketLengths:sum 0
scalar OneMasterClockGptpShowcase.tsnSwitch.ethernet.fcsInserter incomingPackets:count 37
scalar OneMasterClockGptpShowcase.tsnSwitch.ethernet.fcsInserter incomingPacketLengths:sum 21696
scalar OneMasterClockGptpShowcase.tsnSwitch.ethernet.fcsInserter flowIncomingPacketLengths:sum 0
scalar OneMasterClockGptpShowcase.tsnSwitch.ethernet.macHeaderChecker outgoingPackets:count 20
scalar OneMasterClockGptpShowcase.tsnSwitch.ethernet.macHeaderChecker outgoingPacketLengths:sum 9424
scalar OneMasterClockGptpShowcase.tsnSwitch.ethernet.macHeaderChecker flowOutgoingPacketLengths:sum 0
scalar OneMasterClockGptpShowcase.tsnSwitch.ethernet.macHeaderChecker incomingPackets:count 20
scalar OneMasterClockGptpShowcase.tsnSwitch.ethernet.macHeaderChecker incomingPacketLengths:sum 11664
scalar OneMasterClockGptpShowcase.tsnSwitch.ethernet.macHeaderChecker flowIncomingPacketLengths:sum 0
scalar OneMasterClockGptpShowcase.tsnSwitch.ethernet.macHeaderChecker droppedPackets:count 0
scalar OneMasterClockGptpShowcase.tsnSwitch.ethernet.macHeaderChecker droppedPacketLengths:sum 0
scalar OneMasterClockGptpShowcase.tsnSwitch.ethernet.macHeaderChecker flowDroppedPacketLengths:sum 0
scalar OneMasterClockGptpShowcase.tsnSwitch.ethernet.fcsChecker outgoingPackets:count 20
scalar OneMasterClockGptpShowcase.tsnSwitch.ethernet.fcsChecker outgoingPacketLengths:sum 11664
scalar OneMasterClockGptpShowcase.tsnSwitch.ethernet.fcsChecker flowOutgoingPacketLengths:sum 0
scalar OneMasterClockGptpShowcase.tsnSwitch.ethernet.fcsChecker incomingPackets:count 20
scalar OneMasterClockGptpShowcase.tsnSwitch.ethernet.fcsChecker incomingPacketLengths:sum 12304
scalar OneMasterClockGptpShowcase.tsnSwitch.ethernet.fcsChecker flowIncomingPacketLengths:sum 0
scalar OneMasterClockGptpShowcase.tsnSwitch.ethernet.fcsChecker droppedPackets:count 0
scalar OneMasterClockGptpShowcase.tsnSwitch.ethernet.fcsChecker droppedPacketLengths:sum 0
scalar OneMasterClockGptpShowcase.tsnSwitch.ethernet.fcsChecker flowDroppedPacketLengths:sum 0
scalar OneMasterClockGptpShowcase.tsnSwitch.ieee8021q.qTagHeaderInserter outgoingPackets:count 0
scalar OneMasterClockGptpShowcase.tsnSwitch.ieee8021q.qTagHeaderInserter outgoingPacketLengths:sum 0
scalar OneMasterClockGptpShowcase.tsnSwitch.ieee8021q.qTagHeaderInserter flowOutgoingPacketLengths:sum 0
scalar OneMasterClockGptpShowcase.tsnSwitch.ieee8021q.qTagHeaderInserter incomingPackets:count 0
scalar OneMasterClockGptpShowcase.tsnSwitch.ieee8021q.qTagHeaderInserter incomingPacketLengths:sum 0
scalar OneMasterClockGptpShowcase.tsnSwitch.ieee8021q.qTagHeaderInserter flowIncomingPacketLengths:sum 0
scalar OneMasterClockGptpShowcase.tsnSwitch.ieee8021q.qTagHeaderChecker outgoingPackets:count 0
scalar OneMasterClockGptpShowcase.tsnSwitch.ieee8021q.qTagHeaderChecker outgoingPacketLengths:sum 0
scalar OneMasterClockGptpShowcase.tsnSwitch.ieee8021q.qTagHeaderChecker flowOutgoingPacketLengths:sum 0
scalar OneMasterClockGptpShowcase.tsnSwitch.ieee8021q.qTagHeaderChecker incomingPackets:count 0
scalar OneMasterClockGptpShowcase.tsnSwitch.ieee8021q.qTagHeaderChecker incomingPacketLengths:sum 0
scalar OneMasterClockGptpShowcase.tsnSwitch.ieee8021q.qTagHeaderChecker flowIncomingPacketLengths:sum 0
scalar OneMasterClockGptpShowcase.tsnSwitch.ieee8021q.qTagHeaderChecker droppedPackets:count 0
scalar OneMasterClockGptpShowcase.tsnSwitch.ieee8021q.qTagHeaderChecker droppedPacketLengths:sum 0
scalar OneMasterClockGptpShowcase.tsnSwitch.ieee8021q.qTagHeaderChecker flowDroppedPacketLengths:sum 0
scalar OneMasterClockGptpShowcase.tsnSwitch.ieee8021r.rTagHeaderInserter outgoingPackets:count 0
scalar OneMasterClockGptpShowcase.tsnSwitch.ieee8021r.rTagHeaderInserter outgoingPacketLengths:sum 0
scalar OneMasterClockGptpShowcase.tsnSwitch.ieee8021r.rTagHeaderInserter flowOutgoingPacketLengths:sum 0
scalar OneMasterClockGptpShowcase.tsnSwitch.ieee8021r.rTagHeaderInserter incomingPackets:count 0
scalar OneMasterClockGptpShowcase.tsnSwitch.ieee8021r.rTagHeaderInserter incomingPacketLengths:sum 0
scalar OneMasterClockGptpShowcase.tsnSwitch.ieee8021r.rTagHeaderInserter flowIncomingPacketLengths:sum 0
scalar OneMasterClockGptpShowcase.tsnSwitch.ieee8021r.rTagHeaderChecker outgoingPackets:count 0
scalar OneMasterClockGptpShowcase.tsnSwitch.ieee8021r.rTagHeaderChecker outgoingPacketLengths:sum 0
scalar OneMasterClockGptpShowcase.tsnSwitch.ieee8021r.rTagHeaderChecker flowOutgoingPacketLengths:sum 0
scalar OneMasterClockGptpShowcase.tsnSwitch.ieee8021r.rTagHeaderChecker incomingPackets:count 0
scalar OneMasterClockGptpShowcase.tsnSwitch.ieee8021r.rTagHeaderChecker incomingPacketLengths:sum 0
scalar OneMasterClockGptpShowcase.tsnSwitch.ieee8021r.rTagHeaderChecker flowIncomingPacketLengths:sum 0
scalar OneMasterClockGptpShowcase.tsnSwitch.ieee8021r.rTagHeaderChecker droppedPackets:count 0
scalar OneMasterClockGptpShowcase.tsnSwitch.ieee8021r.rTagHeaderChecker droppedPacketLengths:sum 0
scalar OneMasterClockGptpShowcase.tsnSwitch.ieee8021r.rTagHeaderChecker flowDroppedPacketLengths:sum 0
scalar OneMasterClockGptpShowcase.tsnSwitch.eth[0].macLayer.queue queueLength:last 0
scalar OneMasterClockGptpShowcase.tsnSwitch.eth[0].macLayer.queue queueLength:max 1
scalar OneMasterClockGptpShowcase.tsnSwitch.eth[0].macLayer.queue queueLength:timeavg 0
scalar OneMasterClockGptpShowcase.tsnSwitch.eth[0].macLayer.queue queueBitLength:last 0
scalar OneMasterClockGptpShowcase.tsnSwitch.eth[0].macLayer.queue queueBitLength:max 576
scalar OneMasterClockGptpShowcase.tsnSwitch.eth[0].macLayer.queue queueBitLength:timeavg 0
scalar OneMasterClockGptpShowcase.tsnSwitch.eth[0].macLayer.queue outgoingPackets:count 2
scalar OneMasterClockGptpShowcase.tsnSwitch.eth[0].macLayer.queue outgoingPacketLengths:sum 1152
scalar OneMasterClockGptpShowcase.tsnSwitch.eth[0].macLayer.queue incomingPackets:count 2
scalar OneMasterClockGptpShowcase.tsnSwitch.eth[0].macLayer.queue incomingPacketLengths:sum 1152
scalar OneMasterClockGptpShowcase.tsnSwitch.eth[0].macLayer.queue droppedPacketsQueueOverflow:count 0
scalar OneMasterClockGptpShowcase.tsnSwitch.eth[0].macLayer.queue droppedPacketLengthsQueueOverflow:sum 0
scalar OneMasterClockGptpShowcase.tsnSwitch.eth[0].macLayer.server incomingPackets:count 2
scalar OneMasterClockGptpShowcase.tsnSwitch.eth[0].macLayer.server incomingPacketLengths:sum 1152
scalar OneMasterClockGptpShowcase.tsnSwitch.eth[0].macLayer.server outgoingPackets:count 2
scalar OneMasterClockGptpShowcase.tsnSwitch.eth[0].macLayer.server outgoingPacketLengths:sum 1152
scalar OneMasterClockGptpShowcase.tsnSwitch.eth[0].macLayer.outboundEmitter outgoingPackets:count 2
scalar OneMasterClockGptpShowcase.tsnSwitch.eth[0].macLayer.outboundEmitter outgoingPacketLengths:sum 1152
scalar OneMasterClockGptpShowcase.tsnSwitch.eth[0].macLayer.outboundEmitter flowOutgoingPacketLengths:sum 0
scalar OneMasterClockGptpShowcase.tsnSwitch.eth[0].macLayer.outboundEmitter incomingPackets:count 2
scalar OneMasterClockGptpShowcase.tsnSwitch.eth[0].macLayer.outboundEmitter incomingPacketLengths:sum 1152
scalar OneMasterClockGptpShowcase.tsnSwitch.eth[0].macLayer.outboundEmitter flowIncomingPacketLengths:sum 0
scalar OneMasterClockGptpShowcase.tsnSwitch.eth[0].macLayer.fcsChecker outgoingPackets:count 16
scalar OneMasterClockGptpShowcase.tsnSwitch.eth[0].macLayer.fcsChecker outgoingPacketLengths:sum 10000
scalar OneMasterClockGptpShowcase.tsnSwitch.eth[0].macLayer.fcsChecker flowOutgoingPacketLengths:sum 0
scalar OneMasterClockGptpShowcase.tsnSwitch.eth[0].macLayer.fcsChecker incomingPackets:count 16
scalar OneMasterClockGptpShowcase.tsnSwitch.eth[0].macLayer.fcsChecker incomingPacketLengths:sum 10000
scalar OneMasterClockGptpShowcase.tsnSwitch.eth[0].macLayer.fcsChecker flowIncomingPacketLengths:sum 0
scalar OneMasterClockGptpShowcase.tsnSwitch.eth[0].macLayer.fcsChecker droppedPackets:count 0
scalar OneMasterClockGptpShowcase.tsnSwitch.eth[0].macLayer.fcsChecker droppedPacketLengths:sum 0
scalar OneMasterClockGptpShowcase.tsnSwitch.eth[0].macLayer.fcsChecker flowDroppedPacketLengths:sum 0
scalar OneMasterClockGptpShowcase.tsnSwitch.eth[0].macLayer.inboundEmitter outgoingPackets:count 16
scalar OneMasterClockGptpShowcase.tsnSwitch.eth[0].macLayer.inboundEmitter outgoingPacketLengths:sum 10000
scalar OneMasterClockGptpShowcase.tsnSwitch.eth[0].macLayer.inboundEmitter flowOutgoingPacketLengths:sum 0
scalar OneMasterClockGptpShowcase.tsnSwitch.eth[0].macLayer.inboundEmitter incomingPackets:count 16
scalar OneMasterClockGptpShowcase.tsnSwitch.eth[0].macLayer.inboundEmitter incomingPacketLengths:sum 10000
scalar OneMasterClockGptpShowcase.tsnSwitch.eth[0].macLayer.inboundEmitter flowIncomingPacketLengths:sum 0
scalar OneMasterClockGptpShowcase.tsnSwitch.eth[0].phyLayer.phyHeaderInserter outgoingPackets:count 2
scalar OneMasterClockGptpShowcase.tsnSwitch.eth[0].phyLayer.phyHeaderInserter outgoingPacketLengths:sum 1280
scalar OneMasterClockGptpShowcase.tsnSwitch.eth[0].phyLayer.phyHeaderInserter flowOutgoingPacketLengths:sum 0
scalar OneMasterClockGptpShowcase.tsnSwitch.eth[0].phyLayer.phyHeaderInserter incomingPackets:count 2
scalar OneMasterClockGptpShowcase.tsnSwitch.eth[0].phyLayer.phyHeaderInserter incomingPacketLengths:sum 1152
scalar OneMasterClockGptpShowcase.tsnSwitch.eth[0].phyLayer.phyHeaderInserter flowIncomingPacketLengths:sum 0
scalar OneMasterClockGptpShowcase.tsnSwitch.eth[0].phyLayer.outboundEmitter outgoingPackets:count 2
scalar OneMasterClockGptpShowcase.tsnSwitch.eth[0].phyLayer.outboundEmitter outgoingPacketLengths:sum 1280
scalar OneMasterClockGptpShowcase.tsnSwitch.eth[0].phyLayer.outboundEmitter flowOutgoingPacketLengths:sum 0
scalar OneMasterClockGptpShowcase.tsnSwitch.eth[0].phyLayer.outboundEmitter incomingPackets:count 2
scalar OneMasterClockGptpShowcase.tsnSwitch.eth[0].phyLayer.outboundEmitter incomingPacketLengths:sum 1280
scalar OneMasterClockGptpShowcase.tsnSwitch.eth[0].phyLayer.outboundEmitter flowIncomingPacketLengths:sum 0
scalar OneMasterClockGptpShowcase.tsnSwitch.eth[0].phyLayer.transmitter propagationTime 5.0000000000000004e-08
scalar OneMasterClockGptpShowcase.tsnSwitch.eth[0].phyLayer.phyHeaderChecker outgoingPackets:count 16
scalar OneMasterClockGptpShowcase.tsnSwitch.eth[0].phyLayer.phyHeaderChecker outgoingPacketLengths:sum 10000
scalar OneMasterClockGptpShowcase.tsnSwitch.eth[0].phyLayer.phyHeaderChecker flowOutgoingPacketLengths:sum 0
scalar OneMasterClockGptpShowcase.tsnSwitch.eth[0].phyLayer.phyHeaderChecker incomingPackets:count 16
scalar OneMasterClockGptpShowcase.tsnSwitch.eth[0].phyLayer.phyHeaderChecker incomingPacketLengths:sum 11024
scalar OneMasterClockGptpShowcase.tsnSwitch.eth[0].phyLayer.phyHeaderChecker flowIncomingPacketLengths:sum 0
scalar OneMasterClockGptpShowcase.tsnSwitch.eth[0].phyLayer.phyHeaderChecker droppedPackets:count 0
scalar OneMasterClockGptpShowcase.tsnSwitch.eth[0].phyLayer.phyHeaderChecker droppedPacketLengths:sum 0
scalar OneMasterClockGptpShowcase.tsnSwitch.eth[0].phyLayer.phyHeaderChecker flowDroppedPacketLengths:sum 0
scalar OneMasterClockGptpShowcase.tsnSwitch.eth[0].phyLayer.inboundEmitter outgoingPackets:count 16
scalar OneMasterClockGptpShowcase.tsnSwitch.eth[0].phyLayer.inboundEmitter outgoingPacketLengths:sum 11024
scalar OneMasterClockGptpShowcase.tsnSwitch.eth[0].phyLayer.inboundEmitter flowOutgoingPacketLengths:sum 0
scalar OneMasterClockGptpShowcase.tsnSwitch.eth[0].phyLayer.inboundEmitter incomingPackets:count 16
scalar OneMasterClockGptpShowcase.tsnSwitch.eth[0].phyLayer.inboundEmitter incomingPacketLengths:sum 11024
scalar OneMasterClockGptpShowcase.tsnSwitch.eth[0].phyLayer.inboundEmitter flowIncomingPacketLengths:sum 0
scalar OneMasterClockGptpShowcase.tsnSwitch.eth[0] packetDropInterfaceDown:count 0
scalar OneMasterClockGptpShowcase.tsnSwitch.eth[0] packetDropInterfaceDown:sum(packetBytes) 0
scalar OneMasterClockGptpShowcase.tsnSwitch.eth[0] packetDropNoCarrier:count 0
scalar OneMasterClockGptpShowcase.tsnSwitch.eth[0] packetDropNoCarrier:sum(packetBytes) 0
scalar OneMasterClockGptpShowcase.tsnSwitch.eth[1].macLayer.queue queueLength:last 0
scalar OneMasterClockGptpShowcase.tsnSwitch.eth[1].macLayer.queue queueLength:max 1
scalar OneMasterClockGptpShowcase.tsnSwitch.eth[1].macLayer.queue queueLength:timeavg 9.6000000000000013e-07
scalar OneMasterClockGptpShowcase.tsnSwitch.eth[1].macLayer.queue queueBitLength:last 0
scalar OneMasterClockGptpShowcase.tsnSwitch.eth[1].macLayer.queue queueBitLength:max 752
scalar OneMasterClockGptpShowcase.tsnSwitch.eth[1].macLayer.queue queueBitLength:timeavg 0.00055296000000000013
scalar OneMasterClockGptpShowcase.tsnSwitch.eth[1].macLayer.queue outgoingPackets:count 17
scalar OneMasterClockGptpShowcase.tsnSwitch.eth[1].macLayer.queue outgoingPacketLengths:sum 10576
scalar OneMasterClockGptpShowcase.tsnSwitch.eth[1].macLayer.queue incomingPackets:count 17
scalar OneMasterClockGptpShowcase.tsnSwitch.eth[1].macLayer.queue incomingPacketLengths:sum 10576
scalar OneMasterClockGptpShowcase.tsnSwitch.eth[1].macLayer.queue droppedPacketsQueueOverflow:count 0
scalar OneMasterClockGptpShowcase.tsnSwitch.eth[1].macLayer.queue droppedPacketLengthsQueueOverflow:sum 0
scalar OneMasterClockGptpShowcase.tsnSwitch.eth[1].macLayer.server incomingPackets:count 17
scalar OneMasterClockGptpShowcase.tsnSwitch.eth[1].macLayer.server incomingPacketLengths:sum 10576
scalar OneMasterClockGptpShowcase.tsnSwitch.eth[1].macLayer.server outgoingPackets:count 17
scalar OneMasterClockGptpShowcase.tsnSwitch.eth[1].macLayer.server outgoingPacketLengths:sum 10576
scalar OneMasterClockGptpShowcase.tsnSwitch.eth[1].macLayer.outboundEmitter outgoingPackets:count 17
scalar OneMasterClockGptpShowcase.tsnSwitch.eth[1].macLayer.outboundEmitter outgoingPacketLengths:sum 10576
scalar OneMasterClockGptpShowcase.tsnSwitch.eth[1].macLayer.outboundEmitter flowOutgoingPacketLengths:sum 0
scalar OneMasterClockGptpShowcase.tsnSwitch.eth[1].macLayer.outboundEmitter incomingPackets:count 17
scalar OneMasterClockGptpShowcase.tsnSwitch.eth[1].macLayer.outboundEmitter incomingPacketLengths:sum 10576
scalar OneMasterClockGptpShowcase.tsnSwitch.eth[1].macLayer.outboundEmitter flowIncomingPacketLengths:sum 0
scalar OneMasterClockGptpShowcase.tsnSwitch.eth[1].macLayer.fcsChecker outgoingPackets:count 2
scalar OneMasterClockGptpShowcase.tsnSwitch.eth[1].macLayer.fcsChecker outgoingPacketLengths:sum 1152
scalar OneMasterClockGptpShowcase.tsnSwitch.eth[1].macLayer.fcsChecker flowOutgoingPacketLengths:sum 0
scalar OneMasterClockGptpShowcase.tsnSwitch.eth[1].macLayer.fcsChecker incomingPackets:count 2
scalar OneMasterClockGptpShowcase.tsnSwitch.eth[1].macLayer.fcsChecker incomingPacketLengths:sum 1152
scalar OneMasterClockGptpShowcase.tsnSwitch.eth[1].macLayer.fcsChecker flowIncomingPacketLengths:sum 0
scalar OneMasterClockGptpShowcase.tsnSwitch.eth[1].macLayer.fcsChecker droppedPackets:count 0
scalar OneMasterClockGptpShowcase.tsnSwitch.eth[1].macLayer.fcsChecker droppedPacketLengths:sum 0
scalar OneMasterClockGptpShowcase.tsnSwitch.eth[1].macLayer.fcsChecker flowDroppedPacketLengths:sum 0
scalar OneMasterClockGptpShowcase.tsnSwitch.eth[1].macLayer.inboundEmitter outgoingPackets:count 2
scalar OneMasterClockGptpShowcase.tsnSwitch.eth[1].macLayer.inboundEmitter outgoingPacketLengths:sum 1152
scalar OneMasterClockGptpShowcase.tsnSwitch.eth[1].macLayer.inboundEmitter flowOutgoingPacketLengths:sum 0
scalar OneMasterClockGptpShowcase.tsnSwitch.eth[1].macLayer.inboundEmitter incomingPackets:count 2
scalar OneMasterClockGptpShowcase.tsnSwitch.eth[1].macLayer.inboundEmitter incomingPacketLengths:sum 1152
scalar OneMasterClockGptpShowcase.tsnSwitch.eth[1].macLayer.inboundEmitter flowIncomingPacketLengths:sum 0
scalar OneMasterClockGptpShowcase.tsnSwitch.eth[1].phyLayer.phyHeaderInserter outgoingPackets:count 17
scalar OneMasterClockGptpShowcase.tsnSwitch.eth[1].phyLayer.phyHeaderInserter outgoingPacketLengths:sum 11664
scalar OneMasterClockGptpShowcase.tsnSwitch.eth[1].phyLayer.phyHeaderInserter flowOutgoingPacketLengths:sum 0
scalar OneMasterClockGptpShowcase.tsnSwitch.eth[1].phyLayer.phyHeaderInserter incomingPackets:count 17
scalar OneMasterClockGptpShowcase.tsnSwitch.eth[1].phyLayer.phyHeaderInserter incomingPacketLengths:sum 10576
scalar OneMasterClockGptpShowcase.tsnSwitch.eth[1].phyLayer.phyHeaderInserter flowIncomingPacketLengths:sum 0
scalar OneMasterClockGptpShowcase.tsnSwitch.eth[1].phyLayer.outboundEmitter outgoingPackets:count 17
scalar OneMasterClockGptpShowcase.tsnSwitch.eth[1].phyLayer.outboundEmitter outgoingPacketLengths:sum 11664
scalar OneMasterClockGptpShowcase.tsnSwitch.eth[1].phyLayer.outboundEmitter flowOutgoingPacketLengths:sum 0
scalar OneMasterClockGptpShowcase.tsnSwitch.eth[1].phyLayer.outboundEmitter incomingPackets:count 17
scalar OneMasterClockGptpShowcase.tsnSwitch.eth[1].phyLayer.outboundEmitter incomingPacketLengths:sum 11664
scalar OneMasterClockGptpShowcase.tsnSwitch.eth[1].phyLayer.outboundEmitter flowIncomingPacketLengths:sum 0
scalar OneMasterClockGptpShowcase.tsnSwitch.eth[1].phyLayer.transmitter propagationTime 5.0000000000000004e-08
scalar OneMasterClockGptpShowcase.tsnSwitch.eth[1].phyLayer.phyHeaderChecker outgoingPackets:count 2
scalar OneMasterClockGptpShowcase.tsnSwitch.eth[1].phyLayer.phyHeaderChecker outgoingPacketLengths:sum 1152
scalar OneMasterClockGptpShowcase.tsnSwitch.eth[1].phyLayer.phyHeaderChecker flowOutgoingPacketLengths:sum 0
scalar OneMasterClockGptpShowcase.tsnSwitch.eth[1].phyLayer.phyHeaderChecker incomingPackets:count 2
scalar OneMasterClockGptpShowcase.tsnSwitch.eth[1].phyLayer.phyHeaderChecker incomingPacketLengths:sum 1280
scalar OneMasterClockGptpShowcase.tsnSwitch.eth[1].phyLayer.phyHeaderChecker flowIncomingPacketLengths:sum 0
scalar OneMasterClockGptpShowcase.tsnSwitch.eth[1].phyLayer.phyHeaderChecker droppedPackets:count 0
scalar OneMasterClockGptpShowcase.tsnSwitch.eth[1].phyLayer.phyHeaderChecker droppedPacketLengths:sum 0
scalar OneMasterClockGptpShowcase.tsnSwitch.eth[1].phyLayer.phyHeaderChecker flowDroppedPacketLengths:sum 0
scalar OneMasterClockGptpShowcase.tsnSwitch.eth[1].phyLayer.inboundEmitter outgoingPackets:count 2
scalar OneMasterClockGptpShowcase.tsnSwitch.eth[1].phyLayer.inboundEmitter outgoingPacketLengths:sum 1280
scalar OneMasterClockGptpShowcase.tsnSwitch.eth[1].phyLayer.inboundEmitter flowOutgoingPacketLengths:sum 0
scalar OneMasterClockGptpShowcase.tsnSwitch.eth[1].phyLayer.inboundEmitter incomingPackets:count 2
scalar OneMasterClockGptpShowcase.tsnSwitch.eth[1].phyLayer.inboundEmitter incomingPacketLengths:sum 1280
scalar OneMasterClockGptpShowcase.tsnSwitch.eth[1].phyLayer.inboundEmitter flowIncomingPacketLengths:sum 0
scalar OneMasterClockGptpShowcase.tsnSwitch.eth[1] packetDropInterfaceDown:count 0
scalar OneMasterClockGptpShowcase.tsnSwitch.eth[1] packetDropInterfaceDown:sum(packetBytes) 0
scalar OneMasterClockGptpShowcase.tsnSwitch.eth[1] packetDropNoCarrier:count 0
scalar OneMasterClockGptpShowcase.tsnSwitch.eth[1] packetDropNoCarrier:sum(packetBytes) 0
scalar OneMasterClockGptpShowcase.tsnSwitch.eth[2].macLayer.queue queueLength:last 0
scalar OneMasterClockGptpShowcase.tsnSwitch.eth[2].macLayer.queue queueLength:max 1
scalar OneMasterClockGptpShowcase.tsnSwitch.eth[2].macLayer.queue queueLength:timeavg 1.9200000000000003e-06
scalar OneMasterClockGptpShowcase.tsnSwitch.eth[2].macLayer.queue queueBitLength:last 0
scalar OneMasterClockGptpShowcase.tsnSwitch.eth[2].macLayer.queue queueBitLength:max 752
scalar OneMasterClockGptpShowcase.tsnSwitch.eth[2].macLayer.queue queueBitLength:timeavg 0.0011059200000000003
scalar OneMasterClockGptpShowcase.tsnSwitch.eth[2].macLayer.queue outgoingPackets:count 18
scalar OneMasterClockGptpShowcase.tsnSwitch.eth[2].macLayer.queue outgoingPacketLengths:sum 11152
scalar OneMasterClockGptpShowcase.tsnSwitch.eth[2].macLayer.queue incomingPackets:count 18
scalar OneMasterClockGptpShowcase.tsnSwitch.eth[2].macLayer.queue incomingPacketLengths:sum 11152
scalar OneMasterClockGptpShowcase.tsnSwitch.eth[2].macLayer.queue droppedPacketsQueueOverflow:count 0
scalar OneMasterClockGptpShowcase.tsnSwitch.eth[2].macLayer.queue droppedPacketLengthsQueueOverflow:sum 0
scalar OneMasterClockGptpShowcase.tsnSwitch.eth[2].macLayer.server incomingPackets:count 18
scalar OneMasterClockGptpShowcase.tsnSwitch.eth[2].macLayer.server incomingPacketLengths:sum 11152
scalar OneMasterClockGptpShowcase.tsnSwitch.eth[2].macLayer.server outgoingPackets:count 18
scalar OneMasterClockGptpShowcase.tsnSwitch.eth[2].macLayer.server outgoingPacketLengths:sum 11152
scalar OneMasterClockGptpShowcase.tsnSwitch.eth[2].macLayer.outboundEmitter outgoingPackets:count 18
scalar OneMasterClockGptpShowcase.tsnSwitch.eth[2].macLayer.outboundEmitter outgoingPacketLengths:sum 11152
scalar OneMasterClockGptpShowcase.tsnSwitch.eth[2].macLayer.outboundEmitter flowOutgoingPacketLengths:sum 0
scalar OneMasterClockGptpShowcase.tsnSwitch.eth[2].macLayer.outboundEmitter incomingPackets:count 18
scalar OneMasterClockGptpShowcase.tsnSwitch.eth[2].macLayer.outboundEmitter incomingPacketLengths:sum 11152
scalar OneMasterClockGptpShowcase.tsnSwitch.eth[2].macLayer.outboundEmitter flowIncomingPacketLengths:sum 0
scalar OneMasterClockGptpShowcase.tsnSwitch.eth[2].macLayer.fcsChecker outgoingPackets:count 2
scalar OneMasterClockGptpShowcase.tsnSwitch.eth[2].macLayer.fcsChecker outgoingPacketLengths:sum 1152
scalar OneMasterClockGptpShowcase.tsnSwitch.eth[2].macLayer.fcsChecker flowOutgoingPacketLengths:sum 0
scalar OneMasterClockGptpShowcase.tsnSwitch.eth[2].macLayer.fcsChecker incomingPackets:count 2
scalar OneMasterClockGptpShowcase.tsnSwitch.eth[2].macLayer.fcsChecker incomingPacketLengths:sum 1152
scalar OneMasterClockGptpShowcase.tsnSwitch.eth[2].macLayer.fcsChecker flowIncomingPacketLengths:sum 0
scalar OneMasterClockGptpShowcase.tsnSwitch.eth[2].macLayer.fcsChecker droppedPackets:count 0
scalar OneMasterClockGptpShowcase.tsnSwitch.eth[2].macLayer.fcsChecker droppedPacketLengths:sum 0
scalar OneMasterClockGptpShowcase.tsnSwitch.eth[2].macLayer.fcsChecker flowDroppedPacketLengths:sum 0
scalar OneMasterClockGptpShowcase.tsnSwitch.eth[2].macLayer.inboundEmitter outgoingPackets:count 2
scalar OneMasterClockGptpShowcase.tsnSwitch.eth[2].macLayer.inboundEmitter outgoingPacketLengths:sum 1152
scalar OneMasterClockGptpShowcase.tsnSwitch.eth[2].macLayer.inboundEmitter flowOutgoingPacketLengths:sum 0
scalar OneMasterClockGptpShowcase.tsnSwitch.eth[2].macLayer.inboundEmitter incomingPackets:count 2
scalar OneMasterClockGptpShowcase.tsnSwitch.eth[2].macLayer.inboundEmitter incomingPacketLengths:sum 1152
scalar OneMasterClockGptpShowcase.tsnSwitch.eth[2].macLayer.inboundEmitter flowIncomingPacketLengths:sum 0
scalar OneMasterClockGptpShowcase.tsnSwitch.eth[2].phyLayer.phyHeaderInserter outgoingPackets:count 18
scalar OneMasterClockGptpShowcase.tsnSwitch.eth[2].phyLayer.phyHeaderInserter outgoingPacketLengths:sum 12304
scalar OneMasterClockGptpShowcase.tsnSwitch.eth[2].phyLayer.phyHeaderInserter flowOutgoingPacketLengths:sum 0
scalar OneMasterClockGptpShowcase.tsnSwitch.eth[2].phyLayer.phyHeaderInserter incomingPackets:count 18
scalar OneMasterClockGptpShowcase.tsnSwitch.eth[2].phyLayer.phyHeaderInserter incomingPacketLengths:sum 11152
scalar OneMasterClockGptpShowcase.tsnSwitch.eth[2].phyLayer.phyHeaderInserter flowIncomingPacketLengths:sum 0
scalar OneMasterClockGptpShowcase.tsnSwitch.eth[2].phyLayer.outboundEmitter outgoingPackets:count 18
scalar OneMasterClockGptpShowcase.tsnSwitch.eth[2].phyLayer.outboundEmitter outgoingPacketLengths:sum 12304
scalar OneMasterClockGptpShowcase.tsnSwitch.eth[2].phyLayer.outboundEmitter flowOutgoingPacketLengths:sum 0
scalar OneMasterClockGptpShowcase.tsnSwitch.eth[2].phyLayer.outboundEmitter incomingPackets:count 18
scalar OneMasterClockGptpShowcase.tsnSwitch.eth[2].phyLayer.outboundEmitter incomingPacketLengths:sum 12304
scalar OneMasterClockGptpShowcase.tsnSwitch.eth[2].phyLayer.outboundEmitter flowIncomingPacketLengths:sum 0
scalar OneMasterClockGptpShowcase.tsnSwitch.eth[2].phyLayer.transmitter propagationTime 5.0000000000000004e-08
scalar OneMasterClockGptpShowcase.tsnSwitch.eth[2].phyLayer.phyHeaderChecker outgoingPackets:count 2
scalar OneMasterClockGptpShowcase.tsnSwitch.eth[2].phyLayer.phyHeaderChecker outgoingPacketLengths:sum 1152
scalar OneMasterClockGptpShowcase.tsnSwitch.eth[2].phyLayer.phyHeaderChecker flowOutgoingPacketLengths:sum 0
scalar OneMasterClockGptpShowcase.tsnSwitch.eth[2].phyLayer.phyHeaderChecker incomingPackets:count 2
scalar OneMasterClockGptpShowcase.tsnSwitch.eth[2].phyLayer.phyHeaderChecker incomingPacketLengths:sum 1280
scalar OneMasterClockGptpShowcase.tsnSwitch.eth[2].phyLayer.phyHeaderChecker flowIncomingPacketLengths:sum 0
scalar OneMasterClockGptpShowcase.tsnSwitch.eth[2].phyLayer.phyHeaderChecker droppedPackets:count 0
scalar OneMasterClockGptpShowcase.tsnSwitch.eth[2].phyLayer.phyHeaderChecker droppedPacketLengths:sum 0
scalar OneMasterClockGptpShowcase.tsnSwitch.eth[2].phyLayer.phyHeaderChecker flowDroppedPacketLengths:sum 0
scalar OneMasterClockGptpShowcase.tsnSwitch.eth[2].phyLayer.inboundEmitter outgoingPackets:count 2
scalar OneMasterClockGptpShowcase.tsnSwitch.eth[2].phyLayer.inboundEmitter outgoingPacketLengths:sum 1280
scalar OneMasterClockGptpShowcase.tsnSwitch.eth[2].phyLayer.inboundEmitter flowOutgoingPacketLengths:sum 0
scalar OneMasterClockGptpShowcase.tsnSwitch.eth[2].phyLayer.inboundEmitter incomingPackets:count 2
scalar OneMasterClockGptpShowcase.tsnSwitch.eth[2].phyLayer.inboundEmitter incomingPacketLengths:sum 1280
scalar OneMasterClockGptpShowcase.tsnSwitch.eth[2].phyLayer.inboundEmitter flowIncomingPacketLengths:sum 0
scalar OneMasterClockGptpShowcase.tsnSwitch.eth[2] packetDropInterfaceDown:count 0
scalar OneMasterClockGptpShowcase.tsnSwitch.eth[2] packetDropInterfaceDown:sum(packetBytes) 0
scalar OneMasterClockGptpShowcase.tsnSwitch.eth[2] packetDropNoCarrier:count 0
scalar OneMasterClockGptpShowcase.tsnSwitch.eth[2] packetDropNoCarrier:sum(packetBytes) 0
scalar OneMasterClockGptpShowcase.tsnDevice1.ethernet.macHeaderInserter outgoingPackets:count 2
scalar OneMasterClockGptpShowcase.tsnDevice1.ethernet.macHeaderInserter outgoingPacketLengths:sum 1088
scalar OneMasterClockGptpShowcase.tsnDevice1.ethernet.macHeaderInserter flowOutgoingPacketLengths:sum 0
scalar OneMasterClockGptpShowcase.tsnDevice1.ethernet.macHeaderInserter incomingPackets:count 2
scalar OneMasterClockGptpShowcase.tsnDevice1.ethernet.macHeaderInserter incomingPacketLengths:sum 864
scalar OneMasterClockGptpShowcase.tsnDevice1.ethernet.macHeaderInserter flowIncomingPacketLengths:sum 0
scalar OneMasterClockGptpShowcase.tsnDevice1.ethernet.paddingInserter outgoingPackets:count 2
scalar OneMasterClockGptpShowcase.tsnDevice1.ethernet.paddingInserter outgoingPacketLengths:sum 1088
scalar OneMasterClockGptpShowcase.tsnDevice1.ethernet.paddingInserter flowOutgoingPacketLengths:sum 0
scalar OneMasterClockGptpShowcase.tsnDevice1.ethernet.paddingInserter incomingPackets:count 2
scalar OneMasterClockGptpShowcase.tsnDevice1.ethernet.paddingInserter incomingPacketLengths:sum 1088
scalar OneMasterClockGptpShowcase.tsnDevice1.ethernet.paddingInserter flowIncomingPacketLengths:sum 0
scalar OneMasterClockGptpShowcase.tsnDevice1.ethernet.fcsInserter outgoingPackets:count 2
scalar OneMasterClockGptpShowcase.tsnDevice1.ethernet.fcsInserter outgoingPacketLengths:sum 1152
scalar OneMasterClockGptpShowcase.tsnDevice1.ethernet.fcsInserter flowOutgoingPacketLengths:sum 0
scalar OneMasterClockGptpShowcase.tsnDevice1.ethernet.fcsInserter incomingPackets:count 2
scalar OneMasterClockGptpShowcase.tsnDevice1.ethernet.fcsInserter incomingPacketLengths:sum 1088
scalar OneMasterClockGptpShowcase.tsnDevice1.ethernet.fcsInserter flowIncomingPacketLengths:sum 0
scalar OneMasterClockGptpShowcase.tsnDevice1.ethernet.macHeaderChecker outgoingPackets:count 16
scalar OneMasterClockGptpShowcase.tsnDevice1.ethernet.macHeaderChecker outgoingPacketLengths:sum 7696
scalar OneMasterClockGptpShowcase.tsnDevice1.ethernet.macHeaderChecker flowOutgoingPacketLengths:sum 0
scalar OneMasterClockGptpShowcase.tsnDevice1.ethernet.macHeaderChecker incomingPackets:count 16
scalar OneMasterClockGptpShowcase.tsnDevice1.ethernet.macHeaderChecker incomingPacketLengths:sum 9488
scalar OneMasterClockGptpShowcase.tsnDevice1.ethernet.macHeaderChecker flowIncomingPacketLengths:sum 0
scalar OneMasterClockGptpShowcase.tsnDevice1.ethernet.macHeaderChecker droppedPackets:count 0
scalar OneMasterClockGptpShowcase.tsnDevice1.ethernet.macHeaderChecker droppedPacketLengths:sum 0
scalar OneMasterClockGptpShowcase.tsnDevice1.ethernet.macHeaderChecker flowDroppedPacketLengths:sum 0
scalar OneMasterClockGptpShowcase.tsnDevice1.ethernet.fcsChecker outgoingPackets:count 16
scalar OneMasterClockGptpShowcase.tsnDevice1.ethernet.fcsChecker outgoingPacketLengths:sum 9488
scalar OneMasterClockGptpShowcase.tsnDevice1.ethernet.fcsChecker flowOutgoingPacketLengths:sum 0
scalar OneMasterClockGptpShowcase.tsnDevice1.ethernet.fcsChecker incomingPackets:count 16
scalar OneMasterClockGptpShowcase.tsnDevice1.ethernet.fcsChecker incomingPacketLengths:sum 10000
scalar OneMasterClockGptpShowcase.tsnDevice1.ethernet.fcsChecker flowIncomingPacketLengths:sum 0
scalar OneMasterClockGptpShowcase.tsnDevice1.ethernet.fcsChecker droppedPackets:count 0
scalar OneMasterClockGptpShowcase.tsnDevice1.ethernet.fcsChecker droppedPacketLengths:sum 0
scalar OneMasterClockGptpShowcase.tsnDevice1.ethernet.fcsChecker flowDroppedPacketLengths:sum 0
scalar OneMasterClockGptpShowcase.tsnDevice1.lo[0].lo rcvdPkFromHl:count 0
scalar OneMasterClockGptpShowcase.tsnDevice1.lo[0].lo rcvdPkFromHl:sum(packetBytes) 0
scalar OneMasterClockGptpShowcase.tsnDevice1.lo[0].lo passedUpPk:count 0
scalar OneMasterClockGptpShowcase.tsnDevice1.lo[0].lo passedUpPk:sum(packetBytes) 0
scalar OneMasterClockGptpShowcase.tsnDevice1.lo[0] packetDropInterfaceDown:count 0
scalar OneMasterClockGptpShowcase.tsnDevice1.lo[0] packetDropInterfaceDown:sum(packetBytes) 0
scalar OneMasterClockGptpShowcase.tsnDevice1.lo[0] packetDropNoCarrier:count 0
scalar OneMasterClockGptpShowcase.tsnDevice1.lo[0] packetDropNoCarrier:sum(packetBytes) 0
scalar OneMasterClockGptpShowcase.tsnDevice1.eth[0].macLayer.queue queueLength:last 0
scalar OneMasterClockGptpShowcase.tsnDevice1.eth[0].macLayer.queue queueLength:max 1
scalar OneMasterClockGptpShowcase.tsnDevice1.eth[0].macLayer.queue queueLength:timeavg 0
scalar OneMasterClockGptpShowcase.tsnDevice1.eth[0].macLayer.queue queueBitLength:last 0
scalar OneMasterClockGptpShowcase.tsnDevice1.eth[0].macLayer.queue queueBitLength:max 576
scalar OneMasterClockGptpShowcase.tsnDevice1.eth[0].macLayer.queue queueBitLength:timeavg 0
scalar OneMasterClockGptpShowcase.tsnDevice1.eth[0].macLayer.queue outgoingPackets:count 2
scalar OneMasterClockGptpShowcase.tsnDevice1.eth[0].macLayer.queue outgoingPacketLengths:sum 1152
scalar OneMasterClockGptpShowcase.tsnDevice1.eth[0].macLayer.queue incomingPackets:count 2
scalar OneMasterClockGptpShowcase.tsnDevice1.eth[0].macLayer.queue incomingPacketLengths:sum 1152
scalar OneMasterClockGptpShowcase.tsnDevice1.eth[0].macLayer.queue droppedPacketsQueueOverflow:count 0
scalar OneMasterClockGptpShowcase.tsnDevice1.eth[0].macLayer.queue droppedPacketLengthsQueueOverflow:sum 0
scalar OneMasterClockGptpShowcase.tsnDevice1.eth[0].macLayer.server incomingPackets:count 2
scalar OneMasterClockGptpShowcase.tsnDevice1.eth[0].macLayer.server incomingPacketLengths:sum 1152
scalar OneMasterClockGptpShowcase.tsnDevice1.eth[0].macLayer.server outgoingPackets:count 2
scalar OneMasterClockGptpShowcase.tsnDevice1.eth[0].macLayer.server outgoingPacketLengths:sum 1152
scalar OneMasterClockGptpShowcase.tsnDevice1.eth[0].macLayer.outboundEmitter outgoingPackets:count 2
scalar OneMasterClockGptpShowcase.tsnDevice1.eth[0].macLayer.outboundEmitter outgoingPacketLengths:sum 1152
scalar OneMasterClockGptpShowcase.tsnDevice1.eth[0].macLayer.outboundEmitter flowOutgoingPacketLengths:sum 0
scalar OneMasterClockGptpShowcase.tsnDevice1.eth[0].macLayer.outboundEmitter incomingPackets:count 2
scalar OneMasterClockGptpShowcase.tsnDevice1.eth[0].macLayer.outboundEmitter incomingPacketLengths:sum 1152
scalar OneMasterClockGptpShowcase.tsnDevice1.eth[0].macLayer.outboundEmitter flowIncomingPacketLengths:sum 0
scalar OneMasterClockGptpShowcase.tsnDevice1.eth[0].macLayer.fcsChecker outgoingPackets:count 16
scalar OneMasterClockGptpShowcase.tsnDevice1.eth[0].macLayer.fcsChecker outgoingPacketLengths:sum 10000
scalar OneMasterClockGptpShowcase.tsnDevice1.eth[0].macLayer.fcsChecker flowOutgoingPacketLengths:sum 0
scalar OneMasterClockGptpShowcase.tsnDevice1.eth[0].macLayer.fcsChecker incomingPackets:count 16
scalar OneMasterClockGptpShowcase.tsnDevice1.eth[0].macLayer.fcsChecker incomingPacketLengths:sum 10000
scalar OneMasterClockGptpShowcase.tsnDevice1.eth[0].macLayer.fcsChecker flowIncomingPacketLengths:sum 0
scalar OneMasterClockGptpShowcase.tsnDevice1.eth[0].macLayer.fcsChecker droppedPackets:count 0
scalar OneMasterClockGptpShowcase.tsnDevice1.eth[0].macLayer.fcsChecker droppedPacketLengths:sum 0
scalar OneMasterClockGptpShowcase.tsnDevice1.eth[0].macLayer.fcsChecker flowDroppedPacketLengths:sum 0
scalar OneMasterClockGptpShowcase.tsnDevice1.eth[0].macLayer.inboundEmitter outgoingPackets:count 16
scalar OneMasterClockGptpShowcase.tsnDevice1.eth[0].macLayer.inboundEmitter outgoingPacketLengths:sum 10000
scalar OneMasterClockGptpShowcase.tsnDevice1.eth[0].macLayer.inboundEmitter flowOutgoingPacketLengths:sum 0
scalar OneMasterClockGptpShowcase.tsnDevice1.eth[0].macLayer.inboundEmitter incomingPackets:count 16
scalar OneMasterClockGptpShowcase.tsnDevice1.eth[0].macLayer.inboundEmitter incomingPacketLengths:sum 10000
scalar OneMasterClockGptpShowcase.tsnDevice1.eth[0].macLayer.inboundEmitter flowIncomingPacketLengths:sum 0
scalar OneMasterClockGptpShowcase.tsnDevice1.eth[0].phyLayer.phyHeaderInserter outgoingPackets:count 2
scalar OneMasterClockGptpShowcase.tsnDevice1.eth[0].phyLayer.phyHeaderInserter outgoingPacketLengths:sum 1280
scalar OneMasterClockGptpShowcase.tsnDevice1.eth[0].phyLayer.phyHeaderInserter flowOutgoingPacketLengths:sum 0
scalar OneMasterClockGptpShowcase.tsnDevice1.eth[0].phyLayer.phyHeaderInserter incomingPackets:count 2
scalar OneMasterClockGptpShowcase.tsnDevice1.eth[0].phyLayer.phyHeaderInserter incomingPacketLengths:sum 1152
scalar OneMasterClockGptpShowcase.tsnDevice1.eth[0].phyLayer.phyHeaderInserter flowIncomingPacketLengths:sum 0
scalar OneMasterClockGptpShowcase.tsnDevice1.eth[0].phyLayer.outboundEmitter outgoingPackets:count 2
scalar OneMasterClockGptpShowcase.tsnDevice1.eth[0].phyLayer.outboundEmitter outgoingPacketLengths:sum 1280
scalar OneMasterClockGptpShowcase.tsnDevice1.eth[0].phyLayer.outboundEmitter flowOutgoingPacketLengths:sum 0
scalar OneMasterClockGptpShowcase.tsnDevice1.eth[0].phyLayer.outboundEmitter incomingPackets:count 2
scalar OneMasterClockGptpShowcase.tsnDevice1.eth[0].phyLayer.outboundEmitter incomingPacketLengths:sum 1280
scalar OneMasterClockGptpShowcase.tsnDevice1.eth[0].phyLayer.outboundEmitter flowIncomingPacketLengths:sum 0
scalar OneMasterClockGptpShowcase.tsnDevice1.eth[0].phyLayer.transmitter propagationTime 5.0000000000000004e-08
scalar OneMasterClockGptpShowcase.tsnDevice1.eth[0].phyLayer.phyHeaderChecker outgoingPackets:count 16
scalar OneMasterClockGptpShowcase.tsnDevice1.eth[0].phyLayer.phyHeaderChecker outgoingPacketLengths:sum 10000
scalar OneMasterClockGptpShowcase.tsnDevice1.eth[0].phyLayer.phyHeaderChecker flowOutgoingPacketLengths:sum 0
scalar OneMasterClockGptpShowcase.tsnDevice1.eth[0].phyLayer.phyHeaderChecker incomingPackets:count 16
scalar OneMasterClockGptpShowcase.tsnDevice1.eth[0].phyLayer.phyHeaderChecker incomingPacketLengths:sum 11024
scalar OneMasterClockGptpShowcase.tsnDevice1.eth[0].phyLayer.phyHeaderChecker flowIncomingPacketLengths:sum 0
scalar OneMasterClockGptpShowcase.tsnDevice1.eth[0].phyLayer.phyHeaderChecker droppedPackets:count 0
scalar OneMasterClockGptpShowcase.tsnDevice1.eth[0].phyLayer.phyHeaderChecker droppedPacketLengths:sum 0
scalar OneMasterClockGptpShowcase.tsnDevice1.eth[0].phyLayer.phyHeaderChecker flowDroppedPacketLengths:sum 0
scalar OneMasterClockGptpShowcase.tsnDevice1.eth[0].phyLayer.inboundEmitter outgoingPackets:count 16
scalar OneMasterClockGptpShowcase.tsnDevice1.eth[0].phyLayer.inboundEmitter outgoingPacketLengths:sum 11024
scalar OneMasterClockGptpShowcase.tsnDevice1.eth[0].phyLayer.inboundEmitter flowOutgoingPacketLengths:sum 0
scalar OneMasterClockGptpShowcase.tsnDevice1.eth[0].phyLayer.inboundEmitter incomingPackets:count 16
scalar OneMasterClockGptpShowcase.tsnDevice1.eth[0].phyLayer.inboundEmitter incomingPacketLengths:sum 11024
scalar OneMasterClockGptpShowcase.tsnDevice1.eth[0].phyLayer.inboundEmitter flowIncomingPacketLengths:sum 0
scalar OneMasterClockGptpShowcase.tsnDevice1.eth[0] packetDropInterfaceDown:count 0
scalar OneMasterClockGptpShowcase.tsnDevice1.eth[0] packetDropInterfaceDown:sum(packetBytes) 0
scalar OneMasterClockGptpShowcase.tsnDevice1.eth[0] packetDropNoCarrier:count 0
scalar OneMasterClockGptpShowcase.tsnDevice1.eth[0] packetDropNoCarrier:sum(packetBytes) 0
scalar OneMasterClockGptpShowcase.tsnDevice1.ipv4.ip packetDropAddressResolutionFailed:count 0
scalar OneMasterClockGptpShowcase.tsnDevice1.ipv4.ip packetDropAddressResolutionFailed:sum(packetBytes) 0
scalar OneMasterClockGptpShowcase.tsnDevice1.ipv4.ip packetDropHopLimitReached:count 0
scalar OneMasterClockGptpShowcase.tsnDevice1.ipv4.ip packetDropHopLimitReached:sum(packetBytes) 0
scalar OneMasterClockGptpShowcase.tsnDevice1.ipv4.ip packetDropForwardingDisabled:count 0
scalar OneMasterClockGptpShowcase.tsnDevice1.ipv4.ip packetDropForwardingDisabled:sum(packetBytes) 0
scalar OneMasterClockGptpShowcase.tsnDevice1.ipv4.ip packetDropLifetimeExpired:count 0
scalar OneMasterClockGptpShowcase.tsnDevice1.ipv4.ip packetDropLifetimeExpired:sum(packetBytes) 0
scalar OneMasterClockGptpShowcase.tsnDevice1.ipv4.ip packetDropNoInterfaceFound:count 0
scalar OneMasterClockGptpShowcase.tsnDevice1.ipv4.ip packetDropNoInterfaceFound:sum(packetBytes) 0
scalar OneMasterClockGptpShowcase.tsnDevice1.ipv4.ip packetDropNoRouteFound:count 0
scalar OneMasterClockGptpShowcase.tsnDevice1.ipv4.ip packetDropNoRouteFound:sum(packetBytes) 0
scalar OneMasterClockGptpShowcase.tsnDevice1.ipv4.ip packetDropUndefined:count 0
scalar OneMasterClockGptpShowcase.tsnDevice1.ipv4.ip packetDropUndefined:sum(packetBytes) 0
scalar OneMasterClockGptpShowcase.tsnDevice1.udp packetReceived:count 0
scalar OneMasterClockGptpShowcase.tsnDevice1.udp packetReceived:sum(packetBytes) 0
scalar OneMasterClockGptpShowcase.tsnDevice1.udp packetSent:count 0
scalar OneMasterClockGptpShowcase.tsnDevice1.udp packetSent:sum(packetBytes) 0
scalar OneMasterClockGptpShowcase.tsnDevice1.udp passedUpPk:count 0
scalar OneMasterClockGptpShowcase.tsnDevice1.udp droppedPkWrongPort:count 0
scalar OneMasterClockGptpShowcase.tsnDevice1.udp droppedPkBadChecksum:count 0
scalar OneMasterClockGptpShowcase.tsnDevice1.gptp packetDropNotAddressedToUs:count 0
scalar OneMasterClockGptpShowcase.tsnDevice1.gptp packetDropNotAddressedToUs:sum(packetBytes) 0
scalar OneMasterClockGptpShowcase.tsnDevice2.ethernet.macHeaderInserter outgoingPackets:count 2
scalar OneMasterClockGptpShowcase.tsnDevice2.ethernet.macHeaderInserter outgoingPacketLengths:sum 1088
scalar OneMasterClockGptpShowcase.tsnDevice2.ethernet.macHeaderInserter flowOutgoingPacketLengths:sum 0
scalar OneMasterClockGptpShowcase.tsnDevice2.ethernet.macHeaderInserter incomingPackets:count 2
scalar OneMasterClockGptpShowcase.tsnDevice2.ethernet.macHeaderInserter incomingPacketLengths:sum 864
scalar OneMasterClockGptpShowcase.tsnDevice2.ethernet.macHeaderInserter flowIncomingPacketLengths:sum 0
scalar OneMasterClockGptpShowcase.tsnDevice2.ethernet.paddingInserter outgoingPackets:count 2
scalar OneMasterClockGptpShowcase.tsnDevice2.ethernet.paddingInserter outgoingPacketLengths:sum 1088
scalar OneMasterClockGptpShowcase.tsnDevice2.ethernet.paddingInserter flowOutgoingPacketLengths:sum 0
scalar OneMasterClockGptpShowcase.tsnDevice2.ethernet.paddingInserter incomingPackets:count 2
scalar OneMasterClockGptpShowcase.tsnDevice2.ethernet.paddingInserter incomingPacketLengths:sum 1088
scalar OneMasterClockGptpShowcase.tsnDevice2.ethernet.paddingInserter flowIncomingPacketLengths:sum 0
scalar OneMasterClockGptpShowcase.tsnDevice2.ethernet.fcsInserter outgoingPackets:count 2
scalar OneMasterClockGptpShowcase.tsnDevice2.ethernet.fcsInserter outgoingPacketLengths:sum 1152
scalar OneMasterClockGptpShowcase.tsnDevice2.ethernet.fcsInserter flowOutgoingPacketLengths:sum 0
scalar OneMasterClockGptpShowcase.tsnDevice2.ethernet.fcsInserter incomingPackets:count 2
scalar OneMasterClockGptpShowcase.tsnDevice2.ethernet.fcsInserter incomingPacketLengths:sum 1088
scalar OneMasterClockGptpShowcase.tsnDevice2.ethernet.fcsInserter flowIncomingPacketLengths:sum 0
scalar OneMasterClockGptpShowcase.tsnDevice2.ethernet.macHeaderChecker outgoingPackets:count 17
scalar OneMasterClockGptpShowcase.tsnDevice2.ethernet.macHeaderChecker outgoingPacketLengths:sum 8128
scalar OneMasterClockGptpShowcase.tsnDevice2.ethernet.macHeaderChecker flowOutgoingPacketLengths:sum 0
scalar OneMasterClockGptpShowcase.tsnDevice2.ethernet.macHeaderChecker incomingPackets:count 17
scalar OneMasterClockGptpShowcase.tsnDevice2.ethernet.macHeaderChecker incomingPacketLengths:sum 10032
scalar OneMasterClockGptpShowcase.tsnDevice2.ethernet.macHeaderChecker flowIncomingPacketLengths:sum 0
scalar OneMasterClockGptpShowcase.tsnDevice2.ethernet.macHeaderChecker droppedPackets:count 0
scalar OneMasterClockGptpShowcase.tsnDevice2.ethernet.macHeaderChecker droppedPacketLengths:sum 0
scalar OneMasterClockGptpShowcase.tsnDevice2.ethernet.macHeaderChecker flowDroppedPacketLengths:sum 0
scalar OneMasterClockGptpShowcase.tsnDevice2.ethernet.fcsChecker outgoingPackets:count 17
scalar OneMasterClockGptpShowcase.tsnDevice2.ethernet.fcsChecker outgoingPacketLengths:sum 10032
scalar OneMasterClockGptpShowcase.tsnDevice2.ethernet.fcsChecker flowOutgoingPacketLengths:sum 0
scalar OneMasterClockGptpShowcase.tsnDevice2.ethernet.fcsChecker incomingPackets:count 17
scalar OneMasterClockGptpShowcase.tsnDevice2.ethernet.fcsChecker incomingPacketLengths:sum 10576
scalar OneMasterClockGptpShowcase.tsnDevice2.ethernet.fcsChecker flowIncomingPacketLengths:sum 0
scalar OneMasterClockGptpShowcase.tsnDevice2.ethernet.fcsChecker droppedPackets:count 0
scalar OneMasterClockGptpShowcase.tsnDevice2.ethernet.fcsChecker droppedPacketLengths:sum 0
scalar OneMasterClockGptpShowcase.tsnDevice2.ethernet.fcsChecker flowDroppedPacketLengths:sum 0
scalar OneMasterClockGptpShowcase.tsnDevice2.lo[0].lo rcvdPkFromHl:count 0
scalar OneMasterClockGptpShowcase.tsnDevice2.lo[0].lo rcvdPkFromHl:sum(packetBytes) 0
scalar OneMasterClockGptpShowcase.tsnDevice2.lo[0].lo passedUpPk:count 0
scalar OneMasterClockGptpShowcase.tsnDevice2.lo[0].lo passedUpPk:sum(packetBytes) 0
scalar OneMasterClockGptpShowcase.tsnDevice2.lo[0] packetDropInterfaceDown:count 0
scalar OneMasterClockGptpShowcase.tsnDevice2.lo[0] packetDropInterfaceDown:sum(packetBytes) 0
scalar OneMasterClockGptpShowcase.tsnDevice2.lo[0] packetDropNoCarrier:count 0
scalar OneMasterClockGptpShowcase.tsnDevice2.lo[0] packetDropNoCarrier:sum(packetBytes) 0
scalar OneMasterClockGptpShowcase.tsnDevice2.eth[0].macLayer.queue queueLength:last 0
scalar OneMasterClockGptpShowcase.tsnDevice2.eth[0].macLayer.queue queueLength:max 1
scalar OneMasterClockGptpShowcase.tsnDevice2.eth[0].macLayer.queue queueLength:timeavg 0
scalar OneMasterClockGptpShowcase.tsnDevice2.eth[0].macLayer.queue queueBitLength:last 0
scalar OneMasterClockGptpShowcase.tsnDevice2.eth[0].macLayer.queue queueBitLength:max 576
scalar OneMasterClockGptpShowcase.tsnDevice2.eth[0].macLayer.queue queueBitLength:timeavg 0
scalar OneMasterClockGptpShowcase.tsnDevice2.eth[0].macLayer.queue outgoingPackets:count 2
scalar OneMasterClockGptpShowcase.tsnDevice2.eth[0].macLayer.queue outgoingPacketLengths:sum 1152
scalar OneMasterClockGptpShowcase.tsnDevice2.eth[0].macLayer.queue incomingPackets:count 2
scalar OneMasterClockGptpShowcase.tsnDevice2.eth[0].macLayer.queue incomingPacketLengths:sum 1152
scalar OneMasterClockGptpShowcase.tsnDevice2.eth[0].macLayer.queue droppedPacketsQueueOverflow:count 0
scalar OneMasterClockGptpShowcase.tsnDevice2.eth[0].macLayer.queue droppedPacketLengthsQueueOverflow:sum 0
scalar OneMasterClockGptpShowcase.tsnDevice2.eth[0].macLayer.server incomingPackets:count 2
scalar OneMasterClockGptpShowcase.tsnDevice2.eth[0].macLayer.server incomingPacketLengths:sum 1152
scalar OneMasterClockGptpShowcase.tsnDevice2.eth[0].macLayer.server outgoingPackets:count 2
scalar OneMasterClockGptpShowcase.tsnDevice2.eth[0].macLayer.server outgoingPacketLengths:sum 1152
scalar OneMasterClockGptpShowcase.tsnDevice2.eth[0].macLayer.outboundEmitter outgoingPackets:count 2
scalar OneMasterClockGptpShowcase.tsnDevice2.eth[0].macLayer.outboundEmitter outgoingPacketLengths:sum 1152
scalar OneMasterClockGptpShowcase.tsnDevice2.eth[0].macLayer.outboundEmitter flowOutgoingPacketLengths:sum 0
scalar OneMasterClockGptpShowcase.tsnDevice2.eth[0].macLayer.outboundEmitter incomingPackets:count 2
scalar OneMasterClockGptpShowcase.tsnDevice2.eth[0].macLayer.outboundEmitter incomingPacketLengths:sum 1152
scalar OneMasterClockGptpShowcase.tsnDevice2.eth[0].macLayer.outboundEmitter flowIncomingPacketLengths:sum 0
scalar OneMasterClockGptpShowcase.tsnDevice2.eth[0].macLayer.fcsChecker outgoingPackets:count 17
scalar OneMasterClockGptpShowcase.tsnDevice2.eth[0].macLayer.fcsChecker outgoingPacketLengths:sum 10576
scalar OneMasterClockGptpShowcase.tsnDevice2.eth[0].macLayer.fcsChecker flowOutgoingPacketLengths:sum 0
scalar OneMasterClockGptpShowcase.tsnDevice2.eth[0].macLayer.fcsChecker incomingPackets:count 17
scalar OneMasterClockGptpShowcase.tsnDevice2.eth[0].macLayer.fcsChecker incomingPacketLengths:sum 10576
scalar OneMasterClockGptpShowcase.tsnDevice2.eth[0].macLayer.fcsChecker flowIncomingPacketLengths:sum 0
scalar OneMasterClockGptpShowcase.tsnDevice2.eth[0].macLayer.fcsChecker droppedPackets:count 0
scalar OneMasterClockGptpShowcase.tsnDevice2.eth[0].macLayer.fcsChecker droppedPacketLengths:sum 0
scalar OneMasterClockGptpShowcase.tsnDevice2.eth[0].macLayer.fcsChecker flowDroppedPacketLengths:sum 0
scalar OneMasterClockGptpShowcase.tsnDevice2.eth[0].macLayer.inboundEmitter outgoingPackets:count 17
scalar OneMasterClockGptpShowcase.tsnDevice2.eth[0].macLayer.inboundEmitter outgoingPacketLengths:sum 10576
scalar OneMasterClockGptpShowcase.tsnDevice2.eth[0].macLayer.inboundEmitter flowOutgoingPacketLengths:sum 0
scalar OneMasterClockGptpShowcase.tsnDevice2.eth[0].macLayer.inboundEmitter incomingPackets:count 17
scalar OneMasterClockGptpShowcase.tsnDevice2.eth[0].macLayer.inboundEmitter incomingPacketLengths:sum 10576
scalar OneMasterClockGptpShowcase.tsnDevice2.eth[0].macLayer.inboundEmitter flowIncomingPacketLengths:sum 0
scalar OneMasterClockGptpShowcase.tsnDevice2.eth[0].phyLayer.phyHeaderInserter outgoingPackets:count 2
scalar OneMasterClockGptpShowcase.tsnDevice2.eth[0].phyLayer.phyHeaderInserter outgoingPacketLengths:sum 1280
scalar OneMasterClockGptpShowcase.tsnDevice2.eth[0].phyLayer.phyHeaderInserter flowOutgoingPacketLengths:sum 0
scalar OneMasterClockGptpShowcase.tsnDevice2.eth[0].phyLayer.phyHeaderInserter incomingPackets:count 2
scalar OneMasterClockGptpShowcase.tsnDevice2.eth[0].phyLayer.phyHeaderInserter incomingPacketLengths:sum 1152
scalar OneMasterClockGptpShowcase.tsnDevice2.eth[0].phyLayer.phyHeaderInserter flowIncomingPacketLengths:sum 0
scalar OneMasterClockGptpShowcase.tsnDevice2.eth[0].phyLayer.outboundEmitter outgoingPackets:count 2
scalar OneMasterClockGptpShowcase.tsnDevice2.eth[0].phyLayer.outboundEmitter outgoingPacketLengths:sum 1280
scalar OneMasterClockGptpShowcase.tsnDevice2.eth[0].phyLayer.outboundEmitter flowOutgoingPacketLengths:sum 0
scalar OneMasterClockGptpShowcase.tsnDevice2.eth[0].phyLayer.outboundEmitter incomingPackets:count 2
scalar OneMasterClockGptpShowcase.tsnDevice2.eth[0].phyLayer.outboundEmitter incomingPacketLengths:sum 1280
scalar OneMasterClockGptpShowcase.tsnDevice2.eth[0].phyLayer.outboundEmitter flowIncomingPacketLengths:sum 0
scalar OneMasterClockGptpShowcase.tsnDevice2.eth[0].phyLayer.transmitter propagationTime 5.0000000000000004e-08
scalar OneMasterClockGptpShowcase.tsnDevice2.eth[0].phyLayer.phyHeaderChecker outgoingPackets:count 17
scalar OneMasterClockGptpShowcase.tsnDevice2.eth[0].phyLayer.phyHeaderChecker outgoingPacketLengths:sum 10576
scalar OneMasterClockGptpShowcase.tsnDevice2.eth[0].phyLayer.phyHeaderChecker flowOutgoingPacketLengths:sum 0
scalar OneMasterClockGptpShowcase.tsnDevice2.eth[0].phyLayer.phyHeaderChecker incomingPackets:count 17
scalar OneMasterClockGptpShowcase.tsnDevice2.eth[0].phyLayer.phyHeaderChecker incomingPacketLengths:sum 11664
scalar OneMasterClockGptpShowcase.tsnDevice2.eth[0].phyLayer.phyHeaderChecker flowIncomingPacketLengths:sum 0
scalar OneMasterClockGptpShowcase.tsnDevice2.eth[0].phyLayer.phyHeaderChecker droppedPackets:count 0
scalar OneMasterClockGptpShowcase.tsnDevice2.eth[0].phyLayer.phyHeaderChecker droppedPacketLengths:sum 0
scalar OneMasterClockGptpShowcase.tsnDevice2.eth[0].phyLayer.phyHeaderChecker flowDroppedPacketLengths:sum 0
scalar OneMasterClockGptpShowcase.tsnDevice2.eth[0].phyLayer.inboundEmitter outgoingPackets:count 17
scalar OneMasterClockGptpShowcase.tsnDevice2.eth[0].phyLayer.inboundEmitter outgoingPacketLengths:sum 11664
scalar OneMasterClockGptpShowcase.tsnDevice2.eth[0].phyLayer.inboundEmitter flowOutgoingPacketLengths:sum 0
scalar OneMasterClockGptpShowcase.tsnDevice2.eth[0].phyLayer.inboundEmitter incomingPackets:count 17
scalar OneMasterClockGptpShowcase.tsnDevice2.eth[0].phyLayer.inboundEmitter incomingPacketLengths:sum 11664
scalar OneMasterClockGptpShowcase.tsnDevice2.eth[0].phyLayer.inboundEmitter flowIncomingPacketLengths:sum 0
scalar OneMasterClockGptpShowcase.tsnDevice2.eth[0] packetDropInterfaceDown:count 0
scalar OneMasterClockGptpShowcase.tsnDevice2.eth[0] packetDropInterfaceDown:sum(packetBytes) 0
scalar OneMasterClockGptpShowcase.tsnDevice2.eth[0] packetDropNoCarrier:count 0
scalar OneMasterClockGptpShowcase.tsnDevice2.eth[0] packetDropNoCarrier:sum(packetBytes) 0
scalar OneMasterClockGptpShowcase.tsnDevice2.ipv4.ip packetDropAddressResolutionFailed:count 0
scalar OneMasterClockGptpShowcase.tsnDevice2.ipv4.ip packetDropAddressResolutionFailed:sum(packetBytes) 0
scalar OneMasterClockGptpShowcase.tsnDevice2.ipv4.ip packetDropHopLimitReached:count 0
scalar OneMasterClockGptpShowcase.tsnDevice2.ipv4.ip packetDropHopLimitReached:sum(packetBytes) 0
scalar OneMasterClockGptpShowcase.tsnDevice2.ipv4.ip packetDropForwardingDisabled:count 0
scalar OneMasterClockGptpShowcase.tsnDevice2.ipv4.ip packetDropForwardingDisabled:sum(packetBytes) 0
scalar OneMasterClockGptpShowcase.tsnDevice2.ipv4.ip packetDropLifetimeExpired:count 0
scalar OneMasterClockGptpShowcase.tsnDevice2.ipv4.ip packetDropLifetimeExpired:sum(packetBytes) 0
scalar OneMasterClockGptpShowcase.tsnDevice2.ipv4.ip packetDropNoInterfaceFound:count 0
scalar OneMasterClockGptpShowcase.tsnDevice2.ipv4.ip packetDropNoInterfaceFound:sum(packetBytes) 0
scalar OneMasterClockGptpShowcase.tsnDevice2.ipv4.ip packetDropNoRouteFound:count 0
scalar OneMasterClockGptpShowcase.tsnDevice2.ipv4.ip packetDropNoRouteFound:sum(packetBytes) 0
scalar OneMasterClockGptpShowcase.tsnDevice2.ipv4.ip packetDropUndefined:count 0
scalar OneMasterClockGptpShowcase.tsnDevice2.ipv4.ip packetDropUndefined:sum(packetBytes) 0
scalar OneMasterClockGptpShowcase.tsnDevice2.udp packetReceived:count 0
scalar OneMasterClockGptpShowcase.tsnDevice2.udp packetReceived:sum(packetBytes) 0
scalar OneMasterClockGptpShowcase.tsnDevice2.udp packetSent:count 0
scalar OneMasterClockGptpShowcase.tsnDevice2.udp packetSent:sum(packetBytes) 0
scalar OneMasterClockGptpShowcase.tsnDevice2.udp passedUpPk:count 0
scalar OneMasterClockGptpShowcase.tsnDevice2.udp droppedPkWrongPort:count 0
scalar OneMasterClockGptpShowcase.tsnDevice2.udp droppedPkBadChecksum:count 0
scalar OneMasterClockGptpShowcase.tsnDevice2.gptp packetDropNotAddressedToUs:count 0
scalar OneMasterClockGptpShowcase.tsnDevice2.gptp packetDropNotAddressedToUs:sum(packetBytes) 0
scalar OneMasterClockGptpShowcase.tsnClock.ethernet.macHeaderInserter outgoingPacketLengths:histogram:count 18
scalar OneMasterClockGptpShowcase.tsnClock.ethernet.macHeaderInserter outgoingPacketLengths:histogram:sumweights 18
scalar OneMasterClockGptpShowcase.tsnClock.ethernet.macHeaderInserter outgoingPacketLengths:histogram:mean 586.66666666666663
scalar OneMasterClockGptpShowcase.tsnClock.ethernet.macHeaderInserter outgoingPacketLengths:histogram:stddev 125.14462222000687
scalar OneMasterClockGptpShowcase.tsnClock.ethernet.macHeaderInserter outgoingPacketLengths:histogram:min 464
scalar OneMasterClockGptpShowcase.tsnClock.ethernet.macHeaderInserter outgoingPacketLengths:histogram:max 720
scalar OneMasterClockGptpShowcase.tsnClock.ethernet.macHeaderInserter outgoingPacketLengths:histogram:numbins 77
scalar OneMasterClockGptpShowcase.tsnClock.ethernet.macHeaderInserter outgoingPacketLengths:histogram:rangemin 400
scalar OneMasterClockGptpShowcase.tsnClock.ethernet.macHeaderInserter outgoingPacketLengths:histogram:rangemax 785
scalar OneMasterClockGptpShowcase.tsnClock.ethernet.macHeaderInserter outgoingPacketLengths:histogram:underflows 0
scalar OneMasterClockGptpShowcase.tsnClock.ethernet.macHeaderInserter outgoingPacketLengths:histogram:overflows 0
scalar OneMasterClockGptpShowcase.tsnClock.ethernet.macHeaderInserter flowOutgoingPacketLengths:histogram:count 0
scalar OneMasterClockGptpShowcase.tsnClock.ethernet.macHeaderInserter flowOutgoingPacketLengths:histogram:sumweights 0
scalar OneMasterClockGptpShowcase.tsnClock.ethernet.macHeaderInserter flowOutgoingPacketLengths:histogram:mean -nan
scalar OneMasterClockGptpShowcase.tsnClock.ethernet.macHeaderInserter flowOutgoingPacketLengths:histogram:stddev nan
scalar OneMasterClockGptpShowcase.tsnClock.ethernet.macHeaderInserter flowOutgoingPacketLengths:histogram:min nan
scalar OneMasterClockGptpShowcase.tsnClock.ethernet.macHeaderInserter flowOutgoingPacketLengths:histogram:max nan
scalar OneMasterClockGptpShowcase.tsnClock.ethernet.macHeaderInserter flowOutgoingPacketLengths:histogram:numbins 1
scalar OneMasterClockGptpShowcase.tsnClock.ethernet.macHeaderInserter flowOutgoingPacketLengths:histogram:rangemin 0
scalar OneMasterClockGptpShowcase.tsnClock.ethernet.macHeaderInserter flowOutgoingPacketLengths:histogram:rangemax 1
scalar OneMasterClockGptpShowcase.tsnClock.ethernet.macHeaderInserter flowOutgoingPacketLengths:histogram:underflows 0
scalar OneMasterClockGptpShowcase.tsnClock.ethernet.macHeaderInserter flowOutgoingPacketLengths:histogram:overflows 0
scalar OneMasterClockGptpShowcase.tsnClock.ethernet.macHeaderInserter incomingPacketLengths:histogram:count 18
scalar OneMasterClockGptpShowcase.tsnClock.ethernet.macHeaderInserter incomingPacketLengths:histogram:sumweights 18
scalar OneMasterClockGptpShowcase.tsnClock.ethernet.macHeaderInserter incomingPacketLengths:histogram:mean 474.66666666666669
scalar OneMasterClockGptpShowcase.tsnClock.ethernet.macHeaderInserter incomingPacketLengths:histogram:stddev 125.14462222000687
scalar OneMasterClockGptpShowcase.tsnClock.ethernet.macHeaderInserter incomingPacketLengths:histogram:min 352
scalar OneMasterClockGptpShowcase.tsnClock.ethernet.macHeaderInserter incomingPacketLengths:histogram:max 608
scalar OneMasterClockGptpShowcase.tsnClock.ethernet.macHeaderInserter incomingPacketLengths:histogram:numbins 78
scalar OneMasterClockGptpShowcase.tsnClock.ethernet.macHeaderInserter incomingPacketLengths:histogram:rangemin 285
scalar OneMasterClockGptpShowcase.tsnClock.ethernet.macHeaderInserter incomingPacketLengths:histogram:rangemax 675
scalar OneMasterClockGptpShowcase.tsnClock.ethernet.macHeaderInserter incomingPacketLengths:histogram:underflows 0
scalar OneMasterClockGptpShowcase.tsnClock.ethernet.macHeaderInserter incomingPacketLengths:histogram:overflows 0
scalar OneMasterClockGptpShowcase.tsnClock.ethernet.macHeaderInserter flowIncomingPacketLengths:histogram:count 0
scalar OneMasterClockGptpShowcase.tsnClock.ethernet.macHeaderInserter flowIncomingPacketLengths:histogram:sumweights 0
scalar OneMasterClockGptpShowcase.tsnClock.ethernet.macHeaderInserter flowIncomingPacketLengths:histogram:mean -nan
scalar OneMasterClockGptpShowcase.tsnClock.ethernet.macHeaderInserter flowIncomingPacketLengths:histogram:stddev nan
scalar OneMasterClockGptpShowcase.tsnClock.ethernet.macHeaderInserter flowIncomingPacketLengths:histogram:min nan
scalar OneMasterClockGptpShowcase.tsnClock.ethernet.macHeaderInserter flowIncomingPacketLengths:histogram:max nan
scalar OneMasterClockGptpShowcase.tsnClock.ethernet.macHeaderInserter flowIncomingPacketLengths:histogram:numbins 1
scalar OneMasterClockGptpShowcase.tsnClock.ethernet.macHeaderInserter flowIncomingPacketLengths:histogram:rangemin 0
scalar OneMasterClockGptpShowcase.tsnClock.ethernet.macHeaderInserter flowIncomingPacketLengths:histogram:rangemax 1
scalar OneMasterClockGptpShowcase.tsnClock.ethernet.macHeaderInserter flowIncomingPacketLengths:histogram:underflows 0
scalar OneMasterClockGptpShowcase.tsnClock.ethernet.macHeaderInserter flowIncomingPacketLengths:histogram:overflows 0
scalar OneMasterClockGptpShowcase.tsnClock.ethernet.paddingInserter outgoingPacketLengths:histogram:count 18
scalar OneMasterClockGptpShowcase.tsnClock.ethernet.paddingInserter outgoingPacketLengths:histogram:sumweights 18
scalar OneMasterClockGptpShowcase.tsnClock.ethernet.paddingInserter outgoingPacketLengths:histogram:mean 593.77777777777783
scalar OneMasterClockGptpShowcase.tsnClock.ethernet.paddingInserter outgoingPacketLengths:histogram:stddev 117.81718418333075
scalar OneMasterClockGptpShowcase.tsnClock.ethernet.paddingInserter outgoingPacketLengths:histogram:min 480
scalar OneMasterClockGptpShowcase.tsnClock.ethernet.paddingInserter outgoingPacketLengths:histogram:max 720
scalar OneMasterClockGptpShowcase.tsnClock.ethernet.paddingInserter outgoingPacketLengths:histogram:numbins 72
scalar OneMasterClockGptpShowcase.tsnClock.ethernet.paddingInserter outgoingPacketLengths:histogram:rangemin 420
scalar OneMasterClockGptpShowcase.tsnClock.ethernet.paddingInserter outgoingPacketLengths:histogram:rangemax 780
scalar OneMasterClockGptpShowcase.tsnClock.ethernet.paddingInserter outgoingPacketLengths:histogram:underflows 0
scalar OneMasterClockGptpShowcase.tsnClock.ethernet.paddingInserter outgoingPacketLengths:histogram:overflows 0
scalar OneMasterClockGptpShowcase.tsnClock.ethernet.paddingInserter flowOutgoingPacketLengths:histogram:count 0
scalar OneMasterClockGptpShowcase.tsnClock.ethernet.paddingInserter flowOutgoingPacketLengths:histogram:sumweights 0
scalar OneMasterClockGptpShowcase.tsnClock.ethernet.paddingInserter flowOutgoingPacketLengths:histogram:mean -nan
scalar OneMasterClockGptpShowcase.tsnClock.ethernet.paddingInserter flowOutgoingPacketLengths:histogram:stddev nan
scalar OneMasterClockGptpShowcase.tsnClock.ethernet.paddingInserter flowOutgoingPacketLengths:histogram:min nan
scalar OneMasterClockGptpShowcase.tsnClock.ethernet.paddingInserter flowOutgoingPacketLengths:histogram:max nan
scalar OneMasterClockGptpShowcase.tsnClock.ethernet.paddingInserter flowOutgoingPacketLengths:histogram:numbins 1
scalar OneMasterClockGptpShowcase.tsnClock.ethernet.paddingInserter flowOutgoingPacketLengths:histogram:rangemin 0
scalar OneMasterClockGptpShowcase.tsnClock.ethernet.paddingInserter flowOutgoingPacketLengths:histogram:rangemax 1
scalar OneMasterClockGptpShowcase.tsnClock.ethernet.paddingInserter flowOutgoingPacketLengths:histogram:underflows 0
scalar OneMasterClockGptpShowcase.tsnClock.ethernet.paddingInserter flowOutgoingPacketLengths:histogram:overflows 0
scalar OneMasterClockGptpShowcase.tsnClock.ethernet.paddingInserter incomingPacketLengths:histogram:count 18
scalar OneMasterClockGptpShowcase.tsnClock.ethernet.paddingInserter incomingPacketLengths:histogram:sumweights 18
scalar OneMasterClockGptpShowcase.tsnClock.ethernet.paddingInserter incomingPacketLengths:histogram:mean 586.66666666666663
scalar OneMasterClockGptpShowcase.tsnClock.ethernet.paddingInserter incomingPacketLengths:histogram:stddev 125.14462222000687
scalar OneMasterClockGptpShowcase.tsnClock.ethernet.paddingInserter incomingPacketLengths:histogram:min 464
scalar OneMasterClockGptpShowcase.tsnClock.ethernet.paddingInserter incomingPacketLengths:histogram:max 720
scalar OneMasterClockGptpShowcase.tsnClock.ethernet.paddingInserter incomingPacketLengths:histogram:numbins 77
scalar OneMasterClockGptpShowcase.tsnClock.ethernet.paddingInserter incomingPacketLengths:histogram:rangemin 400
scalar OneMasterClockGptpShowcase.tsnClock.ethernet.paddingInserter incomingPacketLengths:histogram:rangemax 785
[...]
scalar OneMasterClockGptpShowcase.tsnDevice2.eth[0].phyLayer.inboundEmitter flowOutgoingDataRate:vector:sum 0
scalar OneMasterClockGptpShowcase.tsnDevice2.eth[0].phyLayer.inboundEmitter flowOutgoingDataRate:vector:sumweights 10
scalar OneMasterClockGptpShowcase.tsnDevice2.eth[0].phyLayer.inboundEmitter flowOutgoingDataRate:vector:mean 0
scalar OneMasterClockGptpShowcase.tsnDevice2.eth[0].phyLayer.inboundEmitter flowOutgoingDataRate:vector:stddev 0
scalar OneMasterClockGptpShowcase.tsnDevice2.eth[0].phyLayer.inboundEmitter flowOutgoingDataRate:vector:min 0
scalar OneMasterClockGptpShowcase.tsnDevice2.eth[0].phyLayer.inboundEmitter flowOutgoingDataRate:vector:max 0
scalar OneMasterClockGptpShowcase.tsnDevice2.eth[0].phyLayer.inboundEmitter flowOutgoingDataRate:vector:starttime 0.10000000000000001
scalar OneMasterClockGptpShowcase.tsnDevice2.eth[0].phyLayer.inboundEmitter flowOutgoingDataRate:vector:endtime 1
scalar OneMasterClockGptpShowcase.tsnDevice2.eth[0].phyLayer.receiver throughput:vector:count 10
scalar OneMasterClockGptpShowcase.tsnDevice2.eth[0].phyLayer.receiver throughput:vector:sum 116640
scalar OneMasterClockGptpShowcase.tsnDevice2.eth[0].phyLayer.receiver throughput:vector:sumweights 10
scalar OneMasterClockGptpShowcase.tsnDevice2.eth[0].phyLayer.receiver throughput:vector:mean 11664
scalar OneMasterClockGptpShowcase.tsnDevice2.eth[0].phyLayer.receiver throughput:vector:stddev 4722.0033413325273
scalar OneMasterClockGptpShowcase.tsnDevice2.eth[0].phyLayer.receiver throughput:vector:min 0
scalar OneMasterClockGptpShowcase.tsnDevice2.eth[0].phyLayer.receiver throughput:vector:max 13920
scalar OneMasterClockGptpShowcase.tsnDevice2.eth[0].phyLayer.receiver throughput:vector:starttime 0.10000000000000001
scalar OneMasterClockGptpShowcase.tsnDevice2.eth[0].phyLayer.receiver throughput:vector:endtime 1
scalar OneMasterClockGptpShowcase.tsnDevice2.eth[0].phyLayer.receiver receptionTime:vector:count 17
scalar OneMasterClockGptpShowcase.tsnDevice2.eth[0].phyLayer.receiver receptionTime:vector:sum 0.00011664000000000002
scalar OneMasterClockGptpShowcase.tsnDevice2.eth[0].phyLayer.receiver receptionTime:vector:sumweights 17
scalar OneMasterClockGptpShowcase.tsnDevice2.eth[0].phyLayer.receiver receptionTime:vector:mean 6.8611764705882365e-06
scalar OneMasterClockGptpShowcase.tsnDevice2.eth[0].phyLayer.receiver receptionTime:vector:stddev 1.1438634225342443e-06
scalar OneMasterClockGptpShowcase.tsnDevice2.eth[0].phyLayer.receiver receptionTime:vector:min 5.7600000000000008e-06
scalar OneMasterClockGptpShowcase.tsnDevice2.eth[0].phyLayer.receiver receptionTime:vector:max 8.1599999999999998e-06
scalar OneMasterClockGptpShowcase.tsnDevice2.eth[0].phyLayer.receiver receptionTime:vector:starttime 1.2900000000000004e-05
scalar OneMasterClockGptpShowcase.tsnDevice2.eth[0].phyLayer.receiver receptionTime:vector:endtime 0.99999830734503015
scalar OneMasterClockGptpShowcase.tsnDevice2.eth[0].phyLayer.receiver flowReceptionTime:vector:count 0
scalar OneMasterClockGptpShowcase.tsnDevice2.eth[0].phyLayer.receiver flowReceptionTime:vector:sum 0
scalar OneMasterClockGptpShowcase.tsnDevice2.eth[0].phyLayer.receiver flowReceptionTime:vector:sumweights 0
scalar OneMasterClockGptpShowcase.tsnDevice2.eth[0].phyLayer.receiver flowReceptionTime:vector:mean -nan
scalar OneMasterClockGptpShowcase.tsnDevice2.eth[0].phyLayer.receiver flowReceptionTime:vector:stddev nan
scalar OneMasterClockGptpShowcase.tsnDevice2.eth[0].phyLayer.receiver flowReceptionTime:vector:min inf
scalar OneMasterClockGptpShowcase.tsnDevice2.eth[0].phyLayer.receiver flowReceptionTime:vector:max -inf
scalar OneMasterClockGptpShowcase.tsnDevice2.eth[0].phyLayer.receiver flowReceptionTime:vector:starttime nan
scalar OneMasterClockGptpShowcase.tsnDevice2.eth[0].phyLayer.receiver flowReceptionTime:vector:endtime nan
scalar OneMasterClockGptpShowcase.tsnDevice2.eth[0] packetDropInterfaceDown:vector(packetBytes):count 0
scalar OneMasterClockGptpShowcase.tsnDevice2.eth[0] packetDropInterfaceDown:vector(packetBytes):sum 0
scalar OneMasterClockGptpShowcase.tsnDevice2.eth[0] packetDropInterfaceDown:vector(packetBytes):sumweights 0
scalar OneMasterClockGptpShowcase.tsnDevice2.eth[0] packetDropInterfaceDown:vector(packetBytes):mean -nan
scalar OneMasterClockGptpShowcase.tsnDevice2.eth[0] packetDropInterfaceDown:vector(packetBytes):stddev nan
scalar OneMasterClockGptpShowcase.tsnDevice2.eth[0] packetDropInterfaceDown:vector(packetBytes):min inf
scalar OneMasterClockGptpShowcase.tsnDevice2.eth[0] packetDropInterfaceDown:vector(packetBytes):max -inf
scalar OneMasterClockGptpShowcase.tsnDevice2.eth[0] packetDropInterfaceDown:vector(packetBytes):starttime nan
scalar OneMasterClockGptpShowcase.tsnDevice2.eth[0] packetDropInterfaceDown:vector(packetBytes):endtime nan
scalar OneMasterClockGptpShowcase.tsnDevice2.eth[0] packetDropNoCarrier:vector(packetBytes):count 0
scalar OneMasterClockGptpShowcase.tsnDevice2.eth[0] packetDropNoCarrier:vector(packetBytes):sum 0
scalar OneMasterClockGptpShowcase.tsnDevice2.eth[0] packetDropNoCarrier:vector(packetBytes):sumweights 0
scalar OneMasterClockGptpShowcase.tsnDevice2.eth[0] packetDropNoCarrier:vector(packetBytes):mean -nan
scalar OneMasterClockGptpShowcase.tsnDevice2.eth[0] packetDropNoCarrier:vector(packetBytes):stddev nan
scalar OneMasterClockGptpShowcase.tsnDevice2.eth[0] packetDropNoCarrier:vector(packetBytes):min inf
scalar OneMasterClockGptpShowcase.tsnDevice2.eth[0] packetDropNoCarrier:vector(packetBytes):max -inf
scalar OneMasterClockGptpShowcase.tsnDevice2.eth[0] packetDropNoCarrier:vector(packetBytes):starttime nan
scalar OneMasterClockGptpShowcase.tsnDevice2.eth[0] packetDropNoCarrier:vector(packetBytes):endtime nan
scalar OneMasterClockGptpShowcase.tsnDevice2.ipv4.ip packetDropAddressResolutionFailed:vector(packetBytes):count 0
scalar OneMasterClockGptpShowcase.tsnDevice2.ipv4.ip packetDropAddressResolutionFailed:vector(packetBytes):sum 0
scalar OneMasterClockGptpShowcase.tsnDevice2.ipv4.ip packetDropAddressResolutionFailed:vector(packetBytes):sumweights 0
scalar OneMasterClockGptpShowcase.tsnDevice2.ipv4.ip packetDropAddressResolutionFailed:vector(packetBytes):mean -nan
scalar OneMasterClockGptpShowcase.tsnDevice2.ipv4.ip packetDropAddressResolutionFailed:vector(packetBytes):stddev nan
scalar OneMasterClockGptpShowcase.tsnDevice2.ipv4.ip packetDropAddressResolutionFailed:vector(packetBytes):min inf
scalar OneMasterClockGptpShowcase.tsnDevice2.ipv4.ip packetDropAddressResolutionFailed:vector(packetBytes):max -inf
scalar OneMasterClockGptpShowcase.tsnDevice2.ipv4.ip packetDropAddressResolutionFailed:vector(packetBytes):starttime nan
scalar OneMasterClockGptpShowcase.tsnDevice2.ipv4.ip packetDropAddressResolutionFailed:vector(packetBytes):endtime nan
scalar OneMasterClockGptpShowcase.tsnDevice2.ipv4.ip packetDropHopLimitReached:vector(packetBytes):count 0
scalar OneMasterClockGptpShowcase.tsnDevice2.ipv4.ip packetDropHopLimitReached:vector(packetBytes):sum 0
scalar OneMasterClockGptpShowcase.tsnDevice2.ipv4.ip packetDropHopLimitReached:vector(packetBytes):sumweights 0
scalar OneMasterClockGptpShowcase.tsnDevice2.ipv4.ip packetDropHopLimitReached:vector(packetBytes):mean -nan
scalar OneMasterClockGptpShowcase.tsnDevice2.ipv4.ip packetDropHopLimitReached:vector(packetBytes):stddev nan
scalar OneMasterClockGptpShowcase.tsnDevice2.ipv4.ip packetDropHopLimitReached:vector(packetBytes):min inf
scalar OneMasterClockGptpShowcase.tsnDevice2.ipv4.ip packetDropHopLimitReached:vector(packetBytes):max -inf
scalar OneMasterClockGptpShowcase.tsnDevice2.ipv4.ip packetDropHopLimitReached:vector(packetBytes):starttime nan
scalar OneMasterClockGptpShowcase.tsnDevice2.ipv4.ip packetDropHopLimitReached:vector(packetBytes):endtime nan
scalar OneMasterClockGptpShowcase.tsnDevice2.ipv4.ip packetDropForwardingDisabled:vector(packetBytes):count 0
scalar OneMasterClockGptpShowcase.tsnDevice2.ipv4.ip packetDropForwardingDisabled:vector(packetBytes):sum 0
scalar OneMasterClockGptpShowcase.tsnDevice2.ipv4.ip packetDropForwardingDisabled:vector(packetBytes):sumweights 0
scalar OneMasterClockGptpShowcase.tsnDevice2.ipv4.ip packetDropForwardingDisabled:vector(packetBytes):mean -nan
scalar OneMasterClockGptpShowcase.tsnDevice2.ipv4.ip packetDropForwardingDisabled:vector(packetBytes):stddev nan
scalar OneMasterClockGptpShowcase.tsnDevice2.ipv4.ip packetDropForwardingDisabled:vector(packetBytes):min inf
scalar OneMasterClockGptpShowcase.tsnDevice2.ipv4.ip packetDropForwardingDisabled:vector(packetBytes):max -inf
scalar OneMasterClockGptpShowcase.tsnDevice2.ipv4.ip packetDropForwardingDisabled:vector(packetBytes):starttime nan
scalar OneMasterClockGptpShowcase.tsnDevice2.ipv4.ip packetDropForwardingDisabled:vector(packetBytes):endtime nan
scalar OneMasterClockGptpShowcase.tsnDevice2.ipv4.ip packetDropLifetimeExpired:vector(packetBytes):count 0
scalar OneMasterClockGptpShowcase.tsnDevice2.ipv4.ip packetDropLifetimeExpired:vector(packetBytes):sum 0
scalar OneMasterClockGptpShowcase.tsnDevice2.ipv4.ip packetDropLifetimeExpired:vector(packetBytes):sumweights 0
scalar OneMasterClockGptpShowcase.tsnDevice2.ipv4.ip packetDropLifetimeExpired:vector(packetBytes):mean -nan
scalar OneMasterClockGptpShowcase.tsnDevice2.ipv4.ip packetDropLifetimeExpired:vector(packetBytes):stddev nan
scalar OneMasterClockGptpShowcase.tsnDevice2.ipv4.ip packetDropLifetimeExpired:vector(packetBytes):min inf
scalar OneMasterClockGptpShowcase.tsnDevice2.ipv4.ip packetDropLifetimeExpired:vector(packetBytes):max -inf
scalar OneMasterClockGptpShowcase.tsnDevice2.ipv4.ip packetDropLifetimeExpired:vector(packetBytes):starttime nan
scalar OneMasterClockGptpShowcase.tsnDevice2.ipv4.ip packetDropLifetimeExpired:vector(packetBytes):endtime nan
scalar OneMasterClockGptpShowcase.tsnDevice2.ipv4.ip packetDropNoInterfaceFound:vector(packetBytes):count 0
scalar OneMasterClockGptpShowcase.tsnDevice2.ipv4.ip packetDropNoInterfaceFound:vector(packetBytes):sum 0
scalar OneMasterClockGptpShowcase.tsnDevice2.ipv4.ip packetDropNoInterfaceFound:vector(packetBytes):sumweights 0
scalar OneMasterClockGptpShowcase.tsnDevice2.ipv4.ip packetDropNoInterfaceFound:vector(packetBytes):mean -nan
scalar OneMasterClockGptpShowcase.tsnDevice2.ipv4.ip packetDropNoInterfaceFound:vector(packetBytes):stddev nan
scalar OneMasterClockGptpShowcase.tsnDevice2.ipv4.ip packetDropNoInterfaceFound:vector(packetBytes):min inf
scalar OneMasterClockGptpShowcase.tsnDevice2.ipv4.ip packetDropNoInterfaceFound:vector(packetBytes):max -inf
scalar OneMasterClockGptpShowcase.tsnDevice2.ipv4.ip packetDropNoInterfaceFound:vector(packetBytes):starttime nan
scalar OneMasterClockGptpShowcase.tsnDevice2.ipv4.ip packetDropNoInterfaceFound:vector(packetBytes):endtime nan
scalar OneMasterClockGptpShowcase.tsnDevice2.ipv4.ip packetDropNoRouteFound:vector(packetBytes):count 0
scalar OneMasterClockGptpShowcase.tsnDevice2.ipv4.ip packetDropNoRouteFound:vector(packetBytes):sum 0
scalar OneMasterClockGptpShowcase.tsnDevice2.ipv4.ip packetDropNoRouteFound:vector(packetBytes):sumweights 0
scalar OneMasterClockGptpShowcase.tsnDevice2.ipv4.ip packetDropNoRouteFound:vector(packetBytes):mean -nan
scalar OneMasterClockGptpShowcase.tsnDevice2.ipv4.ip packetDropNoRouteFound:vector(packetBytes):stddev nan
scalar OneMasterClockGptpShowcase.tsnDevice2.ipv4.ip packetDropNoRouteFound:vector(packetBytes):min inf
scalar OneMasterClockGptpShowcase.tsnDevice2.ipv4.ip packetDropNoRouteFound:vector(packetBytes):max -inf
scalar OneMasterClockGptpShowcase.tsnDevice2.ipv4.ip packetDropNoRouteFound:vector(packetBytes):starttime nan
scalar OneMasterClockGptpShowcase.tsnDevice2.ipv4.ip packetDropNoRouteFound:vector(packetBytes):endtime nan
scalar OneMasterClockGptpShowcase.tsnDevice2.ipv4.ip packetDropUndefined:vector(packetBytes):count 0
scalar OneMasterClockGptpShowcase.tsnDevice2.ipv4.ip packetDropUndefined:vector(packetBytes):sum 0
scalar OneMasterClockGptpShowcase.tsnDevice2.ipv4.ip packetDropUndefined:vector(packetBytes):sumweights 0
scalar OneMasterClockGptpShowcase.tsnDevice2.ipv4.ip packetDropUndefined:vector(packetBytes):mean -nan
scalar OneMasterClockGptpShowcase.tsnDevice2.ipv4.ip packetDropUndefined:vector(packetBytes):stddev nan
scalar OneMasterClockGptpShowcase.tsnDevice2.ipv4.ip packetDropUndefined:vector(packetBytes):min inf
scalar OneMasterClockGptpShowcase.tsnDevice2.ipv4.ip packetDropUndefined:vector(packetBytes):max -inf
scalar OneMasterClockGptpShowcase.tsnDevice2.ipv4.ip packetDropUndefined:vector(packetBytes):starttime nan
scalar OneMasterClockGptpShowcase.tsnDevice2.ipv4.ip packetDropUndefined:vector(packetBytes):endtime nan
scalar OneMasterClockGptpShowcase.tsnDevice2.udp packetSent:vector(packetBytes):count 0
scalar OneMasterClockGptpShowcase.tsnDevice2.udp packetSent:vector(packetBytes):sum 0
scalar OneMasterClockGptpShowcase.tsnDevice2.udp packetSent:vector(packetBytes):sumweights 0
scalar OneMasterClockGptpShowcase.tsnDevice2.udp packetSent:vector(packetBytes):mean -nan
scalar OneMasterClockGptpShowcase.tsnDevice2.udp packetSent:vector(packetBytes):stddev nan
scalar OneMasterClockGptpShowcase.tsnDevice2.udp packetSent:vector(packetBytes):min inf
scalar OneMasterClockGptpShowcase.tsnDevice2.udp packetSent:vector(packetBytes):max -inf
scalar OneMasterClockGptpShowcase.tsnDevice2.udp packetSent:vector(packetBytes):starttime nan
scalar OneMasterClockGptpShowcase.tsnDevice2.udp packetSent:vector(packetBytes):endtime nan
scalar OneMasterClockGptpShowcase.tsnDevice2.udp packetReceived:vector(packetBytes):count 0
scalar OneMasterClockGptpShowcase.tsnDevice2.udp packetReceived:vector(packetBytes):sum 0
scalar OneMasterClockGptpShowcase.tsnDevice2.udp packetReceived:vector(packetBytes):sumweights 0
scalar OneMasterClockGptpShowcase.tsnDevice2.udp packetReceived:vector(packetBytes):mean -nan
scalar OneMasterClockGptpShowcase.tsnDevice2.udp packetReceived:vector(packetBytes):stddev nan
scalar OneMasterClockGptpShowcase.tsnDevice2.udp packetReceived:vector(packetBytes):min inf
scalar OneMasterClockGptpShowcase.tsnDevice2.udp packetReceived:vector(packetBytes):max -inf
scalar OneMasterClockGptpShowcase.tsnDevice2.udp packetReceived:vector(packetBytes):starttime nan
scalar OneMasterClockGptpShowcase.tsnDevice2.udp packetReceived:vector(packetBytes):endtime nan
scalar OneMasterClockGptpShowcase.tsnDevice2.udp passedUpPk:vector(count):count 1
scalar OneMasterClockGptpShowcase.tsnDevice2.udp passedUpPk:vector(count):sum 0
scalar OneMasterClockGptpShowcase.tsnDevice2.udp passedUpPk:vector(count):sumweights 1
scalar OneMasterClockGptpShowcase.tsnDevice2.udp passedUpPk:vector(count):mean 0
scalar OneMasterClockGptpShowcase.tsnDevice2.udp passedUpPk:vector(count):stddev nan
scalar OneMasterClockGptpShowcase.tsnDevice2.udp passedUpPk:vector(count):min 0
scalar OneMasterClockGptpShowcase.tsnDevice2.udp passedUpPk:vector(count):max 0
scalar OneMasterClockGptpShowcase.tsnDevice2.udp passedUpPk:vector(count):starttime 0
scalar OneMasterClockGptpShowcase.tsnDevice2.udp passedUpPk:vector(count):endtime 0
scalar OneMasterClockGptpShowcase.tsnDevice2.udp droppedPkWrongPort:vector(count):count 1
scalar OneMasterClockGptpShowcase.tsnDevice2.udp droppedPkWrongPort:vector(count):sum 0
scalar OneMasterClockGptpShowcase.tsnDevice2.udp droppedPkWrongPort:vector(count):sumweights 1
scalar OneMasterClockGptpShowcase.tsnDevice2.udp droppedPkWrongPort:vector(count):mean 0
scalar OneMasterClockGptpShowcase.tsnDevice2.udp droppedPkWrongPort:vector(count):stddev nan
scalar OneMasterClockGptpShowcase.tsnDevice2.udp droppedPkWrongPort:vector(count):min 0
scalar OneMasterClockGptpShowcase.tsnDevice2.udp droppedPkWrongPort:vector(count):max 0
scalar OneMasterClockGptpShowcase.tsnDevice2.udp droppedPkWrongPort:vector(count):starttime 0
scalar OneMasterClockGptpShowcase.tsnDevice2.udp droppedPkWrongPort:vector(count):endtime 0
scalar OneMasterClockGptpShowcase.tsnDevice2.udp droppedPkBadChecksum:vector(count):count 1
scalar OneMasterClockGptpShowcase.tsnDevice2.udp droppedPkBadChecksum:vector(count):sum 0
scalar OneMasterClockGptpShowcase.tsnDevice2.udp droppedPkBadChecksum:vector(count):sumweights 1
scalar OneMasterClockGptpShowcase.tsnDevice2.udp droppedPkBadChecksum:vector(count):mean 0
scalar OneMasterClockGptpShowcase.tsnDevice2.udp droppedPkBadChecksum:vector(count):stddev nan
scalar OneMasterClockGptpShowcase.tsnDevice2.udp droppedPkBadChecksum:vector(count):min 0
scalar OneMasterClockGptpShowcase.tsnDevice2.udp droppedPkBadChecksum:vector(count):max 0
scalar OneMasterClockGptpShowcase.tsnDevice2.udp droppedPkBadChecksum:vector(count):starttime 0
scalar OneMasterClockGptpShowcase.tsnDevice2.udp droppedPkBadChecksum:vector(count):endtime 0
scalar OneMasterClockGptpShowcase.tsnDevice2.gptp gmRateRatio:vector:count 6
scalar OneMasterClockGptpShowcase.tsnDevice2.gptp gmRateRatio:vector:sum 5.9997726484749823
scalar OneMasterClockGptpShowcase.tsnDevice2.gptp gmRateRatio:vector:sumweights 6
scalar OneMasterClockGptpShowcase.tsnDevice2.gptp gmRateRatio:vector:mean 0.99996210807916375
scalar OneMasterClockGptpShowcase.tsnDevice2.gptp gmRateRatio:vector:stddev 2.167143245770875e-06
scalar OneMasterClockGptpShowcase.tsnDevice2.gptp gmRateRatio:vector:min 0.99995944130669256
scalar OneMasterClockGptpShowcase.tsnDevice2.gptp gmRateRatio:vector:max 0.99996464127630846
scalar OneMasterClockGptpShowcase.tsnDevice2.gptp gmRateRatio:vector:starttime 0.25002262726235602
scalar OneMasterClockGptpShowcase.tsnDevice2.gptp gmRateRatio:vector:endtime 0.8750191056288511
scalar OneMasterClockGptpShowcase.tsnDevice2.gptp neighborRateRatio:vector:count 0
scalar OneMasterClockGptpShowcase.tsnDevice2.gptp neighborRateRatio:vector:sum 0
scalar OneMasterClockGptpShowcase.tsnDevice2.gptp neighborRateRatio:vector:sumweights 0
scalar OneMasterClockGptpShowcase.tsnDevice2.gptp neighborRateRatio:vector:mean -nan
scalar OneMasterClockGptpShowcase.tsnDevice2.gptp neighborRateRatio:vector:stddev nan
scalar OneMasterClockGptpShowcase.tsnDevice2.gptp neighborRateRatio:vector:min inf
scalar OneMasterClockGptpShowcase.tsnDevice2.gptp neighborRateRatio:vector:max -inf
scalar OneMasterClockGptpShowcase.tsnDevice2.gptp neighborRateRatio:vector:starttime nan
scalar OneMasterClockGptpShowcase.tsnDevice2.gptp neighborRateRatio:vector:endtime nan
scalar OneMasterClockGptpShowcase.tsnDevice2.gptp pdelay:vector:count 1
scalar OneMasterClockGptpShowcase.tsnDevice2.gptp pdelay:vector:sum 5.0000000000000004e-08
scalar OneMasterClockGptpShowcase.tsnDevice2.gptp pdelay:vector:sumweights 1
scalar OneMasterClockGptpShowcase.tsnDevice2.gptp pdelay:vector:mean 5.0000000000000004e-08
scalar OneMasterClockGptpShowcase.tsnDevice2.gptp pdelay:vector:stddev nan
scalar OneMasterClockGptpShowcase.tsnDevice2.gptp pdelay:vector:min 5.0000000000000004e-08
scalar OneMasterClockGptpShowcase.tsnDevice2.gptp pdelay:vector:max 5.0000000000000004e-08
scalar OneMasterClockGptpShowcase.tsnDevice2.gptp pdelay:vector:starttime 2.0260000000000003e-05
scalar OneMasterClockGptpShowcase.tsnDevice2.gptp pdelay:vector:endtime 2.0260000000000003e-05
scalar OneMasterClockGptpShowcase.tsnDevice2.gptp packetDropNotAddressedToUs:vector(packetBytes):count 0
scalar OneMasterClockGptpShowcase.tsnDevice2.gptp packetDropNotAddressedToUs:vector(packetBytes):sum 0
scalar OneMasterClockGptpShowcase.tsnDevice2.gptp packetDropNotAddressedToUs:vector(packetBytes):sumweights 0
scalar OneMasterClockGptpShowcase.tsnDevice2.gptp packetDropNotAddressedToUs:vector(packetBytes):mean -nan
scalar OneMasterClockGptpShowcase.tsnDevice2.gptp packetDropNotAddressedToUs:vector(packetBytes):stddev nan
scalar OneMasterClockGptpShowcase.tsnDevice2.gptp packetDropNotAddressedToUs:vector(packetBytes):min inf
scalar OneMasterClockGptpShowcase.tsnDevice2.gptp packetDropNotAddressedToUs:vector(packetBytes):max -inf
scalar OneMasterClockGptpShowcase.tsnDevice2.gptp packetDropNotAddressedToUs:vector(packetBytes):starttime nan
scalar OneMasterClockGptpShowcase.tsnDevice2.gptp packetDropNotAddressedToUs:vector(packetBytes):endtime nan

