version 3
run OneMasterClock-0-20230426-14:57:39-203859
attr configname OneMasterClock
attr datetime 20230426-14:57:39
attr datetimef 20230426-145739
attr description "Basic tree topology with one master clock"
attr experiment OneMasterClock
attr inifile omnetpp.ini
attr iterationvars ""
attr iterationvarsd ""
attr iterationvarsf ""
attr measurement ""
attr network OneMasterClockGptpShowcase
attr processid 203859
attr repetition 0
attr replication #0
attr resultdir results.omnetpp.ini_OneMasterClock_0
attr runnumber 0
attr seedset 0
config **.param-recording false
config **.vector-recording false
config image-path /home/levy/workspace/inet/images
config result-dir results.omnetpp.ini_OneMasterClock_0
config sim-time-limit 1s
config network OneMasterClockGptpShowcase
config description "Basic tree topology with one master clock"
config *.tsnClock.gptp.masterPorts "[\"eth0\"]"
config *.tsnSwitch.gptp.masterPorts "[\"eth1\", \"eth2\"]"
config **.referenceClock "\"tsnClock.clock\""
config *.visualizer.dataLinkVisualizer[0].displayLinks true
config *.visualizer.dataLinkVisualizer[0].activityLevel "\"protocol\""
config *.visualizer.dataLinkVisualizer[0].packetFilter "\"GptpSync\""
config *.visualizer.dataLinkVisualizer[0].lineColor "\"blue2\""
config *.visualizer.numInfoVisualizers 3
config *.visualizer.infoVisualizer[0].modules "\"*.tsnClock.clock\""
config *.tsnClock.clock.displayStringTextFormat "\"time: %T\""
config *.visualizer.infoVisualizer[1].modules "\"*.tsnSwitch.clock\""
config *.visualizer.infoVisualizer[1].placementHint "\"topLeft\""
config *.visualizer.infoVisualizer[2].modules "\"*.tsnDevice*.clock\""
config *.visualizer.infoVisualizer[2].placementHint "\"bottom\""
config *.tsnDevice*.clock.displayStringTextFormat "\"diff: %d\""
config *.tsnSwitch.clock.displayStringTextFormat "\"diff: %d\""
config sim-time-limit 1s
config description abstract
config *.*.hasTimeSynchronization true
config **.tsnClock*.clock.oscillator.typename RandomDriftOscillator
config **.oscillator.changeInterval 12.5ms
config **.oscillator.driftRate "uniform(-100ppm, 100ppm)"
config **.oscillator.driftRateChange "uniform(-1ppm, 1ppm)"
config **.oscillator.driftRateChangeUpperLimit 100ppm
config **.oscillator.driftRateChangeLowerLimit -100ppm
config *.*.eth[*].bitrate 100Mbps
config *.visualizer.typename IntegratedMultiCanvasVisualizer
config *.visualizer.infoVisualizer[*].displayInfos true

scalar OneMasterClockGptpShowcase.tsnClock.ethernet.macHeaderInserter outgoingPackets:count 17
attr recordingmode count
attr source "merge(packetPushedOut, packetPulledOut)"
attr title "outgoing packets, count"
attr unit pk
scalar OneMasterClockGptpShowcase.tsnClock.ethernet.macHeaderInserter outgoingPacketLengths:sum 9840
attr interpolationmode none
attr recordingmode sum
attr source "packetLength(merge(packetPushedOut, packetPulledOut))"
attr title "outgoing packet lengths, sum"
attr unit b
statistic OneMasterClockGptpShowcase.tsnClock.ethernet.macHeaderInserter outgoingPacketLengths:histogram
field count 17
field mean 578.82352941176
field stddev 124.35244031287
field min 464
field max 720
field sum 9840
field sqrsum 5943040
attr interpolationmode none
attr recordingmode histogram
attr source "packetLength(merge(packetPushedOut, packetPulledOut))"
attr title "outgoing packet lengths"
attr unit b
bin	-inf	0
bin	400	0
bin	405	0
bin	410	0
bin	415	0
bin	420	0
bin	425	0
bin	430	0
bin	435	0
bin	440	0
bin	445	0
bin	450	0
bin	455	0
bin	460	8
bin	465	0
bin	470	0
bin	475	0
bin	480	0
bin	485	0
bin	490	0
bin	495	0
bin	500	0
bin	505	0
bin	510	0
bin	515	0
bin	520	0
bin	525	0
bin	530	0
bin	535	0
bin	540	2
bin	545	0
bin	550	0
bin	555	0
bin	560	0
bin	565	0
bin	570	0
bin	575	0
bin	580	0
bin	585	0
bin	590	0
bin	595	0
bin	600	0
bin	605	0
bin	610	0
bin	615	0
bin	620	0
bin	625	0
bin	630	0
bin	635	0
bin	640	0
bin	645	0
bin	650	0
bin	655	0
bin	660	0
bin	665	0
bin	670	0
bin	675	0
bin	680	0
bin	685	0
bin	690	0
bin	695	0
bin	700	0
bin	705	0
bin	710	0
bin	715	0
bin	720	7
bin	725	0
bin	730	0
bin	735	0
bin	740	0
bin	745	0
bin	750	0
bin	755	0
bin	760	0
bin	765	0
bin	770	0
bin	775	0
bin	780	0
bin	785	0
scalar OneMasterClockGptpShowcase.tsnClock.ethernet.macHeaderInserter flowOutgoingPacketLengths:sum 0
attr interpolationmode none
attr recordingmode sum
attr source "packetLength(demuxFlow(merge(packetPushedOut, packetPulledOut)))"
attr title "flow specific outgoing packet lengths, sum"
attr unit b
statistic OneMasterClockGptpShowcase.tsnClock.ethernet.macHeaderInserter flowOutgoingPacketLengths:histogram
field count 0
field mean -nan
field stddev nan
field min nan
field max nan
field sum 0
field sqrsum 0
attr interpolationmode none
attr recordingmode histogram
attr source "packetLength(demuxFlow(merge(packetPushedOut, packetPulledOut)))"
attr title "flow specific outgoing packet lengths"
attr unit b
bin	-inf	0
bin	0	0
bin	1	0
scalar OneMasterClockGptpShowcase.tsnClock.ethernet.macHeaderInserter incomingPackets:count 17
attr recordingmode count
attr source "merge(packetPushedIn, packetPulledIn)"
attr title "incoming packets, count"
attr unit pk
scalar OneMasterClockGptpShowcase.tsnClock.ethernet.macHeaderInserter incomingPacketLengths:sum 7936
attr interpolationmode none
attr recordingmode sum
attr source "packetLength(merge(packetPushedIn, packetPulledIn))"
attr title "incoming packet lengths, sum"
attr unit b
statistic OneMasterClockGptpShowcase.tsnClock.ethernet.macHeaderInserter incomingPacketLengths:histogram
field count 17
field mean 466.82352941176
field stddev 124.35244031287
field min 352
field max 608
field sum 7936
field sqrsum 3952128
attr interpolationmode none
attr recordingmode histogram
attr source "packetLength(merge(packetPushedIn, packetPulledIn))"
attr title "incoming packet lengths"
attr unit b
bin	-inf	0
bin	285	0
bin	290	0
bin	295	0
bin	300	0
bin	305	0
bin	310	0
bin	315	0
bin	320	0
bin	325	0
bin	330	0
bin	335	0
bin	340	0
bin	345	0
bin	350	8
bin	355	0
bin	360	0
bin	365	0
bin	370	0
bin	375	0
bin	380	0
bin	385	0
bin	390	0
bin	395	0
bin	400	0
bin	405	0
bin	410	0
bin	415	0
bin	420	0
bin	425	0
bin	430	2
bin	435	0
bin	440	0
bin	445	0
bin	450	0
bin	455	0
bin	460	0
bin	465	0
bin	470	0
bin	475	0
bin	480	0
bin	485	0
bin	490	0
bin	495	0
bin	500	0
bin	505	0
bin	510	0
bin	515	0
bin	520	0
bin	525	0
bin	530	0
bin	535	0
bin	540	0
bin	545	0
bin	550	0
bin	555	0
bin	560	0
bin	565	0
bin	570	0
bin	575	0
bin	580	0
bin	585	0
bin	590	0
bin	595	0
bin	600	0
bin	605	7
bin	610	0
bin	615	0
bin	620	0
bin	625	0
bin	630	0
bin	635	0
bin	640	0
bin	645	0
bin	650	0
bin	655	0
bin	660	0
bin	665	0
bin	670	0
bin	675	0
scalar OneMasterClockGptpShowcase.tsnClock.ethernet.macHeaderInserter flowIncomingPacketLengths:sum 0
attr interpolationmode none
attr recordingmode sum
attr source "packetLength(demuxFlow(merge(packetPushedIn, packetPulledIn)))"
attr title "flow specific incoming packet lengths, sum"
attr unit b
statistic OneMasterClockGptpShowcase.tsnClock.ethernet.macHeaderInserter flowIncomingPacketLengths:histogram
field count 0
field mean -nan
field stddev nan
field min nan
field max nan
field sum 0
field sqrsum 0
attr interpolationmode none
attr recordingmode histogram
attr source "packetLength(demuxFlow(merge(packetPushedIn, packetPulledIn)))"
attr title "flow specific incoming packet lengths"
attr unit b
bin	-inf	0
bin	0	0
bin	1	0
scalar OneMasterClockGptpShowcase.tsnClock.ethernet.paddingInserter outgoingPackets:count 17
attr recordingmode count
attr source "merge(packetPushedOut, packetPulledOut)"
attr title "outgoing packets, count"
attr unit pk
scalar OneMasterClockGptpShowcase.tsnClock.ethernet.paddingInserter outgoingPacketLengths:sum 9968
attr interpolationmode none
attr recordingmode sum
attr source "packetLength(merge(packetPushedOut, packetPulledOut))"
attr title "outgoing packet lengths, sum"
attr unit b
statistic OneMasterClockGptpShowcase.tsnClock.ethernet.paddingInserter outgoingPacketLengths:histogram
field count 17
field mean 586.35294117647
field stddev 117.0218682429
field min 480
field max 720
field sum 9968
field sqrsum 6063872
attr interpolationmode none
attr recordingmode histogram
attr source "packetLength(merge(packetPushedOut, packetPulledOut))"
attr title "outgoing packet lengths"
attr unit b
bin	-inf	0
bin	420	0
bin	425	0
bin	430	0
bin	435	0
bin	440	0
bin	445	0
bin	450	0
bin	455	0
bin	460	0
bin	465	0
bin	470	0
bin	475	0
bin	480	8
bin	485	0
bin	490	0
bin	495	0
bin	500	0
bin	505	0
bin	510	0
bin	515	0
bin	520	0
bin	525	0
bin	530	0
bin	535	0
bin	540	2
bin	545	0
bin	550	0
bin	555	0
bin	560	0
bin	565	0
bin	570	0
bin	575	0
bin	580	0
bin	585	0
bin	590	0
bin	595	0
bin	600	0
bin	605	0
bin	610	0
bin	615	0
bin	620	0
bin	625	0
bin	630	0
bin	635	0
bin	640	0
bin	645	0
bin	650	0
bin	655	0
bin	660	0
bin	665	0
bin	670	0
bin	675	0
bin	680	0
bin	685	0
bin	690	0
bin	695	0
bin	700	0
bin	705	0
bin	710	0
bin	715	0
bin	720	7
bin	725	0
bin	730	0
bin	735	0
bin	740	0
bin	745	0
bin	750	0
bin	755	0
bin	760	0
bin	765	0
bin	770	0
bin	775	0
bin	780	0
scalar OneMasterClockGptpShowcase.tsnClock.ethernet.paddingInserter flowOutgoingPacketLengths:sum 0
attr interpolationmode none
attr recordingmode sum
attr source "packetLength(demuxFlow(merge(packetPushedOut, packetPulledOut)))"
attr title "flow specific outgoing packet lengths, sum"
attr unit b
statistic OneMasterClockGptpShowcase.tsnClock.ethernet.paddingInserter flowOutgoingPacketLengths:histogram
field count 0
field mean -nan
field stddev nan
field min nan
field max nan
field sum 0
field sqrsum 0
attr interpolationmode none
attr recordingmode histogram
attr source "packetLength(demuxFlow(merge(packetPushedOut, packetPulledOut)))"
attr title "flow specific outgoing packet lengths"
attr unit b
bin	-inf	0
bin	0	0
bin	1	0
scalar OneMasterClockGptpShowcase.tsnClock.ethernet.paddingInserter incomingPackets:count 17
attr recordingmode count
attr source "merge(packetPushedIn, packetPulledIn)"
attr title "incoming packets, count"
attr unit pk
scalar OneMasterClockGptpShowcase.tsnClock.ethernet.paddingInserter incomingPacketLengths:sum 9840
attr interpolationmode none
attr recordingmode sum
attr source "packetLength(merge(packetPushedIn, packetPulledIn))"
attr title "incoming packet lengths, sum"
attr unit b
statistic OneMasterClockGptpShowcase.tsnClock.ethernet.paddingInserter incomingPacketLengths:histogram
field count 17
field mean 578.82352941176
field stddev 124.35244031287
field min 464
field max 720
field sum 9840
field sqrsum 5943040
attr interpolationmode none
attr recordingmode histogram
attr source "packetLength(merge(packetPushedIn, packetPulledIn))"
attr title "incoming packet lengths"
attr unit b
bin	-inf	0
bin	400	0
bin	405	0
bin	410	0
bin	415	0
bin	420	0
bin	425	0
bin	430	0
bin	435	0
bin	440	0
bin	445	0
bin	450	0
bin	455	0
bin	460	8
bin	465	0
bin	470	0
bin	475	0
bin	480	0
bin	485	0
bin	490	0
bin	495	0
bin	500	0
bin	505	0
bin	510	0
bin	515	0
bin	520	0
bin	525	0
bin	530	0
bin	535	0
bin	540	2
bin	545	0
bin	550	0
bin	555	0
bin	560	0
bin	565	0
bin	570	0
bin	575	0
bin	580	0
bin	585	0
bin	590	0
bin	595	0
bin	600	0
bin	605	0
bin	610	0
bin	615	0
bin	620	0
bin	625	0
bin	630	0
bin	635	0
bin	640	0
bin	645	0
bin	650	0
bin	655	0
bin	660	0
bin	665	0
bin	670	0
bin	675	0
bin	680	0
bin	685	0
bin	690	0
bin	695	0
bin	700	0
bin	705	0
bin	710	0
bin	715	0
bin	720	7
bin	725	0
bin	730	0
bin	735	0
bin	740	0
bin	745	0
bin	750	0
bin	755	0
bin	760	0
bin	765	0
bin	770	0
bin	775	0
bin	780	0
bin	785	0
scalar OneMasterClockGptpShowcase.tsnClock.ethernet.paddingInserter flowIncomingPacketLengths:sum 0
attr interpolationmode none
attr recordingmode sum
attr source "packetLength(demuxFlow(merge(packetPushedIn, packetPulledIn)))"
attr title "flow specific incoming packet lengths, sum"
attr unit b
statistic OneMasterClockGptpShowcase.tsnClock.ethernet.paddingInserter flowIncomingPacketLengths:histogram
field count 0
field mean -nan
field stddev nan
field min nan
field max nan
field sum 0
field sqrsum 0
attr interpolationmode none
attr recordingmode histogram
attr source "packetLength(demuxFlow(merge(packetPushedIn, packetPulledIn)))"
attr title "flow specific incoming packet lengths"
attr unit b
bin	-inf	0
bin	0	0
bin	1	0
scalar OneMasterClockGptpShowcase.tsnClock.ethernet.fcsInserter outgoingPackets:count 17
attr recordingmode count
attr source "merge(packetPushedOut, packetPulledOut)"
attr title "outgoing packets, count"
attr unit pk
scalar OneMasterClockGptpShowcase.tsnClock.ethernet.fcsInserter outgoingPacketLengths:sum 10512
attr interpolationmode none
attr recordingmode sum
attr source "packetLength(merge(packetPushedOut, packetPulledOut))"
attr title "outgoing packet lengths, sum"
attr unit b
statistic OneMasterClockGptpShowcase.tsnClock.ethernet.fcsInserter outgoingPacketLengths:histogram
field count 17
field mean 618.35294117647
field stddev 117.0218682429
field min 512
field max 752
field sum 10512
field sqrsum 6719232
attr interpolationmode none
attr recordingmode histogram
attr source "packetLength(merge(packetPushedOut, packetPulledOut))"
attr title "outgoing packet lengths"
attr unit b
bin	-inf	0
bin	450	0
bin	455	0
bin	460	0
bin	465	0
bin	470	0
bin	475	0
bin	480	0
bin	485	0
bin	490	0
bin	495	0
bin	500	0
bin	505	0
bin	510	8
bin	515	0
bin	520	0
bin	525	0
bin	530	0
bin	535	0
bin	540	0
bin	545	0
bin	550	0
bin	555	0
bin	560	0
bin	565	0
bin	570	0
bin	575	2
bin	580	0
bin	585	0
bin	590	0
bin	595	0
bin	600	0
bin	605	0
bin	610	0
bin	615	0
bin	620	0
bin	625	0
bin	630	0
bin	635	0
bin	640	0
bin	645	0
bin	650	0
bin	655	0
bin	660	0
bin	665	0
bin	670	0
bin	675	0
bin	680	0
bin	685	0
bin	690	0
bin	695	0
bin	700	0
bin	705	0
bin	710	0
bin	715	0
bin	720	0
bin	725	0
bin	730	0
bin	735	0
bin	740	0
bin	745	0
bin	750	7
bin	755	0
bin	760	0
bin	765	0
bin	770	0
bin	775	0
bin	780	0
bin	785	0
bin	790	0
bin	795	0
bin	800	0
bin	805	0
bin	810	0
bin	815	0
scalar OneMasterClockGptpShowcase.tsnClock.ethernet.fcsInserter flowOutgoingPacketLengths:sum 0
attr interpolationmode none
attr recordingmode sum
attr source "packetLength(demuxFlow(merge(packetPushedOut, packetPulledOut)))"
attr title "flow specific outgoing packet lengths, sum"
attr unit b
statistic OneMasterClockGptpShowcase.tsnClock.ethernet.fcsInserter flowOutgoingPacketLengths:histogram
field count 0
field mean -nan
field stddev nan
field min nan
field max nan
field sum 0
field sqrsum 0
attr interpolationmode none
attr recordingmode histogram
attr source "packetLength(demuxFlow(merge(packetPushedOut, packetPulledOut)))"
attr title "flow specific outgoing packet lengths"
attr unit b
bin	-inf	0
bin	0	0
bin	1	0
scalar OneMasterClockGptpShowcase.tsnClock.ethernet.fcsInserter incomingPackets:count 17
attr recordingmode count
attr source "merge(packetPushedIn, packetPulledIn)"
attr title "incoming packets, count"
attr unit pk
scalar OneMasterClockGptpShowcase.tsnClock.ethernet.fcsInserter incomingPacketLengths:sum 9968
attr interpolationmode none
attr recordingmode sum
attr source "packetLength(merge(packetPushedIn, packetPulledIn))"
attr title "incoming packet lengths, sum"
attr unit b
statistic OneMasterClockGptpShowcase.tsnClock.ethernet.fcsInserter incomingPacketLengths:histogram
field count 17
field mean 586.35294117647
field stddev 117.0218682429
field min 480
field max 720
field sum 9968
field sqrsum 6063872
attr interpolationmode none
attr recordingmode histogram
attr source "packetLength(merge(packetPushedIn, packetPulledIn))"
attr title "incoming packet lengths"
attr unit b
bin	-inf	0
bin	420	0
bin	425	0
bin	430	0
bin	435	0
bin	440	0
bin	445	0
bin	450	0
bin	455	0
bin	460	0
bin	465	0
bin	470	0
bin	475	0
bin	480	8
bin	485	0
bin	490	0
bin	495	0
bin	500	0
bin	505	0
bin	510	0
bin	515	0
bin	520	0
bin	525	0
bin	530	0
bin	535	0
bin	540	2
bin	545	0
bin	550	0
bin	555	0
bin	560	0
bin	565	0
bin	570	0
bin	575	0
bin	580	0
bin	585	0
bin	590	0
bin	595	0
bin	600	0
bin	605	0
bin	610	0
bin	615	0
bin	620	0
bin	625	0
bin	630	0
bin	635	0
bin	640	0
bin	645	0
bin	650	0
bin	655	0
bin	660	0
bin	665	0
bin	670	0
bin	675	0
bin	680	0
bin	685	0
bin	690	0
bin	695	0
bin	700	0
bin	705	0
bin	710	0
bin	715	0
bin	720	7
bin	725	0
bin	730	0
bin	735	0
bin	740	0
bin	745	0
bin	750	0
bin	755	0
bin	760	0
bin	765	0
bin	770	0
bin	775	0
bin	780	0
scalar OneMasterClockGptpShowcase.tsnClock.ethernet.fcsInserter flowIncomingPacketLengths:sum 0
attr interpolationmode none
attr recordingmode sum
attr source "packetLength(demuxFlow(merge(packetPushedIn, packetPulledIn)))"
attr title "flow specific incoming packet lengths, sum"
attr unit b
statistic OneMasterClockGptpShowcase.tsnClock.ethernet.fcsInserter flowIncomingPacketLengths:histogram
field count 0
field mean -nan
field stddev nan
field min nan
field max nan
field sum 0
field sqrsum 0
attr interpolationmode none
attr recordingmode histogram
attr source "packetLength(demuxFlow(merge(packetPushedIn, packetPulledIn)))"
attr title "flow specific incoming packet lengths"
attr unit b
bin	-inf	0
bin	0	0
bin	1	0
scalar OneMasterClockGptpShowcase.tsnClock.ethernet.macHeaderChecker outgoingPackets:count 2
attr recordingmode count
attr source "merge(packetPushedOut, packetPulledOut)"
attr title "outgoing packets, count"
attr unit pk
scalar OneMasterClockGptpShowcase.tsnClock.ethernet.macHeaderChecker outgoingPacketLengths:sum 864
attr interpolationmode none
attr recordingmode sum
attr source "packetLength(merge(packetPushedOut, packetPulledOut))"
attr title "outgoing packet lengths, sum"
attr unit b
statistic OneMasterClockGptpShowcase.tsnClock.ethernet.macHeaderChecker outgoingPacketLengths:histogram
field count 2
field mean 432
field stddev 0
field min 432
field max 432
field sum 864
field sqrsum 373248
attr interpolationmode none
attr recordingmode histogram
attr source "packetLength(merge(packetPushedOut, packetPulledOut))"
attr title "outgoing packet lengths"
attr unit b
bin	-inf	0
bin	431	0
bin	432	2
bin	433	0
scalar OneMasterClockGptpShowcase.tsnClock.ethernet.macHeaderChecker flowOutgoingPacketLengths:sum 0
attr interpolationmode none
attr recordingmode sum
attr source "packetLength(demuxFlow(merge(packetPushedOut, packetPulledOut)))"
attr title "flow specific outgoing packet lengths, sum"
attr unit b
statistic OneMasterClockGptpShowcase.tsnClock.ethernet.macHeaderChecker flowOutgoingPacketLengths:histogram
field count 0
field mean -nan
field stddev nan
field min nan
field max nan
field sum 0
field sqrsum 0
attr interpolationmode none
attr recordingmode histogram
attr source "packetLength(demuxFlow(merge(packetPushedOut, packetPulledOut)))"
attr title "flow specific outgoing packet lengths"
attr unit b
bin	-inf	0
bin	0	0
bin	1	0
scalar OneMasterClockGptpShowcase.tsnClock.ethernet.macHeaderChecker incomingPackets:count 2
attr recordingmode count
attr source "merge(packetPushedIn, packetPulledIn)"
attr title "incoming packets, count"
attr unit pk
scalar OneMasterClockGptpShowcase.tsnClock.ethernet.macHeaderChecker incomingPacketLengths:sum 1088
attr interpolationmode none
attr recordingmode sum
attr source "packetLength(merge(packetPushedIn, packetPulledIn))"
attr title "incoming packet lengths, sum"
attr unit b
statistic OneMasterClockGptpShowcase.tsnClock.ethernet.macHeaderChecker incomingPacketLengths:histogram
field count 2
field mean 544
field stddev 0
field min 544
field max 544
field sum 1088
field sqrsum 591872
attr interpolationmode none
attr recordingmode histogram
attr source "packetLength(merge(packetPushedIn, packetPulledIn))"
attr title "incoming packet lengths"
attr unit b
bin	-inf	0
bin	543	0
bin	544	2
bin	545	0
scalar OneMasterClockGptpShowcase.tsnClock.ethernet.macHeaderChecker flowIncomingPacketLengths:sum 0
attr interpolationmode none
attr recordingmode sum
attr source "packetLength(demuxFlow(merge(packetPushedIn, packetPulledIn)))"
attr title "flow specific incoming packet lengths, sum"
attr unit b
statistic OneMasterClockGptpShowcase.tsnClock.ethernet.macHeaderChecker flowIncomingPacketLengths:histogram
field count 0
field mean -nan
field stddev nan
field min nan
field max nan
field sum 0
field sqrsum 0
attr interpolationmode none
attr recordingmode histogram
attr source "packetLength(demuxFlow(merge(packetPushedIn, packetPulledIn)))"
attr title "flow specific incoming packet lengths"
attr unit b
bin	-inf	0
bin	0	0
bin	1	0
scalar OneMasterClockGptpShowcase.tsnClock.ethernet.macHeaderChecker droppedPackets:count 0
attr recordingmode count
attr source packetDropped
attr title "dropped packets, count"
attr unit pk
scalar OneMasterClockGptpShowcase.tsnClock.ethernet.macHeaderChecker droppedPacketLengths:sum 0
attr interpolationmode none
attr recordingmode sum
attr source packetLength(packetDropped)
attr title "dropped packet lengths, sum"
attr unit b
statistic OneMasterClockGptpShowcase.tsnClock.ethernet.macHeaderChecker droppedPacketLengths:histogram
field count 0
field mean -nan
field stddev nan
field min nan
field max nan
field sum 0
field sqrsum 0
attr interpolationmode none
attr recordingmode histogram
attr source packetLength(packetDropped)
attr title "dropped packet lengths"
attr unit b
bin	-inf	0
bin	0	0
bin	1	0
scalar OneMasterClockGptpShowcase.tsnClock.ethernet.macHeaderChecker flowDroppedPacketLengths:sum 0
attr interpolationmode none
attr recordingmode sum
attr source packetLength(demuxFlow(packetDropped))
attr title "flow specific dropped packet lengths, sum"
attr unit b
statistic OneMasterClockGptpShowcase.tsnClock.ethernet.macHeaderChecker flowDroppedPacketLengths:histogram
field count 0
field mean -nan
field stddev nan
field min nan
field max nan
field sum 0
field sqrsum 0
attr interpolationmode none
attr recordingmode histogram
attr source packetLength(demuxFlow(packetDropped))
attr title "flow specific dropped packet lengths"
attr unit b
bin	-inf	0
bin	0	0
bin	1	0
scalar OneMasterClockGptpShowcase.tsnClock.ethernet.fcsChecker outgoingPackets:count 2
attr recordingmode count
attr source "merge(packetPushedOut, packetPulledOut)"
attr title "outgoing packets, count"
attr unit pk
scalar OneMasterClockGptpShowcase.tsnClock.ethernet.fcsChecker outgoingPacketLengths:sum 1088
attr interpolationmode none
attr recordingmode sum
attr source "packetLength(merge(packetPushedOut, packetPulledOut))"
attr title "outgoing packet lengths, sum"
attr unit b
statistic OneMasterClockGptpShowcase.tsnClock.ethernet.fcsChecker outgoingPacketLengths:histogram
field count 2
field mean 544
field stddev 0
field min 544
field max 544
field sum 1088
field sqrsum 591872
attr interpolationmode none
attr recordingmode histogram
attr source "packetLength(merge(packetPushedOut, packetPulledOut))"
attr title "outgoing packet lengths"
attr unit b
bin	-inf	0
bin	543	0
bin	544	2
bin	545	0
scalar OneMasterClockGptpShowcase.tsnClock.ethernet.fcsChecker flowOutgoingPacketLengths:sum 0
attr interpolationmode none
attr recordingmode sum
attr source "packetLength(demuxFlow(merge(packetPushedOut, packetPulledOut)))"
attr title "flow specific outgoing packet lengths, sum"
attr unit b
statistic OneMasterClockGptpShowcase.tsnClock.ethernet.fcsChecker flowOutgoingPacketLengths:histogram
field count 0
field mean -nan
field stddev nan
field min nan
field max nan
field sum 0
field sqrsum 0
attr interpolationmode none
attr recordingmode histogram
attr source "packetLength(demuxFlow(merge(packetPushedOut, packetPulledOut)))"
attr title "flow specific outgoing packet lengths"
attr unit b
bin	-inf	0
bin	0	0
bin	1	0
scalar OneMasterClockGptpShowcase.tsnClock.ethernet.fcsChecker incomingPackets:count 2
attr recordingmode count
attr source "merge(packetPushedIn, packetPulledIn)"
attr title "incoming packets, count"
attr unit pk
scalar OneMasterClockGptpShowcase.tsnClock.ethernet.fcsChecker incomingPacketLengths:sum 1152
attr interpolationmode none
attr recordingmode sum
attr source "packetLength(merge(packetPushedIn, packetPulledIn))"
attr title "incoming packet lengths, sum"
attr unit b
statistic OneMasterClockGptpShowcase.tsnClock.ethernet.fcsChecker incomingPacketLengths:histogram
field count 2
field mean 576
field stddev 0
field min 576
field max 576
field sum 1152
field sqrsum 663552
attr interpolationmode none
attr recordingmode histogram
attr source "packetLength(merge(packetPushedIn, packetPulledIn))"
attr title "incoming packet lengths"
attr unit b
bin	-inf	0
bin	575	0
bin	576	2
bin	577	0
scalar OneMasterClockGptpShowcase.tsnClock.ethernet.fcsChecker flowIncomingPacketLengths:sum 0
attr interpolationmode none
attr recordingmode sum
attr source "packetLength(demuxFlow(merge(packetPushedIn, packetPulledIn)))"
attr title "flow specific incoming packet lengths, sum"
attr unit b
statistic OneMasterClockGptpShowcase.tsnClock.ethernet.fcsChecker flowIncomingPacketLengths:histogram
field count 0
field mean -nan
field stddev nan
field min nan
field max nan
field sum 0
field sqrsum 0
attr interpolationmode none
attr recordingmode histogram
attr source "packetLength(demuxFlow(merge(packetPushedIn, packetPulledIn)))"
attr title "flow specific incoming packet lengths"
attr unit b
bin	-inf	0
bin	0	0
bin	1	0
scalar OneMasterClockGptpShowcase.tsnClock.ethernet.fcsChecker droppedPackets:count 0
attr recordingmode count
attr source packetDropped
attr title "dropped packets, count"
attr unit pk
scalar OneMasterClockGptpShowcase.tsnClock.ethernet.fcsChecker droppedPacketLengths:sum 0
attr interpolationmode none
attr recordingmode sum
attr source packetLength(packetDropped)
attr title "dropped packet lengths, sum"
attr unit b
statistic OneMasterClockGptpShowcase.tsnClock.ethernet.fcsChecker droppedPacketLengths:histogram
field count 0
field mean -nan
field stddev nan
field min nan
field max nan
field sum 0
field sqrsum 0
attr interpolationmode none
attr recordingmode histogram
attr source packetLength(packetDropped)
attr title "dropped packet lengths"
attr unit b
bin	-inf	0
bin	0	0
bin	1	0
scalar OneMasterClockGptpShowcase.tsnClock.ethernet.fcsChecker flowDroppedPacketLengths:sum 0
attr interpolationmode none
attr recordingmode sum
attr source packetLength(demuxFlow(packetDropped))
attr title "flow specific dropped packet lengths, sum"
attr unit b
statistic OneMasterClockGptpShowcase.tsnClock.ethernet.fcsChecker flowDroppedPacketLengths:histogram
field count 0
field mean -nan
field stddev nan
field min nan
field max nan
field sum 0
field sqrsum 0
attr interpolationmode none
attr recordingmode histogram
attr source packetLength(demuxFlow(packetDropped))
attr title "flow specific dropped packet lengths"
attr unit b
bin	-inf	0
bin	0	0
bin	1	0
scalar OneMasterClockGptpShowcase.tsnClock.lo[0].lo rcvdPkFromHl:count 0
attr interpolationmode none
attr recordingmode count
attr source packetReceivedFromUpper
attr title "packets received from higher layer, count"
scalar OneMasterClockGptpShowcase.tsnClock.lo[0].lo rcvdPkFromHl:sum(packetBytes) 0
attr interpolationmode none
attr recordingmode sum(packetBytes)
attr source packetReceivedFromUpper
attr title "packets received from higher layer, sum(packetBytes)"
scalar OneMasterClockGptpShowcase.tsnClock.lo[0].lo passedUpPk:count 0
attr interpolationmode none
attr recordingmode count
attr source packetSentToUpper
attr title "packets passed to higher layer, count"
scalar OneMasterClockGptpShowcase.tsnClock.lo[0].lo passedUpPk:sum(packetBytes) 0
attr interpolationmode none
attr recordingmode sum(packetBytes)
attr source packetSentToUpper
attr title "packets passed to higher layer, sum(packetBytes)"
scalar OneMasterClockGptpShowcase.tsnClock.lo[0] packetDropInterfaceDown:count 0
attr interpolationmode none
attr recordingmode count
attr source packetDropReasonIsInterfaceDown(packetDropped)
attr title "packet drops: interface down, count"
scalar OneMasterClockGptpShowcase.tsnClock.lo[0] packetDropInterfaceDown:sum(packetBytes) 0
attr interpolationmode none
attr recordingmode sum(packetBytes)
attr source packetDropReasonIsInterfaceDown(packetDropped)
attr title "packet drops: interface down, sum(packetBytes)"
scalar OneMasterClockGptpShowcase.tsnClock.lo[0] packetDropNoCarrier:count 0
attr interpolationmode none
attr recordingmode count
attr source packetDropReasonIsNoCarrier(packetDropped)
attr title "packet drops: no carrier, count"
scalar OneMasterClockGptpShowcase.tsnClock.lo[0] packetDropNoCarrier:sum(packetBytes) 0
attr interpolationmode none
attr recordingmode sum(packetBytes)
attr source packetDropReasonIsNoCarrier(packetDropped)
attr title "packet drops: no carrier, sum(packetBytes)"
scalar OneMasterClockGptpShowcase.tsnClock.eth[0].macLayer.queue queueLength:last 0
attr autoWarmupFilter false
attr interpolationmode sample-hold
attr recordingmode last
attr source "warmup(atomic(constant0(packetPushEnded) + count(packetPushStarted) - count(packetPulled) - count(packetRemoved) - count(packetDropped)))"
attr title "queue length, last"
attr unit pk
scalar OneMasterClockGptpShowcase.tsnClock.eth[0].macLayer.queue queueLength:max 1
attr autoWarmupFilter false
attr interpolationmode sample-hold
attr recordingmode max
attr source "warmup(atomic(constant0(packetPushEnded) + count(packetPushStarted) - count(packetPulled) - count(packetRemoved) - count(packetDropped)))"
attr title "queue length, max"
attr unit pk
scalar OneMasterClockGptpShowcase.tsnClock.eth[0].macLayer.queue queueLength:timeavg 7.6801109776036e-06
attr autoWarmupFilter false
attr interpolationmode sample-hold
attr recordingmode timeavg
attr source "warmup(atomic(constant0(packetPushEnded) + count(packetPushStarted) - count(packetPulled) - count(packetRemoved) - count(packetDropped)))"
attr title "queue length, timeavg"
attr unit pk
scalar OneMasterClockGptpShowcase.tsnClock.eth[0].macLayer.queue queueBitLength:last 0
attr autoWarmupFilter false
attr interpolationmode sample-hold
attr recordingmode last
attr source "warmup(atomic(constant0(packetPushEnded) + sum(packetLength(packetPushStarted)) - sum(packetLength(packetPulled)) - sum(packetLength(packetRemoved)) - sum(packetLength(packetDropped))))"
attr title "queue bit length, last"
attr unit b
scalar OneMasterClockGptpShowcase.tsnClock.eth[0].macLayer.queue queueBitLength:max 752
attr autoWarmupFilter false
attr interpolationmode sample-hold
attr recordingmode max
attr source "warmup(atomic(constant0(packetPushEnded) + sum(packetLength(packetPushStarted)) - sum(packetLength(packetPulled)) - sum(packetLength(packetRemoved)) - sum(packetLength(packetDropped))))"
attr title "queue bit length, max"
attr unit b
scalar OneMasterClockGptpShowcase.tsnClock.eth[0].macLayer.queue queueBitLength:timeavg 0.0056064810136506
attr autoWarmupFilter false
attr interpolationmode sample-hold
attr recordingmode timeavg
attr source "warmup(atomic(constant0(packetPushEnded) + sum(packetLength(packetPushStarted)) - sum(packetLength(packetPulled)) - sum(packetLength(packetRemoved)) - sum(packetLength(packetDropped))))"
attr title "queue bit length, timeavg"
attr unit b
statistic OneMasterClockGptpShowcase.tsnClock.eth[0].macLayer.queue queueingTime:histogram
field count 17
field mean 4.5176470588235e-07
field stddev 4.9391592521043e-07
field min 0
field max 9.6e-07
field sum 7.68e-06
field sqrsum 7.3728e-12
attr interpolationmode none
attr recordingmode histogram
attr source queueingTime(packetPulled)
attr title "queueing times"
attr unit s
bin	-inf	0
bin	0	9
bin	2e-08	0
bin	4e-08	0
bin	6e-08	0
bin	8e-08	0
bin	1e-07	0
bin	1.2e-07	0
bin	1.4e-07	0
bin	1.6e-07	0
bin	1.8e-07	0
bin	2e-07	0
bin	2.2e-07	0
bin	2.4e-07	0
bin	2.6e-07	0
bin	2.8e-07	0
bin	3e-07	0
bin	3.2e-07	0
bin	3.4e-07	0
bin	3.6e-07	0
bin	3.8e-07	0
bin	4e-07	0
bin	4.2e-07	0
bin	4.4e-07	0
bin	4.6e-07	0
bin	4.8e-07	0
bin	5e-07	0
bin	5.2e-07	0
bin	5.4e-07	0
bin	5.6e-07	0
bin	5.8e-07	0
bin	6e-07	0
bin	6.2e-07	0
bin	6.4e-07	0
bin	6.6e-07	0
bin	6.8e-07	0
bin	7e-07	0
bin	7.2e-07	0
bin	7.4e-07	0
bin	7.6e-07	0
bin	7.8e-07	0
bin	8e-07	0
bin	8.2e-07	0
bin	8.4e-07	0
bin	8.6e-07	0
bin	8.8e-07	0
bin	9e-07	0
bin	9.2e-07	0
bin	9.4e-07	8
bin	9.6e-07	0
bin	9.8e-07	0
bin	1e-06	0
bin	1.02e-06	0
bin	1.04e-06	0
bin	1.06e-06	0
bin	1.08e-06	0
bin	1.1e-06	0
bin	1.12e-06	0
bin	1.14e-06	0
bin	1.16e-06	0
bin	1.18e-06	0
bin	1.2e-06	0
scalar OneMasterClockGptpShowcase.tsnClock.eth[0].macLayer.queue outgoingPackets:count 17
attr recordingmode count
attr source packetPulled
attr title "outgoing packets, count"
attr unit pk
scalar OneMasterClockGptpShowcase.tsnClock.eth[0].macLayer.queue outgoingPacketLengths:sum 10512
attr interpolationmode none
attr recordingmode sum
attr source packetLength(packetPulled)
attr title "outgoing packet lengths, sum"
attr unit b
statistic OneMasterClockGptpShowcase.tsnClock.eth[0].macLayer.queue outgoingPacketLengths:histogram
field count 17
field mean 618.35294117647
field stddev 117.0218682429
field min 512
field max 752
field sum 10512
field sqrsum 6719232
attr interpolationmode none
attr recordingmode histogram
attr source packetLength(packetPulled)
attr title "outgoing packet lengths"
attr unit b
bin	-inf	0
bin	450	0
bin	455	0
bin	460	0
bin	465	0
bin	470	0
bin	475	0
bin	480	0
bin	485	0
bin	490	0
bin	495	0
bin	500	0
bin	505	0
bin	510	8
bin	515	0
bin	520	0
bin	525	0
bin	530	0
bin	535	0
bin	540	0
bin	545	0
bin	550	0
bin	555	0
bin	560	0
bin	565	0
bin	570	0
bin	575	2
bin	580	0
bin	585	0
bin	590	0
bin	595	0
bin	600	0
bin	605	0
bin	610	0
bin	615	0
bin	620	0
bin	625	0
bin	630	0
bin	635	0
bin	640	0
bin	645	0
bin	650	0
bin	655	0
bin	660	0
bin	665	0
bin	670	0
bin	675	0
bin	680	0
bin	685	0
bin	690	0
bin	695	0
bin	700	0
bin	705	0
bin	710	0
bin	715	0
bin	720	0
bin	725	0
bin	730	0
bin	735	0
bin	740	0
bin	745	0
bin	750	7
bin	755	0
bin	760	0
bin	765	0
bin	770	0
bin	775	0
bin	780	0
bin	785	0
bin	790	0
bin	795	0
bin	800	0
bin	805	0
bin	810	0
bin	815	0
statistic OneMasterClockGptpShowcase.tsnClock.eth[0].macLayer.queue flowQueueingTime:histogram
field count 0
field mean -nan
field stddev nan
field min nan
field max nan
field sum 0
field sqrsum 0
attr interpolationmode none
attr recordingmode histogram
attr source queueingTime(demuxFlow(packetPulled))
attr title "flow queueing times"
attr unit s
bin	-inf	0
bin	0	0
bin	1	0
scalar OneMasterClockGptpShowcase.tsnClock.eth[0].macLayer.queue incomingPackets:count 17
attr recordingmode count
attr source packetPushStarted
attr title "incoming packets, count"
attr unit pk
scalar OneMasterClockGptpShowcase.tsnClock.eth[0].macLayer.queue incomingPacketLengths:sum 10512
attr interpolationmode none
attr recordingmode sum
attr source packetLength(packetPushStarted)
attr title "incoming packet lengths, sum"
attr unit b
statistic OneMasterClockGptpShowcase.tsnClock.eth[0].macLayer.queue incomingPacketLengths:histogram
field count 17
field mean 618.35294117647
field stddev 117.0218682429
field min 512
field max 752
field sum 10512
field sqrsum 6719232
attr interpolationmode none
attr recordingmode histogram
attr source packetLength(packetPushStarted)
attr title "incoming packet lengths"
attr unit b
bin	-inf	0
bin	450	0
bin	455	0
bin	460	0
bin	465	0
bin	470	0
bin	475	0
bin	480	0
bin	485	0
bin	490	0
bin	495	0
bin	500	0
bin	505	0
bin	510	8
bin	515	0
bin	520	0
bin	525	0
bin	530	0
bin	535	0
bin	540	0
bin	545	0
bin	550	0
bin	555	0
bin	560	0
bin	565	0
bin	570	0
bin	575	2
bin	580	0
bin	585	0
bin	590	0
bin	595	0
bin	600	0
bin	605	0
bin	610	0
bin	615	0
bin	620	0
bin	625	0
bin	630	0
bin	635	0
bin	640	0
bin	645	0
bin	650	0
bin	655	0
bin	660	0
bin	665	0
bin	670	0
bin	675	0
bin	680	0
bin	685	0
bin	690	0
bin	695	0
bin	700	0
bin	705	0
bin	710	0
bin	715	0
bin	720	0
bin	725	0
bin	730	0
bin	735	0
bin	740	0
bin	745	0
bin	750	7
bin	755	0
bin	760	0
bin	765	0
bin	770	0
bin	775	0
bin	780	0
bin	785	0
bin	790	0
bin	795	0
bin	800	0
bin	805	0
bin	810	0
bin	815	0
scalar OneMasterClockGptpShowcase.tsnClock.eth[0].macLayer.queue droppedPacketsQueueOverflow:count 0
attr interpolationmode none
attr recordingmode count
attr source packetDropReasonIsQueueOverflow(packetDropped)
attr title "dropped packets: queue overflow, count"
attr unit pk
scalar OneMasterClockGptpShowcase.tsnClock.eth[0].macLayer.queue droppedPacketLengthsQueueOverflow:sum 0
attr interpolationmode none
attr recordingmode sum
attr source packetLength(packetDropReasonIsQueueOverflow(packetDropped))
attr title "dropped packet lengths: queue overflow, sum"
attr unit b
scalar OneMasterClockGptpShowcase.tsnClock.eth[0].macLayer.server incomingPackets:count 17
attr recordingmode count
attr source packetPulled
attr title "incoming packets, count"
attr unit pk
scalar OneMasterClockGptpShowcase.tsnClock.eth[0].macLayer.server incomingPacketLengths:sum 10512
attr interpolationmode none
attr recordingmode sum
attr source packetLength(packetPulled)
attr title "incoming packet lengths, sum"
attr unit b
statistic OneMasterClockGptpShowcase.tsnClock.eth[0].macLayer.server incomingPacketLengths:histogram
field count 17
field mean 618.35294117647
field stddev 117.0218682429
field min 512
field max 752
field sum 10512
field sqrsum 6719232
attr interpolationmode none
attr recordingmode histogram
attr source packetLength(packetPulled)
attr title "incoming packet lengths"
attr unit b
bin	-inf	0
bin	450	0
bin	455	0
bin	460	0
bin	465	0
bin	470	0
bin	475	0
bin	480	0
bin	485	0
bin	490	0
bin	495	0
bin	500	0
bin	505	0
bin	510	8
bin	515	0
bin	520	0
bin	525	0
bin	530	0
bin	535	0
bin	540	0
bin	545	0
bin	550	0
bin	555	0
bin	560	0
bin	565	0
bin	570	0
bin	575	2
bin	580	0
bin	585	0
bin	590	0
bin	595	0
bin	600	0
bin	605	0
bin	610	0
bin	615	0
bin	620	0
bin	625	0
bin	630	0
bin	635	0
bin	640	0
bin	645	0
bin	650	0
bin	655	0
bin	660	0
bin	665	0
bin	670	0
bin	675	0
bin	680	0
bin	685	0
bin	690	0
bin	695	0
bin	700	0
bin	705	0
bin	710	0
bin	715	0
bin	720	0
bin	725	0
bin	730	0
bin	735	0
bin	740	0
bin	745	0
bin	750	7
bin	755	0
bin	760	0
bin	765	0
bin	770	0
bin	775	0
bin	780	0
bin	785	0
bin	790	0
bin	795	0
bin	800	0
bin	805	0
bin	810	0
bin	815	0
scalar OneMasterClockGptpShowcase.tsnClock.eth[0].macLayer.server outgoingPackets:count 17
attr recordingmode count
attr source packetPushed
attr title "outgoing packets, count"
attr unit pk
scalar OneMasterClockGptpShowcase.tsnClock.eth[0].macLayer.server outgoingPacketLengths:sum 10512
attr interpolationmode none
attr recordingmode sum
attr source packetLength(packetPushed)
attr title "outgoing packet lengths, sum"
attr unit b
statistic OneMasterClockGptpShowcase.tsnClock.eth[0].macLayer.server outgoingPacketLengths:histogram
field count 17
field mean 618.35294117647
field stddev 117.0218682429
field min 512
field max 752
field sum 10512
field sqrsum 6719232
attr interpolationmode none
attr recordingmode histogram
attr source packetLength(packetPushed)
attr title "outgoing packet lengths"
attr unit b
bin	-inf	0
bin	450	0
bin	455	0
bin	460	0
bin	465	0
bin	470	0
bin	475	0
bin	480	0
bin	485	0
bin	490	0
bin	495	0
bin	500	0
bin	505	0
bin	510	8
bin	515	0
bin	520	0
bin	525	0
bin	530	0
bin	535	0
bin	540	0
bin	545	0
bin	550	0
bin	555	0
bin	560	0
bin	565	0
bin	570	0
bin	575	2
bin	580	0
bin	585	0
bin	590	0
bin	595	0
bin	600	0
bin	605	0
bin	610	0
bin	615	0
bin	620	0
bin	625	0
bin	630	0
bin	635	0
bin	640	0
bin	645	0
bin	650	0
bin	655	0
bin	660	0
bin	665	0
bin	670	0
bin	675	0
bin	680	0
bin	685	0
bin	690	0
bin	695	0
bin	700	0
bin	705	0
bin	710	0
bin	715	0
bin	720	0
bin	725	0
bin	730	0
bin	735	0
bin	740	0
bin	745	0
bin	750	7
bin	755	0
bin	760	0
bin	765	0
bin	770	0
bin	775	0
bin	780	0
bin	785	0
bin	790	0
bin	795	0
bin	800	0
bin	805	0
bin	810	0
bin	815	0
scalar OneMasterClockGptpShowcase.tsnClock.eth[0].macLayer.outboundEmitter outgoingPackets:count 17
attr recordingmode count
attr source "merge(packetPushedOut, packetPulledOut)"
attr title "outgoing packets, count"
attr unit pk
scalar OneMasterClockGptpShowcase.tsnClock.eth[0].macLayer.outboundEmitter outgoingPacketLengths:sum 10512
attr interpolationmode none
attr recordingmode sum
attr source "packetLength(merge(packetPushedOut, packetPulledOut))"
attr title "outgoing packet lengths, sum"
attr unit b
statistic OneMasterClockGptpShowcase.tsnClock.eth[0].macLayer.outboundEmitter outgoingPacketLengths:histogram
field count 17
field mean 618.35294117647
field stddev 117.0218682429
field min 512
field max 752
field sum 10512
field sqrsum 6719232
attr interpolationmode none
attr recordingmode histogram
attr source "packetLength(merge(packetPushedOut, packetPulledOut))"
attr title "outgoing packet lengths"
attr unit b
bin	-inf	0
bin	450	0
bin	455	0
bin	460	0
bin	465	0
bin	470	0
bin	475	0
bin	480	0
bin	485	0
bin	490	0
bin	495	0
bin	500	0
bin	505	0
bin	510	8
bin	515	0
bin	520	0
bin	525	0
bin	530	0
bin	535	0
bin	540	0
bin	545	0
bin	550	0
bin	555	0
bin	560	0
bin	565	0
bin	570	0
bin	575	2
bin	580	0
bin	585	0
bin	590	0
bin	595	0
bin	600	0
bin	605	0
bin	610	0
bin	615	0
bin	620	0
bin	625	0
bin	630	0
bin	635	0
bin	640	0
bin	645	0
bin	650	0
bin	655	0
bin	660	0
bin	665	0
bin	670	0
bin	675	0
bin	680	0
bin	685	0
bin	690	0
bin	695	0
bin	700	0
bin	705	0
bin	710	0
bin	715	0
bin	720	0
bin	725	0
bin	730	0
bin	735	0
bin	740	0
bin	745	0
bin	750	7
bin	755	0
bin	760	0
bin	765	0
bin	770	0
bin	775	0
bin	780	0
bin	785	0
bin	790	0
bin	795	0
bin	800	0
bin	805	0
bin	810	0
bin	815	0
scalar OneMasterClockGptpShowcase.tsnClock.eth[0].macLayer.outboundEmitter flowOutgoingPacketLengths:sum 0
attr interpolationmode none
attr recordingmode sum
attr source "packetLength(demuxFlow(merge(packetPushedOut, packetPulledOut)))"
attr title "flow specific outgoing packet lengths, sum"
attr unit b
statistic OneMasterClockGptpShowcase.tsnClock.eth[0].macLayer.outboundEmitter flowOutgoingPacketLengths:histogram
field count 0
field mean -nan
field stddev nan
field min nan
field max nan
field sum 0
field sqrsum 0
attr interpolationmode none
attr recordingmode histogram
attr source "packetLength(demuxFlow(merge(packetPushedOut, packetPulledOut)))"
attr title "flow specific outgoing packet lengths"
attr unit b
bin	-inf	0
bin	0	0
bin	1	0
scalar OneMasterClockGptpShowcase.tsnClock.eth[0].macLayer.outboundEmitter incomingPackets:count 17
attr recordingmode count
attr source "merge(packetPushedIn, packetPulledIn)"
attr title "incoming packets, count"
attr unit pk
scalar OneMasterClockGptpShowcase.tsnClock.eth[0].macLayer.outboundEmitter incomingPacketLengths:sum 10512
attr interpolationmode none
attr recordingmode sum
attr source "packetLength(merge(packetPushedIn, packetPulledIn))"
attr title "incoming packet lengths, sum"
attr unit b
statistic OneMasterClockGptpShowcase.tsnClock.eth[0].macLayer.outboundEmitter incomingPacketLengths:histogram
field count 17
field mean 618.35294117647
field stddev 117.0218682429
field min 512
field max 752
field sum 10512
field sqrsum 6719232
attr interpolationmode none
attr recordingmode histogram
attr source "packetLength(merge(packetPushedIn, packetPulledIn))"
attr title "incoming packet lengths"
attr unit b
bin	-inf	0
bin	450	0
bin	455	0
bin	460	0
bin	465	0
bin	470	0
bin	475	0
bin	480	0
bin	485	0
bin	490	0
bin	495	0
bin	500	0
bin	505	0
bin	510	8
bin	515	0
bin	520	0
bin	525	0
bin	530	0
bin	535	0
bin	540	0
bin	545	0
bin	550	0
bin	555	0
bin	560	0
bin	565	0
bin	570	0
bin	575	2
bin	580	0
bin	585	0
bin	590	0
bin	595	0
bin	600	0
bin	605	0
bin	610	0
bin	615	0
bin	620	0
bin	625	0
bin	630	0
bin	635	0
bin	640	0
bin	645	0
bin	650	0
bin	655	0
bin	660	0
bin	665	0
bin	670	0
bin	675	0
bin	680	0
bin	685	0
bin	690	0
bin	695	0
bin	700	0
bin	705	0
bin	710	0
bin	715	0
bin	720	0
bin	725	0
bin	730	0
bin	735	0
bin	740	0
bin	745	0
bin	750	7
bin	755	0
bin	760	0
bin	765	0
bin	770	0
bin	775	0
bin	780	0
bin	785	0
bin	790	0
bin	795	0
bin	800	0
bin	805	0
bin	810	0
bin	815	0
scalar OneMasterClockGptpShowcase.tsnClock.eth[0].macLayer.outboundEmitter flowIncomingPacketLengths:sum 0
attr interpolationmode none
attr recordingmode sum
attr source "packetLength(demuxFlow(merge(packetPushedIn, packetPulledIn)))"
attr title "flow specific incoming packet lengths, sum"
attr unit b
statistic OneMasterClockGptpShowcase.tsnClock.eth[0].macLayer.outboundEmitter flowIncomingPacketLengths:histogram
field count 0
field mean -nan
field stddev nan
field min nan
field max nan
field sum 0
field sqrsum 0
attr interpolationmode none
attr recordingmode histogram
attr source "packetLength(demuxFlow(merge(packetPushedIn, packetPulledIn)))"
attr title "flow specific incoming packet lengths"
attr unit b
bin	-inf	0
bin	0	0
bin	1	0
scalar OneMasterClockGptpShowcase.tsnClock.eth[0].macLayer.fcsChecker outgoingPackets:count 2
attr recordingmode count
attr source "merge(packetPushedOut, packetPulledOut)"
attr title "outgoing packets, count"
attr unit pk
scalar OneMasterClockGptpShowcase.tsnClock.eth[0].macLayer.fcsChecker outgoingPacketLengths:sum 1152
attr interpolationmode none
attr recordingmode sum
attr source "packetLength(merge(packetPushedOut, packetPulledOut))"
attr title "outgoing packet lengths, sum"
attr unit b
statistic OneMasterClockGptpShowcase.tsnClock.eth[0].macLayer.fcsChecker outgoingPacketLengths:histogram
field count 2
field mean 576
field stddev 0
field min 576
field max 576
field sum 1152
field sqrsum 663552
attr interpolationmode none
attr recordingmode histogram
attr source "packetLength(merge(packetPushedOut, packetPulledOut))"
attr title "outgoing packet lengths"
attr unit b
bin	-inf	0
bin	575	0
bin	576	2
bin	577	0
scalar OneMasterClockGptpShowcase.tsnClock.eth[0].macLayer.fcsChecker flowOutgoingPacketLengths:sum 0
attr interpolationmode none
attr recordingmode sum
attr source "packetLength(demuxFlow(merge(packetPushedOut, packetPulledOut)))"
attr title "flow specific outgoing packet lengths, sum"
attr unit b
statistic OneMasterClockGptpShowcase.tsnClock.eth[0].macLayer.fcsChecker flowOutgoingPacketLengths:histogram
field count 0
field mean -nan
field stddev nan
field min nan
field max nan
field sum 0
field sqrsum 0
attr interpolationmode none
attr recordingmode histogram
attr source "packetLength(demuxFlow(merge(packetPushedOut, packetPulledOut)))"
attr title "flow specific outgoing packet lengths"
attr unit b
bin	-inf	0
bin	0	0
bin	1	0
scalar OneMasterClockGptpShowcase.tsnClock.eth[0].macLayer.fcsChecker incomingPackets:count 2
attr recordingmode count
attr source "merge(packetPushedIn, packetPulledIn)"
attr title "incoming packets, count"
attr unit pk
scalar OneMasterClockGptpShowcase.tsnClock.eth[0].macLayer.fcsChecker incomingPacketLengths:sum 1152
attr interpolationmode none
attr recordingmode sum
attr source "packetLength(merge(packetPushedIn, packetPulledIn))"
attr title "incoming packet lengths, sum"
attr unit b
statistic OneMasterClockGptpShowcase.tsnClock.eth[0].macLayer.fcsChecker incomingPacketLengths:histogram
field count 2
field mean 576
field stddev 0
field min 576
field max 576
field sum 1152
field sqrsum 663552
attr interpolationmode none
attr recordingmode histogram
attr source "packetLength(merge(packetPushedIn, packetPulledIn))"
attr title "incoming packet lengths"
attr unit b
bin	-inf	0
bin	575	0
bin	576	2
bin	577	0
scalar OneMasterClockGptpShowcase.tsnClock.eth[0].macLayer.fcsChecker flowIncomingPacketLengths:sum 0
attr interpolationmode none
attr recordingmode sum
attr source "packetLength(demuxFlow(merge(packetPushedIn, packetPulledIn)))"
attr title "flow specific incoming packet lengths, sum"
attr unit b
statistic OneMasterClockGptpShowcase.tsnClock.eth[0].macLayer.fcsChecker flowIncomingPacketLengths:histogram
field count 0
field mean -nan
field stddev nan
field min nan
field max nan
field sum 0
field sqrsum 0
attr interpolationmode none
attr recordingmode histogram
attr source "packetLength(demuxFlow(merge(packetPushedIn, packetPulledIn)))"
attr title "flow specific incoming packet lengths"
attr unit b
bin	-inf	0
bin	0	0
bin	1	0
scalar OneMasterClockGptpShowcase.tsnClock.eth[0].macLayer.fcsChecker droppedPackets:count 0
attr recordingmode count
attr source packetDropped
attr title "dropped packets, count"
attr unit pk
scalar OneMasterClockGptpShowcase.tsnClock.eth[0].macLayer.fcsChecker droppedPacketLengths:sum 0
attr interpolationmode none
attr recordingmode sum
attr source packetLength(packetDropped)
attr title "dropped packet lengths, sum"
attr unit b
statistic OneMasterClockGptpShowcase.tsnClock.eth[0].macLayer.fcsChecker droppedPacketLengths:histogram
field count 0
field mean -nan
field stddev nan
field min nan
field max nan
field sum 0
field sqrsum 0
attr interpolationmode none
attr recordingmode histogram
attr source packetLength(packetDropped)
attr title "dropped packet lengths"
attr unit b
bin	-inf	0
bin	0	0
bin	1	0
scalar OneMasterClockGptpShowcase.tsnClock.eth[0].macLayer.fcsChecker flowDroppedPacketLengths:sum 0
attr interpolationmode none
attr recordingmode sum
attr source packetLength(demuxFlow(packetDropped))
attr title "flow specific dropped packet lengths, sum"
attr unit b
statistic OneMasterClockGptpShowcase.tsnClock.eth[0].macLayer.fcsChecker flowDroppedPacketLengths:histogram
field count 0
field mean -nan
field stddev nan
field min nan
field max nan
field sum 0
field sqrsum 0
attr interpolationmode none
attr recordingmode histogram
attr source packetLength(demuxFlow(packetDropped))
attr title "flow specific dropped packet lengths"
attr unit b
bin	-inf	0
bin	0	0
bin	1	0
scalar OneMasterClockGptpShowcase.tsnClock.eth[0].macLayer.inboundEmitter outgoingPackets:count 2
attr recordingmode count
attr source "merge(packetPushedOut, packetPulledOut)"
attr title "outgoing packets, count"
attr unit pk
scalar OneMasterClockGptpShowcase.tsnClock.eth[0].macLayer.inboundEmitter outgoingPacketLengths:sum 1152
attr interpolationmode none
attr recordingmode sum
attr source "packetLength(merge(packetPushedOut, packetPulledOut))"
attr title "outgoing packet lengths, sum"
attr unit b
statistic OneMasterClockGptpShowcase.tsnClock.eth[0].macLayer.inboundEmitter outgoingPacketLengths:histogram
field count 2
field mean 576
field stddev 0
field min 576
field max 576
field sum 1152
field sqrsum 663552
attr interpolationmode none
attr recordingmode histogram
attr source "packetLength(merge(packetPushedOut, packetPulledOut))"
attr title "outgoing packet lengths"
attr unit b
bin	-inf	0
bin	575	0
bin	576	2
bin	577	0
scalar OneMasterClockGptpShowcase.tsnClock.eth[0].macLayer.inboundEmitter flowOutgoingPacketLengths:sum 0
attr interpolationmode none
attr recordingmode sum
attr source "packetLength(demuxFlow(merge(packetPushedOut, packetPulledOut)))"
attr title "flow specific outgoing packet lengths, sum"
attr unit b
statistic OneMasterClockGptpShowcase.tsnClock.eth[0].macLayer.inboundEmitter flowOutgoingPacketLengths:histogram
field count 0
field mean -nan
field stddev nan
field min nan
field max nan
field sum 0
field sqrsum 0
attr interpolationmode none
attr recordingmode histogram
attr source "packetLength(demuxFlow(merge(packetPushedOut, packetPulledOut)))"
attr title "flow specific outgoing packet lengths"
attr unit b
bin	-inf	0
bin	0	0
bin	1	0
scalar OneMasterClockGptpShowcase.tsnClock.eth[0].macLayer.inboundEmitter incomingPackets:count 2
attr recordingmode count
attr source "merge(packetPushedIn, packetPulledIn)"
attr title "incoming packets, count"
attr unit pk
scalar OneMasterClockGptpShowcase.tsnClock.eth[0].macLayer.inboundEmitter incomingPacketLengths:sum 1152
attr interpolationmode none
attr recordingmode sum
attr source "packetLength(merge(packetPushedIn, packetPulledIn))"
attr title "incoming packet lengths, sum"
attr unit b
statistic OneMasterClockGptpShowcase.tsnClock.eth[0].macLayer.inboundEmitter incomingPacketLengths:histogram
field count 2
field mean 576
field stddev 0
field min 576
field max 576
field sum 1152
field sqrsum 663552
attr interpolationmode none
attr recordingmode histogram
attr source "packetLength(merge(packetPushedIn, packetPulledIn))"
attr title "incoming packet lengths"
attr unit b
bin	-inf	0
bin	575	0
bin	576	2
bin	577	0
scalar OneMasterClockGptpShowcase.tsnClock.eth[0].macLayer.inboundEmitter flowIncomingPacketLengths:sum 0
attr interpolationmode none
attr recordingmode sum
attr source "packetLength(demuxFlow(merge(packetPushedIn, packetPulledIn)))"
attr title "flow specific incoming packet lengths, sum"
attr unit b
statistic OneMasterClockGptpShowcase.tsnClock.eth[0].macLayer.inboundEmitter flowIncomingPacketLengths:histogram
field count 0
field mean -nan
field stddev nan
field min nan
field max nan
field sum 0
field sqrsum 0
attr interpolationmode none
attr recordingmode histogram
attr source "packetLength(demuxFlow(merge(packetPushedIn, packetPulledIn)))"
attr title "flow specific incoming packet lengths"
attr unit b
bin	-inf	0
bin	0	0
bin	1	0
scalar OneMasterClockGptpShowcase.tsnClock.eth[0].phyLayer.phyHeaderInserter outgoingPackets:count 17
attr recordingmode count
attr source "merge(packetPushedOut, packetPulledOut)"
attr title "outgoing packets, count"
attr unit pk
scalar OneMasterClockGptpShowcase.tsnClock.eth[0].phyLayer.phyHeaderInserter outgoingPacketLengths:sum 11600
attr interpolationmode none
attr recordingmode sum
attr source "packetLength(merge(packetPushedOut, packetPulledOut))"
attr title "outgoing packet lengths, sum"
attr unit b
statistic OneMasterClockGptpShowcase.tsnClock.eth[0].phyLayer.phyHeaderInserter outgoingPacketLengths:histogram
field count 17
field mean 682.35294117647
field stddev 117.0218682429
field min 576
field max 816
field sum 11600
field sqrsum 8134400
attr interpolationmode none
attr recordingmode histogram
attr source "packetLength(merge(packetPushedOut, packetPulledOut))"
attr title "outgoing packet lengths"
attr unit b
bin	-inf	0
bin	515	0
bin	520	0
bin	525	0
bin	530	0
bin	535	0
bin	540	0
bin	545	0
bin	550	0
bin	555	0
bin	560	0
bin	565	0
bin	570	0
bin	575	8
bin	580	0
bin	585	0
bin	590	0
bin	595	0
bin	600	0
bin	605	0
bin	610	0
bin	615	0
bin	620	0
bin	625	0
bin	630	0
bin	635	0
bin	640	2
bin	645	0
bin	650	0
bin	655	0
bin	660	0
bin	665	0
bin	670	0
bin	675	0
bin	680	0
bin	685	0
bin	690	0
bin	695	0
bin	700	0
bin	705	0
bin	710	0
bin	715	0
bin	720	0
bin	725	0
bin	730	0
bin	735	0
bin	740	0
bin	745	0
bin	750	0
bin	755	0
bin	760	0
bin	765	0
bin	770	0
bin	775	0
bin	780	0
bin	785	0
bin	790	0
bin	795	0
bin	800	0
bin	805	0
bin	810	0
bin	815	7
bin	820	0
bin	825	0
bin	830	0
bin	835	0
bin	840	0
bin	845	0
bin	850	0
bin	855	0
bin	860	0
bin	865	0
bin	870	0
bin	875	0
bin	880	0
scalar OneMasterClockGptpShowcase.tsnClock.eth[0].phyLayer.phyHeaderInserter flowOutgoingPacketLengths:sum 0
attr interpolationmode none
attr recordingmode sum
attr source "packetLength(demuxFlow(merge(packetPushedOut, packetPulledOut)))"
attr title "flow specific outgoing packet lengths, sum"
attr unit b
statistic OneMasterClockGptpShowcase.tsnClock.eth[0].phyLayer.phyHeaderInserter flowOutgoingPacketLengths:histogram
field count 0
field mean -nan
field stddev nan
field min nan
field max nan
field sum 0
field sqrsum 0
attr interpolationmode none
attr recordingmode histogram
attr source "packetLength(demuxFlow(merge(packetPushedOut, packetPulledOut)))"
attr title "flow specific outgoing packet lengths"
attr unit b
bin	-inf	0
bin	0	0
bin	1	0
scalar OneMasterClockGptpShowcase.tsnClock.eth[0].phyLayer.phyHeaderInserter incomingPackets:count 17
attr recordingmode count
attr source "merge(packetPushedIn, packetPulledIn)"
attr title "incoming packets, count"
attr unit pk
scalar OneMasterClockGptpShowcase.tsnClock.eth[0].phyLayer.phyHeaderInserter incomingPacketLengths:sum 10512
attr interpolationmode none
attr recordingmode sum
attr source "packetLength(merge(packetPushedIn, packetPulledIn))"
attr title "incoming packet lengths, sum"
attr unit b
statistic OneMasterClockGptpShowcase.tsnClock.eth[0].phyLayer.phyHeaderInserter incomingPacketLengths:histogram
field count 17
field mean 618.35294117647
field stddev 117.0218682429
field min 512
field max 752
field sum 10512
field sqrsum 6719232
attr interpolationmode none
attr recordingmode histogram
attr source "packetLength(merge(packetPushedIn, packetPulledIn))"
attr title "incoming packet lengths"
attr unit b
bin	-inf	0
bin	450	0
bin	455	0
bin	460	0
bin	465	0
bin	470	0
bin	475	0
bin	480	0
bin	485	0
bin	490	0
bin	495	0
bin	500	0
bin	505	0
bin	510	8
bin	515	0
bin	520	0
bin	525	0
bin	530	0
bin	535	0
bin	540	0
bin	545	0
bin	550	0
bin	555	0
bin	560	0
bin	565	0
bin	570	0
bin	575	2
bin	580	0
bin	585	0
bin	590	0
bin	595	0
bin	600	0
bin	605	0
bin	610	0
bin	615	0
bin	620	0
bin	625	0
bin	630	0
bin	635	0
bin	640	0
bin	645	0
bin	650	0
bin	655	0
bin	660	0
bin	665	0
bin	670	0
bin	675	0
bin	680	0
bin	685	0
bin	690	0
bin	695	0
bin	700	0
bin	705	0
bin	710	0
bin	715	0
bin	720	0
bin	725	0
bin	730	0
bin	735	0
bin	740	0
bin	745	0
bin	750	7
bin	755	0
bin	760	0
bin	765	0
bin	770	0
bin	775	0
bin	780	0
bin	785	0
bin	790	0
bin	795	0
bin	800	0
bin	805	0
bin	810	0
bin	815	0
scalar OneMasterClockGptpShowcase.tsnClock.eth[0].phyLayer.phyHeaderInserter flowIncomingPacketLengths:sum 0
attr interpolationmode none
attr recordingmode sum
attr source "packetLength(demuxFlow(merge(packetPushedIn, packetPulledIn)))"
attr title "flow specific incoming packet lengths, sum"
attr unit b
statistic OneMasterClockGptpShowcase.tsnClock.eth[0].phyLayer.phyHeaderInserter flowIncomingPacketLengths:histogram
field count 0
field mean -nan
field stddev nan
field min nan
field max nan
field sum 0
field sqrsum 0
attr interpolationmode none
attr recordingmode histogram
attr source "packetLength(demuxFlow(merge(packetPushedIn, packetPulledIn)))"
attr title "flow specific incoming packet lengths"
attr unit b
bin	-inf	0
bin	0	0
bin	1	0
scalar OneMasterClockGptpShowcase.tsnClock.eth[0].phyLayer.outboundEmitter outgoingPackets:count 17
attr recordingmode count
attr source "merge(packetPushedOut, packetPulledOut)"
attr title "outgoing packets, count"
attr unit pk
scalar OneMasterClockGptpShowcase.tsnClock.eth[0].phyLayer.outboundEmitter outgoingPacketLengths:sum 11600
attr interpolationmode none
attr recordingmode sum
attr source "packetLength(merge(packetPushedOut, packetPulledOut))"
attr title "outgoing packet lengths, sum"
attr unit b
statistic OneMasterClockGptpShowcase.tsnClock.eth[0].phyLayer.outboundEmitter outgoingPacketLengths:histogram
field count 17
field mean 682.35294117647
field stddev 117.0218682429
field min 576
field max 816
field sum 11600
field sqrsum 8134400
attr interpolationmode none
attr recordingmode histogram
attr source "packetLength(merge(packetPushedOut, packetPulledOut))"
attr title "outgoing packet lengths"
attr unit b
bin	-inf	0
bin	515	0
bin	520	0
bin	525	0
bin	530	0
bin	535	0
bin	540	0
bin	545	0
bin	550	0
bin	555	0
bin	560	0
bin	565	0
bin	570	0
bin	575	8
bin	580	0
bin	585	0
bin	590	0
bin	595	0
bin	600	0
bin	605	0
bin	610	0
bin	615	0
bin	620	0
bin	625	0
bin	630	0
bin	635	0
bin	640	2
bin	645	0
bin	650	0
bin	655	0
bin	660	0
bin	665	0
bin	670	0
bin	675	0
bin	680	0
bin	685	0
bin	690	0
bin	695	0
bin	700	0
bin	705	0
bin	710	0
bin	715	0
bin	720	0
bin	725	0
bin	730	0
bin	735	0
bin	740	0
bin	745	0
bin	750	0
bin	755	0
bin	760	0
bin	765	0
bin	770	0
bin	775	0
bin	780	0
bin	785	0
bin	790	0
bin	795	0
bin	800	0
bin	805	0
bin	810	0
bin	815	7
bin	820	0
bin	825	0
bin	830	0
bin	835	0
bin	840	0
bin	845	0
bin	850	0
bin	855	0
bin	860	0
bin	865	0
bin	870	0
bin	875	0
bin	880	0
scalar OneMasterClockGptpShowcase.tsnClock.eth[0].phyLayer.outboundEmitter flowOutgoingPacketLengths:sum 0
attr interpolationmode none
attr recordingmode sum
attr source "packetLength(demuxFlow(merge(packetPushedOut, packetPulledOut)))"
attr title "flow specific outgoing packet lengths, sum"
attr unit b
statistic OneMasterClockGptpShowcase.tsnClock.eth[0].phyLayer.outboundEmitter flowOutgoingPacketLengths:histogram
field count 0
field mean -nan
field stddev nan
field min nan
field max nan
field sum 0
field sqrsum 0
attr interpolationmode none
attr recordingmode histogram
attr source "packetLength(demuxFlow(merge(packetPushedOut, packetPulledOut)))"
attr title "flow specific outgoing packet lengths"
attr unit b
bin	-inf	0
bin	0	0
bin	1	0
scalar OneMasterClockGptpShowcase.tsnClock.eth[0].phyLayer.outboundEmitter incomingPackets:count 17
attr recordingmode count
attr source "merge(packetPushedIn, packetPulledIn)"
attr title "incoming packets, count"
attr unit pk
scalar OneMasterClockGptpShowcase.tsnClock.eth[0].phyLayer.outboundEmitter incomingPacketLengths:sum 11600
attr interpolationmode none
attr recordingmode sum
attr source "packetLength(merge(packetPushedIn, packetPulledIn))"
attr title "incoming packet lengths, sum"
attr unit b
statistic OneMasterClockGptpShowcase.tsnClock.eth[0].phyLayer.outboundEmitter incomingPacketLengths:histogram
field count 17
field mean 682.35294117647
field stddev 117.0218682429
field min 576
field max 816
field sum 11600
field sqrsum 8134400
attr interpolationmode none
attr recordingmode histogram
attr source "packetLength(merge(packetPushedIn, packetPulledIn))"
attr title "incoming packet lengths"
attr unit b
bin	-inf	0
bin	515	0
bin	520	0
bin	525	0
bin	530	0
bin	535	0
bin	540	0
bin	545	0
bin	550	0
bin	555	0
bin	560	0
bin	565	0
bin	570	0
bin	575	8
bin	580	0
bin	585	0
bin	590	0
bin	595	0
bin	600	0
bin	605	0
bin	610	0
bin	615	0
bin	620	0
bin	625	0
bin	630	0
bin	635	0
bin	640	2
bin	645	0
bin	650	0
bin	655	0
bin	660	0
bin	665	0
bin	670	0
bin	675	0
bin	680	0
bin	685	0
bin	690	0
bin	695	0
bin	700	0
bin	705	0
bin	710	0
bin	715	0
bin	720	0
bin	725	0
bin	730	0
bin	735	0
bin	740	0
bin	745	0
bin	750	0
bin	755	0
bin	760	0
bin	765	0
bin	770	0
bin	775	0
bin	780	0
bin	785	0
bin	790	0
bin	795	0
bin	800	0
bin	805	0
bin	810	0
bin	815	7
bin	820	0
bin	825	0
bin	830	0
bin	835	0
bin	840	0
bin	845	0
bin	850	0
bin	855	0
bin	860	0
bin	865	0
bin	870	0
bin	875	0
bin	880	0
scalar OneMasterClockGptpShowcase.tsnClock.eth[0].phyLayer.outboundEmitter flowIncomingPacketLengths:sum 0
attr interpolationmode none
attr recordingmode sum
attr source "packetLength(demuxFlow(merge(packetPushedIn, packetPulledIn)))"
attr title "flow specific incoming packet lengths, sum"
attr unit b
statistic OneMasterClockGptpShowcase.tsnClock.eth[0].phyLayer.outboundEmitter flowIncomingPacketLengths:histogram
field count 0
field mean -nan
field stddev nan
field min nan
field max nan
field sum 0
field sqrsum 0
attr interpolationmode none
attr recordingmode histogram
attr source "packetLength(demuxFlow(merge(packetPushedIn, packetPulledIn)))"
attr title "flow specific incoming packet lengths"
attr unit b
bin	-inf	0
bin	0	0
bin	1	0
scalar OneMasterClockGptpShowcase.tsnClock.eth[0].phyLayer.transmitter propagationTime 5e-08
statistic OneMasterClockGptpShowcase.tsnClock.eth[0].phyLayer.transmitter throughput:histogram
field count 10
field mean 11024
field stddev 5820.6437215598
field min 0
field max 13920
field sum 110240
field sqrsum 1520204800
attr interpolationmode linear
attr recordingmode histogram
attr source throughput(transmissionEnded)
attr title throughput
attr unit bps
bin	-inf	0
bin	0	2
bin	200	0
bin	400	0
bin	600	0
bin	800	0
bin	1000	0
bin	1200	0
bin	1400	0
bin	1600	0
bin	1800	0
bin	2000	0
bin	2200	0
bin	2400	0
bin	2600	0
bin	2800	0
bin	3000	0
bin	3200	0
bin	3400	0
bin	3600	0
bin	3800	0
bin	4000	0
bin	4200	0
bin	4400	0
bin	4600	0
bin	4800	0
bin	5000	0
bin	5200	0
bin	5400	0
bin	5600	0
bin	5800	0
bin	6000	0
bin	6200	0
bin	6400	0
bin	6600	0
bin	6800	0
bin	7000	0
bin	7200	0
bin	7400	0
bin	7600	0
bin	7800	0
bin	8000	0
bin	8200	0
bin	8400	0
bin	8600	0
bin	8800	0
bin	9000	0
bin	9200	0
bin	9400	0
bin	9600	0
bin	9800	0
bin	10000	0
bin	10200	0
bin	10400	0
bin	10600	0
bin	10800	0
bin	11000	0
bin	11200	0
bin	11400	0
bin	11600	0
bin	11800	0
bin	12000	0
bin	12200	0
bin	12400	0
bin	12600	0
bin	12800	1
bin	13000	0
bin	13200	0
bin	13400	0
bin	13600	0
bin	13800	7
bin	14000	0
bin	14200	0
bin	14400	0
bin	14600	0
bin	14800	0
bin	15000	0
bin	15200	0
bin	15400	0
bin	15600	0
bin	15800	0
bin	16000	0
bin	16200	0
bin	16400	0
bin	16600	0
bin	16800	0
bin	17000	0
bin	17200	0
bin	17400	0
bin	17600	0
statistic OneMasterClockGptpShowcase.tsnClock.eth[0].phyLayer.transmitter utilization:histogram
field count 10
field mean 0.0114979919
field stddev 0.004530869598871
field min 0.001436923
field max 0.01392
field sum 0.114979919
field sqrsum 0.0015067971912224
attr interpolationmode linear
attr recordingmode histogram
attr source "100 * utilization(count(transmissionStarted) - count(transmissionEnded))"
attr title utilization
attr unit %
bin	-inf	0
bin	0	0
bin	0.0002	0
bin	0.0004	0
bin	0.0006	0
bin	0.0008	0
bin	0.001	0
bin	0.0012	0
bin	0.0014	1
bin	0.0016	0
bin	0.0018	0
bin	0.002	0
bin	0.0022	0
bin	0.0024	0
bin	0.0026	0
bin	0.0028	0
bin	0.003	0
bin	0.0032	0
bin	0.0034	0
bin	0.0036	0
bin	0.0038	0
bin	0.004	0
bin	0.0042	0
bin	0.0044	0
bin	0.0046	1
bin	0.0048	0
bin	0.005	0
bin	0.0052	0
bin	0.0054	0
bin	0.0056	0
bin	0.0058	0
bin	0.006	0
bin	0.0062	0
bin	0.0064	0
bin	0.0066	0
bin	0.0068	0
bin	0.007	0
bin	0.0072	0
bin	0.0074	0
bin	0.0076	0
bin	0.0078	0
bin	0.008	0
bin	0.0082	0
bin	0.0084	0
bin	0.0086	0
bin	0.0088	0
bin	0.009	0
bin	0.0092	0
bin	0.0094	0
bin	0.0096	0
bin	0.0098	0
bin	0.01	0
bin	0.0102	0
bin	0.0104	0
bin	0.0106	0
bin	0.0108	0
bin	0.011	0
bin	0.0112	0
bin	0.0114	0
bin	0.0116	0
bin	0.0118	0
bin	0.012	0
bin	0.0122	0
bin	0.0124	1
bin	0.0126	1
bin	0.0128	0
bin	0.013	0
bin	0.0132	0
bin	0.0134	0
bin	0.0136	0
bin	0.0138	6
bin	0.014	0
bin	0.0142	0
bin	0.0144	0
bin	0.0146	0
bin	0.0148	0
bin	0.015	0
bin	0.0152	0
bin	0.0154	0
bin	0.0156	0
bin	0.0158	0
bin	0.016	0
bin	0.0162	0
bin	0.0164	0
bin	0.0166	0
bin	0.0168	0
bin	0.017	0
bin	0.0172	0
statistic OneMasterClockGptpShowcase.tsnClock.eth[0].phyLayer.transmitter transmissionTime:histogram
field count 16
field mean 6.89e-06
field stddev 1.17498368783e-06
field min 5.76e-06
field max 8.16e-06
field sum 0.00011024
field sqrsum 7.802624e-10
attr interpolationmode none
attr recordingmode histogram
attr source packetDuration(transmissionEnded)
attr title "transmission time"
attr unit s
bin	-inf	0
bin	5.15e-06	0
bin	5.2e-06	0
bin	5.25e-06	0
bin	5.3e-06	0
bin	5.35e-06	0
bin	5.4e-06	0
bin	5.45e-06	0
bin	5.5e-06	0
bin	5.55e-06	0
bin	5.6e-06	0
bin	5.65e-06	0
bin	5.7e-06	0
bin	5.75e-06	7
bin	5.8e-06	0
bin	5.85e-06	0
bin	5.9e-06	0
bin	5.95e-06	0
bin	6e-06	0
bin	6.05e-06	0
bin	6.1e-06	0
bin	6.15e-06	0
bin	6.2e-06	0
bin	6.25e-06	0
bin	6.3e-06	0
bin	6.35e-06	2
bin	6.4e-06	0
bin	6.45e-06	0
bin	6.5e-06	0
bin	6.55e-06	0
bin	6.6e-06	0
bin	6.65e-06	0
bin	6.7e-06	0
bin	6.75e-06	0
bin	6.8e-06	0
bin	6.85e-06	0
bin	6.9e-06	0
bin	6.95e-06	0
bin	7e-06	0
bin	7.05e-06	0
bin	7.1e-06	0
bin	7.15e-06	0
bin	7.2e-06	0
bin	7.25e-06	0
bin	7.3e-06	0
bin	7.35e-06	0
bin	7.4e-06	0
bin	7.45e-06	0
bin	7.5e-06	0
bin	7.55e-06	0
bin	7.6e-06	0
bin	7.65e-06	0
bin	7.7e-06	0
bin	7.75e-06	0
bin	7.8e-06	0
bin	7.85e-06	0
bin	7.9e-06	0
bin	7.95e-06	0
bin	8e-06	0
bin	8.05e-06	0
bin	8.1e-06	0
bin	8.15e-06	7
bin	8.2e-06	0
bin	8.25e-06	0
bin	8.3e-06	0
bin	8.35e-06	0
bin	8.4e-06	0
bin	8.45e-06	0
bin	8.5e-06	0
bin	8.55e-06	0
bin	8.6e-06	0
bin	8.65e-06	0
bin	8.7e-06	0
bin	8.75e-06	0
bin	8.8e-06	0
statistic OneMasterClockGptpShowcase.tsnClock.eth[0].phyLayer.transmitter flowTransmissionTime:histogram
field count 0
field mean -nan
field stddev nan
field min nan
field max nan
field sum 0
field sqrsum 0
attr interpolationmode none
attr recordingmode histogram
attr source packetDuration(demuxFlow(transmissionEnded))
attr title "flow transmission time"
attr unit s
bin	-inf	0
bin	0	0
bin	1	0
scalar OneMasterClockGptpShowcase.tsnClock.eth[0].phyLayer.phyHeaderChecker outgoingPackets:count 2
attr recordingmode count
attr source "merge(packetPushedOut, packetPulledOut)"
attr title "outgoing packets, count"
attr unit pk
scalar OneMasterClockGptpShowcase.tsnClock.eth[0].phyLayer.phyHeaderChecker outgoingPacketLengths:sum 1152
attr interpolationmode none
attr recordingmode sum
attr source "packetLength(merge(packetPushedOut, packetPulledOut))"
attr title "outgoing packet lengths, sum"
attr unit b
statistic OneMasterClockGptpShowcase.tsnClock.eth[0].phyLayer.phyHeaderChecker outgoingPacketLengths:histogram
field count 2
field mean 576
field stddev 0
field min 576
field max 576
field sum 1152
field sqrsum 663552
attr interpolationmode none
attr recordingmode histogram
attr source "packetLength(merge(packetPushedOut, packetPulledOut))"
attr title "outgoing packet lengths"
attr unit b
bin	-inf	0
bin	575	0
bin	576	2
bin	577	0
scalar OneMasterClockGptpShowcase.tsnClock.eth[0].phyLayer.phyHeaderChecker flowOutgoingPacketLengths:sum 0
attr interpolationmode none
attr recordingmode sum
attr source "packetLength(demuxFlow(merge(packetPushedOut, packetPulledOut)))"
attr title "flow specific outgoing packet lengths, sum"
attr unit b
statistic OneMasterClockGptpShowcase.tsnClock.eth[0].phyLayer.phyHeaderChecker flowOutgoingPacketLengths:histogram
field count 0
field mean -nan
field stddev nan
field min nan
field max nan
field sum 0
field sqrsum 0
attr interpolationmode none
attr recordingmode histogram
attr source "packetLength(demuxFlow(merge(packetPushedOut, packetPulledOut)))"
attr title "flow specific outgoing packet lengths"
attr unit b
bin	-inf	0
bin	0	0
bin	1	0
scalar OneMasterClockGptpShowcase.tsnClock.eth[0].phyLayer.phyHeaderChecker incomingPackets:count 2
attr recordingmode count
attr source "merge(packetPushedIn, packetPulledIn)"
attr title "incoming packets, count"
attr unit pk
scalar OneMasterClockGptpShowcase.tsnClock.eth[0].phyLayer.phyHeaderChecker incomingPacketLengths:sum 1280
attr interpolationmode none
attr recordingmode sum
attr source "packetLength(merge(packetPushedIn, packetPulledIn))"
attr title "incoming packet lengths, sum"
attr unit b
statistic OneMasterClockGptpShowcase.tsnClock.eth[0].phyLayer.phyHeaderChecker incomingPacketLengths:histogram
field count 2
field mean 640
field stddev 0
field min 640
field max 640
field sum 1280
field sqrsum 819200
attr interpolationmode none
attr recordingmode histogram
attr source "packetLength(merge(packetPushedIn, packetPulledIn))"
attr title "incoming packet lengths"
attr unit b
bin	-inf	0
bin	639	0
bin	640	2
bin	641	0
scalar OneMasterClockGptpShowcase.tsnClock.eth[0].phyLayer.phyHeaderChecker flowIncomingPacketLengths:sum 0
attr interpolationmode none
attr recordingmode sum
attr source "packetLength(demuxFlow(merge(packetPushedIn, packetPulledIn)))"
attr title "flow specific incoming packet lengths, sum"
attr unit b
statistic OneMasterClockGptpShowcase.tsnClock.eth[0].phyLayer.phyHeaderChecker flowIncomingPacketLengths:histogram
field count 0
field mean -nan
field stddev nan
field min nan
field max nan
field sum 0
field sqrsum 0
attr interpolationmode none
attr recordingmode histogram
attr source "packetLength(demuxFlow(merge(packetPushedIn, packetPulledIn)))"
attr title "flow specific incoming packet lengths"
attr unit b
bin	-inf	0
bin	0	0
bin	1	0
scalar OneMasterClockGptpShowcase.tsnClock.eth[0].phyLayer.phyHeaderChecker droppedPackets:count 0
attr recordingmode count
attr source packetDropped
attr title "dropped packets, count"
attr unit pk
scalar OneMasterClockGptpShowcase.tsnClock.eth[0].phyLayer.phyHeaderChecker droppedPacketLengths:sum 0
attr interpolationmode none
attr recordingmode sum
attr source packetLength(packetDropped)
attr title "dropped packet lengths, sum"
attr unit b
statistic OneMasterClockGptpShowcase.tsnClock.eth[0].phyLayer.phyHeaderChecker droppedPacketLengths:histogram
field count 0
field mean -nan
field stddev nan
field min nan
field max nan
field sum 0
field sqrsum 0
attr interpolationmode none
attr recordingmode histogram
attr source packetLength(packetDropped)
attr title "dropped packet lengths"
attr unit b
bin	-inf	0
bin	0	0
bin	1	0
scalar OneMasterClockGptpShowcase.tsnClock.eth[0].phyLayer.phyHeaderChecker flowDroppedPacketLengths:sum 0
attr interpolationmode none
attr recordingmode sum
attr source packetLength(demuxFlow(packetDropped))
attr title "flow specific dropped packet lengths, sum"
attr unit b
statistic OneMasterClockGptpShowcase.tsnClock.eth[0].phyLayer.phyHeaderChecker flowDroppedPacketLengths:histogram
field count 0
field mean -nan
field stddev nan
field min nan
field max nan
field sum 0
field sqrsum 0
attr interpolationmode none
attr recordingmode histogram
attr source packetLength(demuxFlow(packetDropped))
attr title "flow specific dropped packet lengths"
attr unit b
bin	-inf	0
bin	0	0
bin	1	0
scalar OneMasterClockGptpShowcase.tsnClock.eth[0].phyLayer.inboundEmitter outgoingPackets:count 2
attr recordingmode count
attr source "merge(packetPushedOut, packetPulledOut)"
attr title "outgoing packets, count"
attr unit pk
scalar OneMasterClockGptpShowcase.tsnClock.eth[0].phyLayer.inboundEmitter outgoingPacketLengths:sum 1280
attr interpolationmode none
attr recordingmode sum
attr source "packetLength(merge(packetPushedOut, packetPulledOut))"
attr title "outgoing packet lengths, sum"
attr unit b
statistic OneMasterClockGptpShowcase.tsnClock.eth[0].phyLayer.inboundEmitter outgoingPacketLengths:histogram
field count 2
field mean 640
field stddev 0
field min 640
field max 640
field sum 1280
field sqrsum 819200
attr interpolationmode none
attr recordingmode histogram
attr source "packetLength(merge(packetPushedOut, packetPulledOut))"
attr title "outgoing packet lengths"
attr unit b
bin	-inf	0
bin	639	0
bin	640	2
bin	641	0
scalar OneMasterClockGptpShowcase.tsnClock.eth[0].phyLayer.inboundEmitter flowOutgoingPacketLengths:sum 0
attr interpolationmode none
attr recordingmode sum
attr source "packetLength(demuxFlow(merge(packetPushedOut, packetPulledOut)))"
attr title "flow specific outgoing packet lengths, sum"
attr unit b
statistic OneMasterClockGptpShowcase.tsnClock.eth[0].phyLayer.inboundEmitter flowOutgoingPacketLengths:histogram
field count 0
field mean -nan
field stddev nan
field min nan
field max nan
field sum 0
field sqrsum 0
attr interpolationmode none
attr recordingmode histogram
attr source "packetLength(demuxFlow(merge(packetPushedOut, packetPulledOut)))"
attr title "flow specific outgoing packet lengths"
attr unit b
bin	-inf	0
bin	0	0
bin	1	0
scalar OneMasterClockGptpShowcase.tsnClock.eth[0].phyLayer.inboundEmitter incomingPackets:count 2
attr recordingmode count
attr source "merge(packetPushedIn, packetPulledIn)"
attr title "incoming packets, count"
attr unit pk
scalar OneMasterClockGptpShowcase.tsnClock.eth[0].phyLayer.inboundEmitter incomingPacketLengths:sum 1280
attr interpolationmode none
attr recordingmode sum
attr source "packetLength(merge(packetPushedIn, packetPulledIn))"
attr title "incoming packet lengths, sum"
attr unit b
statistic OneMasterClockGptpShowcase.tsnClock.eth[0].phyLayer.inboundEmitter incomingPacketLengths:histogram
field count 2
field mean 640
field stddev 0
field min 640
field max 640
field sum 1280
field sqrsum 819200
attr interpolationmode none
attr recordingmode histogram
attr source "packetLength(merge(packetPushedIn, packetPulledIn))"
attr title "incoming packet lengths"
attr unit b
bin	-inf	0
bin	639	0
bin	640	2
bin	641	0
scalar OneMasterClockGptpShowcase.tsnClock.eth[0].phyLayer.inboundEmitter flowIncomingPacketLengths:sum 0
attr interpolationmode none
attr recordingmode sum
attr source "packetLength(demuxFlow(merge(packetPushedIn, packetPulledIn)))"
attr title "flow specific incoming packet lengths, sum"
attr unit b
statistic OneMasterClockGptpShowcase.tsnClock.eth[0].phyLayer.inboundEmitter flowIncomingPacketLengths:histogram
field count 0
field mean -nan
field stddev nan
field min nan
field max nan
field sum 0
field sqrsum 0
attr interpolationmode none
attr recordingmode histogram
attr source "packetLength(demuxFlow(merge(packetPushedIn, packetPulledIn)))"
attr title "flow specific incoming packet lengths"
attr unit b
bin	-inf	0
bin	0	0
bin	1	0
statistic OneMasterClockGptpShowcase.tsnClock.eth[0].phyLayer.receiver throughput:histogram
field count 10
field mean 1280
field stddev 2698.476936677
field min 0
field max 6400
field sum 12800
field sqrsum 81920000
attr interpolationmode linear
attr recordingmode histogram
attr source throughput(receptionEnded)
attr title throughput
attr unit bps
bin	-inf	0
bin	0	8
bin	100	0
bin	200	0
bin	300	0
bin	400	0
bin	500	0
bin	600	0
bin	700	0
bin	800	0
bin	900	0
bin	1000	0
bin	1100	0
bin	1200	0
bin	1300	0
bin	1400	0
bin	1500	0
bin	1600	0
bin	1700	0
bin	1800	0
bin	1900	0
bin	2000	0
bin	2100	0
bin	2200	0
bin	2300	0
bin	2400	0
bin	2500	0
bin	2600	0
bin	2700	0
bin	2800	0
bin	2900	0
bin	3000	0
bin	3100	0
bin	3200	0
bin	3300	0
bin	3400	0
bin	3500	0
bin	3600	0
bin	3700	0
bin	3800	0
bin	3900	0
bin	4000	0
bin	4100	0
bin	4200	0
bin	4300	0
bin	4400	0
bin	4500	0
bin	4600	0
bin	4700	0
bin	4800	0
bin	4900	0
bin	5000	0
bin	5100	0
bin	5200	0
bin	5300	0
bin	5400	0
bin	5500	0
bin	5600	0
bin	5700	0
bin	5800	0
bin	5900	0
bin	6000	0
bin	6100	0
bin	6200	0
bin	6300	0
bin	6400	2
bin	6500	0
bin	6600	0
bin	6700	0
bin	6800	0
bin	6900	0
bin	7000	0
bin	7100	0
bin	7200	0
bin	7300	0
bin	7400	0
bin	7500	0
bin	7600	0
bin	7700	0
bin	7800	0
bin	7900	0
bin	8000	0
bin	8100	0
statistic OneMasterClockGptpShowcase.tsnClock.eth[0].phyLayer.receiver receptionTime:histogram
field count 2
field mean 6.4e-06
field stddev 0
field min 6.4e-06
field max 6.4e-06
field sum 1.28e-05
field sqrsum 8.192e-11
attr interpolationmode none
attr recordingmode histogram
attr source packetDuration(receptionEnded)
attr title "reception time"
attr unit s
bin	-inf	0
bin	0	2
bin	0.01	0
bin	0.02	0
bin	0.03	0
bin	0.04	0
bin	0.05	0
bin	0.06	0
bin	0.07	0
bin	0.08	0
bin	0.09	0
bin	0.1	0
bin	0.11	0
bin	0.12	0
bin	0.13	0
bin	0.14	0
bin	0.15	0
bin	0.16	0
bin	0.17	0
bin	0.18	0
bin	0.19	0
bin	0.2	0
bin	0.21	0
bin	0.22	0
bin	0.23	0
bin	0.24	0
bin	0.25	0
bin	0.26	0
bin	0.27	0
bin	0.28	0
bin	0.29	0
bin	0.3	0
bin	0.31	0
bin	0.32	0
bin	0.33	0
bin	0.34	0
bin	0.35	0
bin	0.36	0
bin	0.37	0
bin	0.38	0
bin	0.39	0
bin	0.4	0
bin	0.41	0
bin	0.42	0
bin	0.43	0
bin	0.44	0
bin	0.45	0
bin	0.46	0
bin	0.47	0
bin	0.48	0
bin	0.49	0
bin	0.5	0
bin	0.51	0
statistic OneMasterClockGptpShowcase.tsnClock.eth[0].phyLayer.receiver flowReceptionTime:histogram
field count 0
field mean -nan
field stddev nan
field min nan
field max nan
field sum 0
field sqrsum 0
attr interpolationmode none
attr recordingmode histogram
attr source packetDuration(demuxFlow(receptionEnded))
attr title "flow reception time"
attr unit s
bin	-inf	0
bin	0	0
bin	1	0
scalar OneMasterClockGptpShowcase.tsnClock.eth[0] packetDropInterfaceDown:count 0
attr interpolationmode none
attr recordingmode count
attr source packetDropReasonIsInterfaceDown(packetDropped)
attr title "packet drops: interface down, count"
scalar OneMasterClockGptpShowcase.tsnClock.eth[0] packetDropInterfaceDown:sum(packetBytes) 0
attr interpolationmode none
attr recordingmode sum(packetBytes)
attr source packetDropReasonIsInterfaceDown(packetDropped)
attr title "packet drops: interface down, sum(packetBytes)"
scalar OneMasterClockGptpShowcase.tsnClock.eth[0] packetDropNoCarrier:count 0
attr interpolationmode none
attr recordingmode count
attr source packetDropReasonIsNoCarrier(packetDropped)
attr title "packet drops: no carrier, count"
scalar OneMasterClockGptpShowcase.tsnClock.eth[0] packetDropNoCarrier:sum(packetBytes) 0
attr interpolationmode none
attr recordingmode sum(packetBytes)
attr source packetDropReasonIsNoCarrier(packetDropped)
attr title "packet drops: no carrier, sum(packetBytes)"
scalar OneMasterClockGptpShowcase.tsnClock.ipv4.ip packetDropAddressResolutionFailed:count 0
attr interpolationmode none
attr recordingmode count
attr source packetDropReasonIsAddressResolutionFailed(packetDropped)
attr title "packet drop: address resolution failed, count"
scalar OneMasterClockGptpShowcase.tsnClock.ipv4.ip packetDropAddressResolutionFailed:sum(packetBytes) 0
attr interpolationmode none
attr recordingmode sum(packetBytes)
attr source packetDropReasonIsAddressResolutionFailed(packetDropped)
attr title "packet drop: address resolution failed, sum(packetBytes)"
scalar OneMasterClockGptpShowcase.tsnClock.ipv4.ip packetDropHopLimitReached:count 0
attr interpolationmode none
attr recordingmode count
attr source packetDropReasonIsHopLimitReached(packetDropped)
attr title "packet drop: hop limit reached, count"
scalar OneMasterClockGptpShowcase.tsnClock.ipv4.ip packetDropHopLimitReached:sum(packetBytes) 0
attr interpolationmode none
attr recordingmode sum(packetBytes)
attr source packetDropReasonIsHopLimitReached(packetDropped)
attr title "packet drop: hop limit reached, sum(packetBytes)"
scalar OneMasterClockGptpShowcase.tsnClock.ipv4.ip packetDropForwardingDisabled:count 0
attr interpolationmode none
attr recordingmode count
attr source packetDropReasonIsForwardingDisabled(packetDropped)
attr title "packet drop: forwarding disabled, count"
scalar OneMasterClockGptpShowcase.tsnClock.ipv4.ip packetDropForwardingDisabled:sum(packetBytes) 0
[...]
scalar OneMasterClockGptpShowcase.tsnDevice2.eth[0].phyLayer.phyHeaderChecker outgoingPacketLengths:sum 11152
attr interpolationmode none
attr recordingmode sum
attr source "packetLength(merge(packetPushedOut, packetPulledOut))"
attr title "outgoing packet lengths, sum"
attr unit b
statistic OneMasterClockGptpShowcase.tsnDevice2.eth[0].phyLayer.phyHeaderChecker outgoingPacketLengths:histogram
field count 18
field mean 619.55555555556
field stddev 111.50216153126
field min 512
field max 752
field sum 11152
field sqrsum 7120640
attr interpolationmode none
attr recordingmode histogram
attr source "packetLength(merge(packetPushedOut, packetPulledOut))"
attr title "outgoing packet lengths"
attr unit b
bin	-inf	0
bin	450	0
bin	455	0
bin	460	0
bin	465	0
bin	470	0
bin	475	0
bin	480	0
bin	485	0
bin	490	0
bin	495	0
bin	500	0
bin	505	0
bin	510	7
bin	515	0
bin	520	0
bin	525	0
bin	530	0
bin	535	0
bin	540	0
bin	545	0
bin	550	0
bin	555	0
bin	560	0
bin	565	0
bin	570	0
bin	575	4
bin	580	0
bin	585	0
bin	590	0
bin	595	0
bin	600	0
bin	605	0
bin	610	0
bin	615	0
bin	620	0
bin	625	0
bin	630	0
bin	635	0
bin	640	0
bin	645	0
bin	650	0
bin	655	0
bin	660	0
bin	665	0
bin	670	0
bin	675	0
bin	680	0
bin	685	0
bin	690	0
bin	695	0
bin	700	0
bin	705	0
bin	710	0
bin	715	0
bin	720	0
bin	725	0
bin	730	0
bin	735	0
bin	740	0
bin	745	0
bin	750	7
bin	755	0
bin	760	0
bin	765	0
bin	770	0
bin	775	0
bin	780	0
bin	785	0
bin	790	0
bin	795	0
bin	800	0
bin	805	0
bin	810	0
bin	815	0
scalar OneMasterClockGptpShowcase.tsnDevice2.eth[0].phyLayer.phyHeaderChecker flowOutgoingPacketLengths:sum 0
attr interpolationmode none
attr recordingmode sum
attr source "packetLength(demuxFlow(merge(packetPushedOut, packetPulledOut)))"
attr title "flow specific outgoing packet lengths, sum"
attr unit b
statistic OneMasterClockGptpShowcase.tsnDevice2.eth[0].phyLayer.phyHeaderChecker flowOutgoingPacketLengths:histogram
field count 0
field mean -nan
field stddev nan
field min nan
field max nan
field sum 0
field sqrsum 0
attr interpolationmode none
attr recordingmode histogram
attr source "packetLength(demuxFlow(merge(packetPushedOut, packetPulledOut)))"
attr title "flow specific outgoing packet lengths"
attr unit b
bin	-inf	0
bin	0	0
bin	1	0
scalar OneMasterClockGptpShowcase.tsnDevice2.eth[0].phyLayer.phyHeaderChecker incomingPackets:count 18
attr recordingmode count
attr source "merge(packetPushedIn, packetPulledIn)"
attr title "incoming packets, count"
attr unit pk
scalar OneMasterClockGptpShowcase.tsnDevice2.eth[0].phyLayer.phyHeaderChecker incomingPacketLengths:sum 12304
attr interpolationmode none
attr recordingmode sum
attr source "packetLength(merge(packetPushedIn, packetPulledIn))"
attr title "incoming packet lengths, sum"
attr unit b
statistic OneMasterClockGptpShowcase.tsnDevice2.eth[0].phyLayer.phyHeaderChecker incomingPacketLengths:histogram
field count 18
field mean 683.55555555556
field stddev 111.50216153126
field min 576
field max 816
field sum 12304
field sqrsum 8621824
attr interpolationmode none
attr recordingmode histogram
attr source "packetLength(merge(packetPushedIn, packetPulledIn))"
attr title "incoming packet lengths"
attr unit b
bin	-inf	0
bin	515	0
bin	520	0
bin	525	0
bin	530	0
bin	535	0
bin	540	0
bin	545	0
bin	550	0
bin	555	0
bin	560	0
bin	565	0
bin	570	0
bin	575	7
bin	580	0
bin	585	0
bin	590	0
bin	595	0
bin	600	0
bin	605	0
bin	610	0
bin	615	0
bin	620	0
bin	625	0
bin	630	0
bin	635	0
bin	640	4
bin	645	0
bin	650	0
bin	655	0
bin	660	0
bin	665	0
bin	670	0
bin	675	0
bin	680	0
bin	685	0
bin	690	0
bin	695	0
bin	700	0
bin	705	0
bin	710	0
bin	715	0
bin	720	0
bin	725	0
bin	730	0
bin	735	0
bin	740	0
bin	745	0
bin	750	0
bin	755	0
bin	760	0
bin	765	0
bin	770	0
bin	775	0
bin	780	0
bin	785	0
bin	790	0
bin	795	0
bin	800	0
bin	805	0
bin	810	0
bin	815	7
bin	820	0
bin	825	0
bin	830	0
bin	835	0
bin	840	0
bin	845	0
bin	850	0
bin	855	0
bin	860	0
bin	865	0
bin	870	0
bin	875	0
bin	880	0
scalar OneMasterClockGptpShowcase.tsnDevice2.eth[0].phyLayer.phyHeaderChecker flowIncomingPacketLengths:sum 0
attr interpolationmode none
attr recordingmode sum
attr source "packetLength(demuxFlow(merge(packetPushedIn, packetPulledIn)))"
attr title "flow specific incoming packet lengths, sum"
attr unit b
statistic OneMasterClockGptpShowcase.tsnDevice2.eth[0].phyLayer.phyHeaderChecker flowIncomingPacketLengths:histogram
field count 0
field mean -nan
field stddev nan
field min nan
field max nan
field sum 0
field sqrsum 0
attr interpolationmode none
attr recordingmode histogram
attr source "packetLength(demuxFlow(merge(packetPushedIn, packetPulledIn)))"
attr title "flow specific incoming packet lengths"
attr unit b
bin	-inf	0
bin	0	0
bin	1	0
scalar OneMasterClockGptpShowcase.tsnDevice2.eth[0].phyLayer.phyHeaderChecker droppedPackets:count 0
attr recordingmode count
attr source packetDropped
attr title "dropped packets, count"
attr unit pk
scalar OneMasterClockGptpShowcase.tsnDevice2.eth[0].phyLayer.phyHeaderChecker droppedPacketLengths:sum 0
attr interpolationmode none
attr recordingmode sum
attr source packetLength(packetDropped)
attr title "dropped packet lengths, sum"
attr unit b
statistic OneMasterClockGptpShowcase.tsnDevice2.eth[0].phyLayer.phyHeaderChecker droppedPacketLengths:histogram
field count 0
field mean -nan
field stddev nan
field min nan
field max nan
field sum 0
field sqrsum 0
attr interpolationmode none
attr recordingmode histogram
attr source packetLength(packetDropped)
attr title "dropped packet lengths"
attr unit b
bin	-inf	0
bin	0	0
bin	1	0
scalar OneMasterClockGptpShowcase.tsnDevice2.eth[0].phyLayer.phyHeaderChecker flowDroppedPacketLengths:sum 0
attr interpolationmode none
attr recordingmode sum
attr source packetLength(demuxFlow(packetDropped))
attr title "flow specific dropped packet lengths, sum"
attr unit b
statistic OneMasterClockGptpShowcase.tsnDevice2.eth[0].phyLayer.phyHeaderChecker flowDroppedPacketLengths:histogram
field count 0
field mean -nan
field stddev nan
field min nan
field max nan
field sum 0
field sqrsum 0
attr interpolationmode none
attr recordingmode histogram
attr source packetLength(demuxFlow(packetDropped))
attr title "flow specific dropped packet lengths"
attr unit b
bin	-inf	0
bin	0	0
bin	1	0
scalar OneMasterClockGptpShowcase.tsnDevice2.eth[0].phyLayer.inboundEmitter outgoingPackets:count 18
attr recordingmode count
attr source "merge(packetPushedOut, packetPulledOut)"
attr title "outgoing packets, count"
attr unit pk
scalar OneMasterClockGptpShowcase.tsnDevice2.eth[0].phyLayer.inboundEmitter outgoingPacketLengths:sum 12304
attr interpolationmode none
attr recordingmode sum
attr source "packetLength(merge(packetPushedOut, packetPulledOut))"
attr title "outgoing packet lengths, sum"
attr unit b
statistic OneMasterClockGptpShowcase.tsnDevice2.eth[0].phyLayer.inboundEmitter outgoingPacketLengths:histogram
field count 18
field mean 683.55555555556
field stddev 111.50216153126
field min 576
field max 816
field sum 12304
field sqrsum 8621824
attr interpolationmode none
attr recordingmode histogram
attr source "packetLength(merge(packetPushedOut, packetPulledOut))"
attr title "outgoing packet lengths"
attr unit b
bin	-inf	0
bin	515	0
bin	520	0
bin	525	0
bin	530	0
bin	535	0
bin	540	0
bin	545	0
bin	550	0
bin	555	0
bin	560	0
bin	565	0
bin	570	0
bin	575	7
bin	580	0
bin	585	0
bin	590	0
bin	595	0
bin	600	0
bin	605	0
bin	610	0
bin	615	0
bin	620	0
bin	625	0
bin	630	0
bin	635	0
bin	640	4
bin	645	0
bin	650	0
bin	655	0
bin	660	0
bin	665	0
bin	670	0
bin	675	0
bin	680	0
bin	685	0
bin	690	0
bin	695	0
bin	700	0
bin	705	0
bin	710	0
bin	715	0
bin	720	0
bin	725	0
bin	730	0
bin	735	0
bin	740	0
bin	745	0
bin	750	0
bin	755	0
bin	760	0
bin	765	0
bin	770	0
bin	775	0
bin	780	0
bin	785	0
bin	790	0
bin	795	0
bin	800	0
bin	805	0
bin	810	0
bin	815	7
bin	820	0
bin	825	0
bin	830	0
bin	835	0
bin	840	0
bin	845	0
bin	850	0
bin	855	0
bin	860	0
bin	865	0
bin	870	0
bin	875	0
bin	880	0
scalar OneMasterClockGptpShowcase.tsnDevice2.eth[0].phyLayer.inboundEmitter flowOutgoingPacketLengths:sum 0
attr interpolationmode none
attr recordingmode sum
attr source "packetLength(demuxFlow(merge(packetPushedOut, packetPulledOut)))"
attr title "flow specific outgoing packet lengths, sum"
attr unit b
statistic OneMasterClockGptpShowcase.tsnDevice2.eth[0].phyLayer.inboundEmitter flowOutgoingPacketLengths:histogram
field count 0
field mean -nan
field stddev nan
field min nan
field max nan
field sum 0
field sqrsum 0
attr interpolationmode none
attr recordingmode histogram
attr source "packetLength(demuxFlow(merge(packetPushedOut, packetPulledOut)))"
attr title "flow specific outgoing packet lengths"
attr unit b
bin	-inf	0
bin	0	0
bin	1	0
scalar OneMasterClockGptpShowcase.tsnDevice2.eth[0].phyLayer.inboundEmitter incomingPackets:count 18
attr recordingmode count
attr source "merge(packetPushedIn, packetPulledIn)"
attr title "incoming packets, count"
attr unit pk
scalar OneMasterClockGptpShowcase.tsnDevice2.eth[0].phyLayer.inboundEmitter incomingPacketLengths:sum 12304
attr interpolationmode none
attr recordingmode sum
attr source "packetLength(merge(packetPushedIn, packetPulledIn))"
attr title "incoming packet lengths, sum"
attr unit b
statistic OneMasterClockGptpShowcase.tsnDevice2.eth[0].phyLayer.inboundEmitter incomingPacketLengths:histogram
field count 18
field mean 683.55555555556
field stddev 111.50216153126
field min 576
field max 816
field sum 12304
field sqrsum 8621824
attr interpolationmode none
attr recordingmode histogram
attr source "packetLength(merge(packetPushedIn, packetPulledIn))"
attr title "incoming packet lengths"
attr unit b
bin	-inf	0
bin	515	0
bin	520	0
bin	525	0
bin	530	0
bin	535	0
bin	540	0
bin	545	0
bin	550	0
bin	555	0
bin	560	0
bin	565	0
bin	570	0
bin	575	7
bin	580	0
bin	585	0
bin	590	0
bin	595	0
bin	600	0
bin	605	0
bin	610	0
bin	615	0
bin	620	0
bin	625	0
bin	630	0
bin	635	0
bin	640	4
bin	645	0
bin	650	0
bin	655	0
bin	660	0
bin	665	0
bin	670	0
bin	675	0
bin	680	0
bin	685	0
bin	690	0
bin	695	0
bin	700	0
bin	705	0
bin	710	0
bin	715	0
bin	720	0
bin	725	0
bin	730	0
bin	735	0
bin	740	0
bin	745	0
bin	750	0
bin	755	0
bin	760	0
bin	765	0
bin	770	0
bin	775	0
bin	780	0
bin	785	0
bin	790	0
bin	795	0
bin	800	0
bin	805	0
bin	810	0
bin	815	7
bin	820	0
bin	825	0
bin	830	0
bin	835	0
bin	840	0
bin	845	0
bin	850	0
bin	855	0
bin	860	0
bin	865	0
bin	870	0
bin	875	0
bin	880	0
scalar OneMasterClockGptpShowcase.tsnDevice2.eth[0].phyLayer.inboundEmitter flowIncomingPacketLengths:sum 0
attr interpolationmode none
attr recordingmode sum
attr source "packetLength(demuxFlow(merge(packetPushedIn, packetPulledIn)))"
attr title "flow specific incoming packet lengths, sum"
attr unit b
statistic OneMasterClockGptpShowcase.tsnDevice2.eth[0].phyLayer.inboundEmitter flowIncomingPacketLengths:histogram
field count 0
field mean -nan
field stddev nan
field min nan
field max nan
field sum 0
field sqrsum 0
attr interpolationmode none
attr recordingmode histogram
attr source "packetLength(demuxFlow(merge(packetPushedIn, packetPulledIn)))"
attr title "flow specific incoming packet lengths"
attr unit b
bin	-inf	0
bin	0	0
bin	1	0
statistic OneMasterClockGptpShowcase.tsnDevice2.eth[0].phyLayer.receiver throughput:histogram
field count 10
field mean 12304
field stddev 4348.1878728705
field min 0
field max 13920
field sum 123040
field sqrsum 1684044800
attr interpolationmode linear
attr recordingmode histogram
attr source throughput(receptionEnded)
attr title throughput
attr unit bps
bin	-inf	0
bin	0	1
bin	200	0
bin	400	0
bin	600	0
bin	800	0
bin	1000	0
bin	1200	0
bin	1400	0
bin	1600	0
bin	1800	0
bin	2000	0
bin	2200	0
bin	2400	0
bin	2600	0
bin	2800	0
bin	3000	0
bin	3200	0
bin	3400	0
bin	3600	0
bin	3800	0
bin	4000	0
bin	4200	0
bin	4400	0
bin	4600	0
bin	4800	0
bin	5000	0
bin	5200	0
bin	5400	0
bin	5600	0
bin	5800	0
bin	6000	0
bin	6200	0
bin	6400	0
bin	6600	0
bin	6800	0
bin	7000	0
bin	7200	0
bin	7400	0
bin	7600	0
bin	7800	0
bin	8000	0
bin	8200	0
bin	8400	0
bin	8600	0
bin	8800	0
bin	9000	0
bin	9200	0
bin	9400	0
bin	9600	0
bin	9800	0
bin	10000	0
bin	10200	0
bin	10400	0
bin	10600	0
bin	10800	0
bin	11000	0
bin	11200	0
bin	11400	0
bin	11600	0
bin	11800	0
bin	12000	0
bin	12200	0
bin	12400	0
bin	12600	0
bin	12800	2
bin	13000	0
bin	13200	0
bin	13400	0
bin	13600	0
bin	13800	7
bin	14000	0
bin	14200	0
bin	14400	0
bin	14600	0
bin	14800	0
bin	15000	0
bin	15200	0
bin	15400	0
bin	15600	0
bin	15800	0
bin	16000	0
bin	16200	0
bin	16400	0
bin	16600	0
bin	16800	0
bin	17000	0
bin	17200	0
bin	17400	0
bin	17600	0
statistic OneMasterClockGptpShowcase.tsnDevice2.eth[0].phyLayer.receiver receptionTime:histogram
field count 18
field mean 6.8355555555556e-06
field stddev 1.1150216153126e-06
field min 5.76e-06
field max 8.16e-06
field sum 0.00012304
field sqrsum 8.621824e-10
attr interpolationmode none
attr recordingmode histogram
attr source packetDuration(receptionEnded)
attr title "reception time"
attr unit s
bin	-inf	0
bin	5.15e-06	0
bin	5.2e-06	0
bin	5.25e-06	0
bin	5.3e-06	0
bin	5.35e-06	0
bin	5.4e-06	0
bin	5.45e-06	0
bin	5.5e-06	0
bin	5.55e-06	0
bin	5.6e-06	0
bin	5.65e-06	0
bin	5.7e-06	0
bin	5.75e-06	7
bin	5.8e-06	0
bin	5.85e-06	0
bin	5.9e-06	0
bin	5.95e-06	0
bin	6e-06	0
bin	6.05e-06	0
bin	6.1e-06	0
bin	6.15e-06	0
bin	6.2e-06	0
bin	6.25e-06	0
bin	6.3e-06	0
bin	6.35e-06	4
bin	6.4e-06	0
bin	6.45e-06	0
bin	6.5e-06	0
bin	6.55e-06	0
bin	6.6e-06	0
bin	6.65e-06	0
bin	6.7e-06	0
bin	6.75e-06	0
bin	6.8e-06	0
bin	6.85e-06	0
bin	6.9e-06	0
bin	6.95e-06	0
bin	7e-06	0
bin	7.05e-06	0
bin	7.1e-06	0
bin	7.15e-06	0
bin	7.2e-06	0
bin	7.25e-06	0
bin	7.3e-06	0
bin	7.35e-06	0
bin	7.4e-06	0
bin	7.45e-06	0
bin	7.5e-06	0
bin	7.55e-06	0
bin	7.6e-06	0
bin	7.65e-06	0
bin	7.7e-06	0
bin	7.75e-06	0
bin	7.8e-06	0
bin	7.85e-06	0
bin	7.9e-06	0
bin	7.95e-06	0
bin	8e-06	0
bin	8.05e-06	0
bin	8.1e-06	0
bin	8.15e-06	7
bin	8.2e-06	0
bin	8.25e-06	0
bin	8.3e-06	0
bin	8.35e-06	0
bin	8.4e-06	0
bin	8.45e-06	0
bin	8.5e-06	0
bin	8.55e-06	0
bin	8.6e-06	0
bin	8.65e-06	0
bin	8.7e-06	0
bin	8.75e-06	0
bin	8.8e-06	0
statistic OneMasterClockGptpShowcase.tsnDevice2.eth[0].phyLayer.receiver flowReceptionTime:histogram
field count 0
field mean -nan
field stddev nan
field min nan
field max nan
field sum 0
field sqrsum 0
attr interpolationmode none
attr recordingmode histogram
attr source packetDuration(demuxFlow(receptionEnded))
attr title "flow reception time"
attr unit s
bin	-inf	0
bin	0	0
bin	1	0
scalar OneMasterClockGptpShowcase.tsnDevice2.eth[0] packetDropInterfaceDown:count 0
attr interpolationmode none
attr recordingmode count
attr source packetDropReasonIsInterfaceDown(packetDropped)
attr title "packet drops: interface down, count"
scalar OneMasterClockGptpShowcase.tsnDevice2.eth[0] packetDropInterfaceDown:sum(packetBytes) 0
attr interpolationmode none
attr recordingmode sum(packetBytes)
attr source packetDropReasonIsInterfaceDown(packetDropped)
attr title "packet drops: interface down, sum(packetBytes)"
scalar OneMasterClockGptpShowcase.tsnDevice2.eth[0] packetDropNoCarrier:count 0
attr interpolationmode none
attr recordingmode count
attr source packetDropReasonIsNoCarrier(packetDropped)
attr title "packet drops: no carrier, count"
scalar OneMasterClockGptpShowcase.tsnDevice2.eth[0] packetDropNoCarrier:sum(packetBytes) 0
attr interpolationmode none
attr recordingmode sum(packetBytes)
attr source packetDropReasonIsNoCarrier(packetDropped)
attr title "packet drops: no carrier, sum(packetBytes)"
scalar OneMasterClockGptpShowcase.tsnDevice2.ipv4.ip packetDropAddressResolutionFailed:count 0
attr interpolationmode none
attr recordingmode count
attr source packetDropReasonIsAddressResolutionFailed(packetDropped)
attr title "packet drop: address resolution failed, count"
scalar OneMasterClockGptpShowcase.tsnDevice2.ipv4.ip packetDropAddressResolutionFailed:sum(packetBytes) 0
attr interpolationmode none
attr recordingmode sum(packetBytes)
attr source packetDropReasonIsAddressResolutionFailed(packetDropped)
attr title "packet drop: address resolution failed, sum(packetBytes)"
scalar OneMasterClockGptpShowcase.tsnDevice2.ipv4.ip packetDropHopLimitReached:count 0
attr interpolationmode none
attr recordingmode count
attr source packetDropReasonIsHopLimitReached(packetDropped)
attr title "packet drop: hop limit reached, count"
scalar OneMasterClockGptpShowcase.tsnDevice2.ipv4.ip packetDropHopLimitReached:sum(packetBytes) 0
attr interpolationmode none
attr recordingmode sum(packetBytes)
attr source packetDropReasonIsHopLimitReached(packetDropped)
attr title "packet drop: hop limit reached, sum(packetBytes)"
scalar OneMasterClockGptpShowcase.tsnDevice2.ipv4.ip packetDropForwardingDisabled:count 0
attr interpolationmode none
attr recordingmode count
attr source packetDropReasonIsForwardingDisabled(packetDropped)
attr title "packet drop: forwarding disabled, count"
scalar OneMasterClockGptpShowcase.tsnDevice2.ipv4.ip packetDropForwardingDisabled:sum(packetBytes) 0
attr interpolationmode none
attr recordingmode sum(packetBytes)
attr source packetDropReasonIsForwardingDisabled(packetDropped)
attr title "packet drop: forwarding disabled, sum(packetBytes)"
scalar OneMasterClockGptpShowcase.tsnDevice2.ipv4.ip packetDropNoInterfaceFound:count 0
attr interpolationmode none
attr recordingmode count
attr source packetDropReasonIsNoInterfaceFound(packetDropped)
attr title "packet drop: no interface found, count"
scalar OneMasterClockGptpShowcase.tsnDevice2.ipv4.ip packetDropNoInterfaceFound:sum(packetBytes) 0
attr interpolationmode none
attr recordingmode sum(packetBytes)
attr source packetDropReasonIsNoInterfaceFound(packetDropped)
attr title "packet drop: no interface found, sum(packetBytes)"
scalar OneMasterClockGptpShowcase.tsnDevice2.ipv4.ip packetDropNoRouteFound:count 0
attr interpolationmode none
attr recordingmode count
attr source packetDropReasonIsNoRouteFound(packetDropped)
attr title "packet drop: no route found, count"
scalar OneMasterClockGptpShowcase.tsnDevice2.ipv4.ip packetDropNoRouteFound:sum(packetBytes) 0
attr interpolationmode none
attr recordingmode sum(packetBytes)
attr source packetDropReasonIsNoRouteFound(packetDropped)
attr title "packet drop: no route found, sum(packetBytes)"
scalar OneMasterClockGptpShowcase.tsnDevice2.ipv4.ip packetDropUndefined:count 0
attr interpolationmode none
attr recordingmode count
attr source packetDropReasonIsUndefined(packetDropped)
attr title "packet drop: undefined, count"
scalar OneMasterClockGptpShowcase.tsnDevice2.ipv4.ip packetDropUndefined:sum(packetBytes) 0
attr interpolationmode none
attr recordingmode sum(packetBytes)
attr source packetDropReasonIsUndefined(packetDropped)
attr title "packet drop: undefined, sum(packetBytes)"
scalar OneMasterClockGptpShowcase.tsnDevice2.udp packetReceived:count 0
attr interpolationmode none
attr recordingmode count
attr source packetReceived
attr title "packets received, count"
scalar OneMasterClockGptpShowcase.tsnDevice2.udp packetReceived:sum(packetBytes) 0
attr interpolationmode none
attr recordingmode sum(packetBytes)
attr source packetReceived
attr title "packets received, sum(packetBytes)"
scalar OneMasterClockGptpShowcase.tsnDevice2.udp packetSent:count 0
attr interpolationmode none
attr recordingmode count
attr source packetSent
attr title "packets sent, count"
scalar OneMasterClockGptpShowcase.tsnDevice2.udp packetSent:sum(packetBytes) 0
attr interpolationmode none
attr recordingmode sum(packetBytes)
attr source packetSent
attr title "packets sent, sum(packetBytes)"
scalar OneMasterClockGptpShowcase.tsnDevice2.udp passedUpPk:count 0
attr interpolationmode none
attr recordingmode count
attr source packetSentToUpper
attr title "packets passed up, count"
scalar OneMasterClockGptpShowcase.tsnDevice2.udp droppedPkWrongPort:count 0
attr interpolationmode none
attr recordingmode count
attr source packetDropReasonIsNoPortFound(packetDropped)
attr title "packets dropped (wrong port), count"
scalar OneMasterClockGptpShowcase.tsnDevice2.udp droppedPkBadChecksum:count 0
attr interpolationmode none
attr recordingmode count
attr source packetDropReasonIsIncorrectlyReceived(packetDropped)
attr title "packets dropped (checksum error), count"

