version 3
run EnablingPathVisualizationWired-0-20250108-11:37:15-14232
attr configname EnablingPathVisualizationWired
attr datetime 20250108-11:37:15
attr datetimef 20250108-113715
attr experiment EnablingPathVisualizationWired
attr inifile omnetpp.ini
attr iterationvars ""
attr iterationvarsd ""
attr iterationvarsf ""
attr measurement ""
attr network TransportPathVisualizerSimpleWiredShowcase
attr processid 14232
attr repetition 0
attr replication #0
attr resultdir results
attr runnumber 0
attr seedset 0
config **.param-recording false
config image-path /home/levy/workspace/inet/images
config output-scalar-file results/omnetpp.ini-EnablingPathVisualizationWired-#0.sca
config output-vector-file results/omnetpp.ini-EnablingPathVisualizationWired-#0.vec
config sim-time-limit 500s
config sim-time-limit 500s
config description "Enabling Transport Path Activity Visualization in Wired Network"
config network TransportPathVisualizerSimpleWiredShowcase
config *.source.numApps 1
config *.source.app[0].typename UdpBasicApp
config *.source.app[0].destAddresses "\"destination\""
config *.source.app[0].destPort 1000
config *.source.app[0].messageLength 100B
config *.source.app[0].startTime 0s
config *.source.app[0].sendInterval 1s
config *.destination.numApps 1
config *.destination.app[0].typename UdpSink
config *.destination.app[0].localPort 1000
config *.pathVisualizer.*.displayRoutes true
config *.pathVisualizer.*.fadeOutTime 3s

scalar TransportPathVisualizerSimpleWiredShowcase.source.ethernet pauseSent:count 0
scalar TransportPathVisualizerSimpleWiredShowcase.source.ethernet pauseSent:sum 0
scalar TransportPathVisualizerSimpleWiredShowcase.source.ethernet decapPk:count 5
scalar TransportPathVisualizerSimpleWiredShowcase.source.ethernet decapPk:sum(packetBytes) 230
scalar TransportPathVisualizerSimpleWiredShowcase.source.ethernet encapPk:count 506
scalar TransportPathVisualizerSimpleWiredShowcase.source.ethernet encapPk:sum(packetBytes) 64268
scalar TransportPathVisualizerSimpleWiredShowcase.source.lo[0].lo rcvdPkFromHl:count 0
scalar TransportPathVisualizerSimpleWiredShowcase.source.lo[0].lo rcvdPkFromHl:sum(packetBytes) 0
scalar TransportPathVisualizerSimpleWiredShowcase.source.lo[0].lo passedUpPk:count 0
scalar TransportPathVisualizerSimpleWiredShowcase.source.lo[0].lo passedUpPk:sum(packetBytes) 0
scalar TransportPathVisualizerSimpleWiredShowcase.source.lo[0] packetDropInterfaceDown:count 0
scalar TransportPathVisualizerSimpleWiredShowcase.source.lo[0] packetDropInterfaceDown:sum(packetBytes) 0
scalar TransportPathVisualizerSimpleWiredShowcase.source.lo[0] packetDropNoCarrier:count 0
scalar TransportPathVisualizerSimpleWiredShowcase.source.lo[0] packetDropNoCarrier:sum(packetBytes) 0
scalar TransportPathVisualizerSimpleWiredShowcase.source.eth[0].queue queueLength:last 0
scalar TransportPathVisualizerSimpleWiredShowcase.source.eth[0].queue queueLength:max 0
scalar TransportPathVisualizerSimpleWiredShowcase.source.eth[0].queue queueLength:timeavg 0
scalar TransportPathVisualizerSimpleWiredShowcase.source.eth[0].queue queueBitLength:last 0
scalar TransportPathVisualizerSimpleWiredShowcase.source.eth[0].queue queueBitLength:max 0
scalar TransportPathVisualizerSimpleWiredShowcase.source.eth[0].queue queueBitLength:timeavg 0
scalar TransportPathVisualizerSimpleWiredShowcase.source.eth[0].queue outgoingPackets:count 506
scalar TransportPathVisualizerSimpleWiredShowcase.source.eth[0].queue outgoingPacketLengths:sum 587008
scalar TransportPathVisualizerSimpleWiredShowcase.source.eth[0].queue incomingPackets:count 506
scalar TransportPathVisualizerSimpleWiredShowcase.source.eth[0].queue incomingPacketLengths:sum 587008
scalar TransportPathVisualizerSimpleWiredShowcase.source.eth[0].queue droppedPacketsQueueOverflow:count 0
scalar TransportPathVisualizerSimpleWiredShowcase.source.eth[0].queue droppedPacketLengthsQueueOverflow:sum 0
scalar TransportPathVisualizerSimpleWiredShowcase.source.eth[0].mac "simulated time" 500
scalar TransportPathVisualizerSimpleWiredShowcase.source.eth[0].mac full-duplex 1
scalar TransportPathVisualizerSimpleWiredShowcase.source.eth[0].mac "frames/sec sent" 1.01
scalar TransportPathVisualizerSimpleWiredShowcase.source.eth[0].mac "frames/sec rcvd" 0.01
scalar TransportPathVisualizerSimpleWiredShowcase.source.eth[0].mac "bits/sec sent" 1173.12
scalar TransportPathVisualizerSimpleWiredShowcase.source.eth[0].mac "bits/sec rcvd" 5.12
scalar TransportPathVisualizerSimpleWiredShowcase.source.eth[0].mac "rx channel idle (%)" 99.99999424
scalar TransportPathVisualizerSimpleWiredShowcase.source.eth[0].mac "rx channel utilization (%)" 5.76e-06
scalar TransportPathVisualizerSimpleWiredShowcase.source.eth[0].mac rxPausePkUnits:count 0
scalar TransportPathVisualizerSimpleWiredShowcase.source.eth[0].mac rxPausePkUnits:sum 0
scalar TransportPathVisualizerSimpleWiredShowcase.source.eth[0].mac txPausePkUnits:count 0
scalar TransportPathVisualizerSimpleWiredShowcase.source.eth[0].mac txPausePkUnits:sum 0
scalar TransportPathVisualizerSimpleWiredShowcase.source.eth[0].mac rxPkOk:count 5
scalar TransportPathVisualizerSimpleWiredShowcase.source.eth[0].mac rxPkOk:sum(packetBytes) 320
scalar TransportPathVisualizerSimpleWiredShowcase.source.eth[0].mac txPk:count 505
scalar TransportPathVisualizerSimpleWiredShowcase.source.eth[0].mac txPk:sum(packetBytes) 73320
scalar TransportPathVisualizerSimpleWiredShowcase.source.eth[0].mac packetReceivedFromUpper:count 506
scalar TransportPathVisualizerSimpleWiredShowcase.source.eth[0].mac packetReceivedFromUpper:sum(packetBytes) 73376
scalar TransportPathVisualizerSimpleWiredShowcase.source.eth[0].mac passedUpPk:count 5
scalar TransportPathVisualizerSimpleWiredShowcase.source.eth[0].mac passedUpPk:sum(packetBytes) 320
scalar TransportPathVisualizerSimpleWiredShowcase.source.eth[0].mac packetDropIncorrectlyReceived:count 0
scalar TransportPathVisualizerSimpleWiredShowcase.source.eth[0].mac packetDropIncorrectlyReceived:sum(packetBytes) 0
scalar TransportPathVisualizerSimpleWiredShowcase.source.eth[0].mac packetDropInterfaceDown:count 0
scalar TransportPathVisualizerSimpleWiredShowcase.source.eth[0].mac packetDropInterfaceDown:sum(packetBytes) 0
scalar TransportPathVisualizerSimpleWiredShowcase.source.eth[0].mac packetDropNotAddressedToUs:count 0
scalar TransportPathVisualizerSimpleWiredShowcase.source.eth[0].mac packetDropNotAddressedToUs:sum(packetBytes) 0
scalar TransportPathVisualizerSimpleWiredShowcase.source.eth[0] packetDropInterfaceDown:count 0
scalar TransportPathVisualizerSimpleWiredShowcase.source.eth[0] packetDropInterfaceDown:sum(packetBytes) 0
scalar TransportPathVisualizerSimpleWiredShowcase.source.eth[0] packetDropNoCarrier:count 0
scalar TransportPathVisualizerSimpleWiredShowcase.source.eth[0] packetDropNoCarrier:sum(packetBytes) 0
scalar TransportPathVisualizerSimpleWiredShowcase.source.ipv4.ip packetDropAddressResolutionFailed:count 0
scalar TransportPathVisualizerSimpleWiredShowcase.source.ipv4.ip packetDropAddressResolutionFailed:sum(packetBytes) 0
scalar TransportPathVisualizerSimpleWiredShowcase.source.ipv4.ip packetDropHopLimitReached:count 0
scalar TransportPathVisualizerSimpleWiredShowcase.source.ipv4.ip packetDropHopLimitReached:sum(packetBytes) 0
scalar TransportPathVisualizerSimpleWiredShowcase.source.ipv4.ip packetDropForwardingDisabled:count 0
scalar TransportPathVisualizerSimpleWiredShowcase.source.ipv4.ip packetDropForwardingDisabled:sum(packetBytes) 0
scalar TransportPathVisualizerSimpleWiredShowcase.source.ipv4.ip packetDropLifetimeExpired:count 0
scalar TransportPathVisualizerSimpleWiredShowcase.source.ipv4.ip packetDropLifetimeExpired:sum(packetBytes) 0
scalar TransportPathVisualizerSimpleWiredShowcase.source.ipv4.ip packetDropNoInterfaceFound:count 0
scalar TransportPathVisualizerSimpleWiredShowcase.source.ipv4.ip packetDropNoInterfaceFound:sum(packetBytes) 0
scalar TransportPathVisualizerSimpleWiredShowcase.source.ipv4.ip packetDropNoRouteFound:count 0
scalar TransportPathVisualizerSimpleWiredShowcase.source.ipv4.ip packetDropNoRouteFound:sum(packetBytes) 0
scalar TransportPathVisualizerSimpleWiredShowcase.source.ipv4.ip packetDropUndefined:count 0
scalar TransportPathVisualizerSimpleWiredShowcase.source.ipv4.ip packetDropUndefined:sum(packetBytes) 0
scalar TransportPathVisualizerSimpleWiredShowcase.source.ipv4.arp arpResolutionFailed:count 0
scalar TransportPathVisualizerSimpleWiredShowcase.source.ipv4.arp arpResolutionCompleted:count 5
scalar TransportPathVisualizerSimpleWiredShowcase.source.ipv4.arp arpResolutionInitiated:count 5
scalar TransportPathVisualizerSimpleWiredShowcase.source.ipv4.arp arpReplySent:count 0
scalar TransportPathVisualizerSimpleWiredShowcase.source.ipv4.arp arpReplySent:sum(packetBytes) 0
scalar TransportPathVisualizerSimpleWiredShowcase.source.ipv4.arp arpRequestSent:count 5
scalar TransportPathVisualizerSimpleWiredShowcase.source.ipv4.arp arpRequestSent:sum(packetBytes) 140
scalar TransportPathVisualizerSimpleWiredShowcase.source.udp packetReceived:count 0
scalar TransportPathVisualizerSimpleWiredShowcase.source.udp packetReceived:sum(packetBytes) 0
scalar TransportPathVisualizerSimpleWiredShowcase.source.udp packetSent:count 501
scalar TransportPathVisualizerSimpleWiredShowcase.source.udp packetSent:sum(packetBytes) 54108
scalar TransportPathVisualizerSimpleWiredShowcase.source.udp passedUpPk:count 0
scalar TransportPathVisualizerSimpleWiredShowcase.source.udp droppedPkWrongPort:count 0
scalar TransportPathVisualizerSimpleWiredShowcase.source.udp droppedPkBadChecksum:count 0
scalar TransportPathVisualizerSimpleWiredShowcase.source.app[0] "packets sent" 501
scalar TransportPathVisualizerSimpleWiredShowcase.source.app[0] "packets received" 0
scalar TransportPathVisualizerSimpleWiredShowcase.source.app[0] packetReceived:count 0
scalar TransportPathVisualizerSimpleWiredShowcase.source.app[0] packetReceived:sum(packetBytes) 0
scalar TransportPathVisualizerSimpleWiredShowcase.source.app[0] packetSent:count 501
scalar TransportPathVisualizerSimpleWiredShowcase.source.app[0] packetSent:sum(packetBytes) 50100
scalar TransportPathVisualizerSimpleWiredShowcase.destination.ethernet pauseSent:count 0
scalar TransportPathVisualizerSimpleWiredShowcase.destination.ethernet pauseSent:sum 0
scalar TransportPathVisualizerSimpleWiredShowcase.destination.ethernet decapPk:count 505
scalar TransportPathVisualizerSimpleWiredShowcase.destination.ethernet decapPk:sum(packetBytes) 64230
scalar TransportPathVisualizerSimpleWiredShowcase.destination.ethernet encapPk:count 5
scalar TransportPathVisualizerSimpleWiredShowcase.destination.ethernet encapPk:sum(packetBytes) 140
scalar TransportPathVisualizerSimpleWiredShowcase.destination.lo[0].lo rcvdPkFromHl:count 0
scalar TransportPathVisualizerSimpleWiredShowcase.destination.lo[0].lo rcvdPkFromHl:sum(packetBytes) 0
scalar TransportPathVisualizerSimpleWiredShowcase.destination.lo[0].lo passedUpPk:count 0
scalar TransportPathVisualizerSimpleWiredShowcase.destination.lo[0].lo passedUpPk:sum(packetBytes) 0
scalar TransportPathVisualizerSimpleWiredShowcase.destination.lo[0] packetDropInterfaceDown:count 0
scalar TransportPathVisualizerSimpleWiredShowcase.destination.lo[0] packetDropInterfaceDown:sum(packetBytes) 0
scalar TransportPathVisualizerSimpleWiredShowcase.destination.lo[0] packetDropNoCarrier:count 0
scalar TransportPathVisualizerSimpleWiredShowcase.destination.lo[0] packetDropNoCarrier:sum(packetBytes) 0
scalar TransportPathVisualizerSimpleWiredShowcase.destination.eth[0].queue queueLength:last 0
scalar TransportPathVisualizerSimpleWiredShowcase.destination.eth[0].queue queueLength:max 0
scalar TransportPathVisualizerSimpleWiredShowcase.destination.eth[0].queue queueLength:timeavg 0
scalar TransportPathVisualizerSimpleWiredShowcase.destination.eth[0].queue queueBitLength:last 0
scalar TransportPathVisualizerSimpleWiredShowcase.destination.eth[0].queue queueBitLength:max 0
scalar TransportPathVisualizerSimpleWiredShowcase.destination.eth[0].queue queueBitLength:timeavg 0
scalar TransportPathVisualizerSimpleWiredShowcase.destination.eth[0].queue outgoingPackets:count 5
scalar TransportPathVisualizerSimpleWiredShowcase.destination.eth[0].queue outgoingPacketLengths:sum 1840
scalar TransportPathVisualizerSimpleWiredShowcase.destination.eth[0].queue incomingPackets:count 5
scalar TransportPathVisualizerSimpleWiredShowcase.destination.eth[0].queue incomingPacketLengths:sum 1840
scalar TransportPathVisualizerSimpleWiredShowcase.destination.eth[0].queue droppedPacketsQueueOverflow:count 0
scalar TransportPathVisualizerSimpleWiredShowcase.destination.eth[0].queue droppedPacketLengthsQueueOverflow:sum 0
scalar TransportPathVisualizerSimpleWiredShowcase.destination.eth[0].mac "simulated time" 500
scalar TransportPathVisualizerSimpleWiredShowcase.destination.eth[0].mac full-duplex 1
scalar TransportPathVisualizerSimpleWiredShowcase.destination.eth[0].mac "frames/sec sent" 0.01
scalar TransportPathVisualizerSimpleWiredShowcase.destination.eth[0].mac "frames/sec rcvd" 1.01
scalar TransportPathVisualizerSimpleWiredShowcase.destination.eth[0].mac "bits/sec sent" 5.12
scalar TransportPathVisualizerSimpleWiredShowcase.destination.eth[0].mac "bits/sec rcvd" 1173.12
scalar TransportPathVisualizerSimpleWiredShowcase.destination.eth[0].mac "rx channel idle (%)" 99.99876224
scalar TransportPathVisualizerSimpleWiredShowcase.destination.eth[0].mac "rx channel utilization (%)" 0.00123776
scalar TransportPathVisualizerSimpleWiredShowcase.destination.eth[0].mac rxPausePkUnits:count 0
scalar TransportPathVisualizerSimpleWiredShowcase.destination.eth[0].mac rxPausePkUnits:sum 0
scalar TransportPathVisualizerSimpleWiredShowcase.destination.eth[0].mac txPausePkUnits:count 0
scalar TransportPathVisualizerSimpleWiredShowcase.destination.eth[0].mac txPausePkUnits:sum 0
scalar TransportPathVisualizerSimpleWiredShowcase.destination.eth[0].mac rxPkOk:count 505
scalar TransportPathVisualizerSimpleWiredShowcase.destination.eth[0].mac rxPkOk:sum(packetBytes) 73320
scalar TransportPathVisualizerSimpleWiredShowcase.destination.eth[0].mac txPk:count 5
scalar TransportPathVisualizerSimpleWiredShowcase.destination.eth[0].mac txPk:sum(packetBytes) 320
scalar TransportPathVisualizerSimpleWiredShowcase.destination.eth[0].mac packetReceivedFromUpper:count 5
scalar TransportPathVisualizerSimpleWiredShowcase.destination.eth[0].mac packetReceivedFromUpper:sum(packetBytes) 230
scalar TransportPathVisualizerSimpleWiredShowcase.destination.eth[0].mac passedUpPk:count 505
scalar TransportPathVisualizerSimpleWiredShowcase.destination.eth[0].mac passedUpPk:sum(packetBytes) 73320
scalar TransportPathVisualizerSimpleWiredShowcase.destination.eth[0].mac packetDropIncorrectlyReceived:count 0
scalar TransportPathVisualizerSimpleWiredShowcase.destination.eth[0].mac packetDropIncorrectlyReceived:sum(packetBytes) 0
scalar TransportPathVisualizerSimpleWiredShowcase.destination.eth[0].mac packetDropInterfaceDown:count 0
scalar TransportPathVisualizerSimpleWiredShowcase.destination.eth[0].mac packetDropInterfaceDown:sum(packetBytes) 0
scalar TransportPathVisualizerSimpleWiredShowcase.destination.eth[0].mac packetDropNotAddressedToUs:count 0
scalar TransportPathVisualizerSimpleWiredShowcase.destination.eth[0].mac packetDropNotAddressedToUs:sum(packetBytes) 0
scalar TransportPathVisualizerSimpleWiredShowcase.destination.eth[0] packetDropInterfaceDown:count 0
scalar TransportPathVisualizerSimpleWiredShowcase.destination.eth[0] packetDropInterfaceDown:sum(packetBytes) 0
scalar TransportPathVisualizerSimpleWiredShowcase.destination.eth[0] packetDropNoCarrier:count 0
scalar TransportPathVisualizerSimpleWiredShowcase.destination.eth[0] packetDropNoCarrier:sum(packetBytes) 0
scalar TransportPathVisualizerSimpleWiredShowcase.destination.ipv4.ip packetDropAddressResolutionFailed:count 0
scalar TransportPathVisualizerSimpleWiredShowcase.destination.ipv4.ip packetDropAddressResolutionFailed:sum(packetBytes) 0
scalar TransportPathVisualizerSimpleWiredShowcase.destination.ipv4.ip packetDropHopLimitReached:count 0
scalar TransportPathVisualizerSimpleWiredShowcase.destination.ipv4.ip packetDropHopLimitReached:sum(packetBytes) 0
scalar TransportPathVisualizerSimpleWiredShowcase.destination.ipv4.ip packetDropForwardingDisabled:count 0
scalar TransportPathVisualizerSimpleWiredShowcase.destination.ipv4.ip packetDropForwardingDisabled:sum(packetBytes) 0
scalar TransportPathVisualizerSimpleWiredShowcase.destination.ipv4.ip packetDropLifetimeExpired:count 0
scalar TransportPathVisualizerSimpleWiredShowcase.destination.ipv4.ip packetDropLifetimeExpired:sum(packetBytes) 0
scalar TransportPathVisualizerSimpleWiredShowcase.destination.ipv4.ip packetDropNoInterfaceFound:count 0
scalar TransportPathVisualizerSimpleWiredShowcase.destination.ipv4.ip packetDropNoInterfaceFound:sum(packetBytes) 0
scalar TransportPathVisualizerSimpleWiredShowcase.destination.ipv4.ip packetDropNoRouteFound:count 0
scalar TransportPathVisualizerSimpleWiredShowcase.destination.ipv4.ip packetDropNoRouteFound:sum(packetBytes) 0
scalar TransportPathVisualizerSimpleWiredShowcase.destination.ipv4.ip packetDropUndefined:count 0
scalar TransportPathVisualizerSimpleWiredShowcase.destination.ipv4.ip packetDropUndefined:sum(packetBytes) 0
scalar TransportPathVisualizerSimpleWiredShowcase.destination.ipv4.arp arpResolutionFailed:count 0
scalar TransportPathVisualizerSimpleWiredShowcase.destination.ipv4.arp arpResolutionCompleted:count 5
scalar TransportPathVisualizerSimpleWiredShowcase.destination.ipv4.arp arpResolutionInitiated:count 0
scalar TransportPathVisualizerSimpleWiredShowcase.destination.ipv4.arp arpReplySent:count 5
scalar TransportPathVisualizerSimpleWiredShowcase.destination.ipv4.arp arpReplySent:sum(packetBytes) 140
scalar TransportPathVisualizerSimpleWiredShowcase.destination.ipv4.arp arpRequestSent:count 0
scalar TransportPathVisualizerSimpleWiredShowcase.destination.ipv4.arp arpRequestSent:sum(packetBytes) 0
scalar TransportPathVisualizerSimpleWiredShowcase.destination.udp packetReceived:count 500
scalar TransportPathVisualizerSimpleWiredShowcase.destination.udp packetReceived:sum(packetBytes) 54000
scalar TransportPathVisualizerSimpleWiredShowcase.destination.udp packetSent:count 0
scalar TransportPathVisualizerSimpleWiredShowcase.destination.udp packetSent:sum(packetBytes) 0
scalar TransportPathVisualizerSimpleWiredShowcase.destination.udp passedUpPk:count 500
scalar TransportPathVisualizerSimpleWiredShowcase.destination.udp droppedPkWrongPort:count 0
scalar TransportPathVisualizerSimpleWiredShowcase.destination.udp droppedPkBadChecksum:count 0
scalar TransportPathVisualizerSimpleWiredShowcase.destination.app[0] packetReceived:count 500
scalar TransportPathVisualizerSimpleWiredShowcase.destination.app[0] packetReceived:sum(packetBytes) 50000
scalar TransportPathVisualizerSimpleWiredShowcase.source.app[0] rcvdPkLifetime:stats:count 0
scalar TransportPathVisualizerSimpleWiredShowcase.source.app[0] rcvdPkLifetime:stats:sumweights 0
scalar TransportPathVisualizerSimpleWiredShowcase.source.app[0] rcvdPkLifetime:stats:mean -nan
scalar TransportPathVisualizerSimpleWiredShowcase.source.app[0] rcvdPkLifetime:stats:stddev nan
scalar TransportPathVisualizerSimpleWiredShowcase.source.app[0] rcvdPkLifetime:stats:min nan
scalar TransportPathVisualizerSimpleWiredShowcase.source.app[0] rcvdPkLifetime:stats:max nan
scalar TransportPathVisualizerSimpleWiredShowcase.source.app[0] rcvdPkLifetime:stats:numbins 0
scalar TransportPathVisualizerSimpleWiredShowcase.source.eth[0].queue queueingTime:histogram:count 506
scalar TransportPathVisualizerSimpleWiredShowcase.source.eth[0].queue queueingTime:histogram:sumweights 506
scalar TransportPathVisualizerSimpleWiredShowcase.source.eth[0].queue queueingTime:histogram:mean 0
scalar TransportPathVisualizerSimpleWiredShowcase.source.eth[0].queue queueingTime:histogram:stddev 0
scalar TransportPathVisualizerSimpleWiredShowcase.source.eth[0].queue queueingTime:histogram:min 0
scalar TransportPathVisualizerSimpleWiredShowcase.source.eth[0].queue queueingTime:histogram:max 0
scalar TransportPathVisualizerSimpleWiredShowcase.source.eth[0].queue queueingTime:histogram:numbins 50
scalar TransportPathVisualizerSimpleWiredShowcase.source.eth[0].queue queueingTime:histogram:rangemin -0.5
scalar TransportPathVisualizerSimpleWiredShowcase.source.eth[0].queue queueingTime:histogram:rangemax 0.5
scalar TransportPathVisualizerSimpleWiredShowcase.source.eth[0].queue queueingTime:histogram:underflows 0
scalar TransportPathVisualizerSimpleWiredShowcase.source.eth[0].queue queueingTime:histogram:overflows 0
scalar TransportPathVisualizerSimpleWiredShowcase.source.eth[0].queue outgoingPacketLengths:histogram:count 506
scalar TransportPathVisualizerSimpleWiredShowcase.source.eth[0].queue outgoingPacketLengths:histogram:sumweights 506
scalar TransportPathVisualizerSimpleWiredShowcase.source.eth[0].queue outgoingPacketLengths:histogram:mean 1160.0948616601
scalar TransportPathVisualizerSimpleWiredShowcase.source.eth[0].queue outgoingPacketLengths:histogram:stddev 79.208703475177
scalar TransportPathVisualizerSimpleWiredShowcase.source.eth[0].queue outgoingPacketLengths:histogram:min 368
scalar TransportPathVisualizerSimpleWiredShowcase.source.eth[0].queue outgoingPacketLengths:histogram:max 1168
scalar TransportPathVisualizerSimpleWiredShowcase.source.eth[0].queue outgoingPacketLengths:histogram:numbins 61
scalar TransportPathVisualizerSimpleWiredShowcase.source.eth[0].queue outgoingPacketLengths:histogram:rangemin 160
scalar TransportPathVisualizerSimpleWiredShowcase.source.eth[0].queue outgoingPacketLengths:histogram:rangemax 1380
scalar TransportPathVisualizerSimpleWiredShowcase.source.eth[0].queue outgoingPacketLengths:histogram:underflows 0
scalar TransportPathVisualizerSimpleWiredShowcase.source.eth[0].queue outgoingPacketLengths:histogram:overflows 0
scalar TransportPathVisualizerSimpleWiredShowcase.source.eth[0].queue flowQueueingTime:histogram:count 0
scalar TransportPathVisualizerSimpleWiredShowcase.source.eth[0].queue flowQueueingTime:histogram:sumweights 0
scalar TransportPathVisualizerSimpleWiredShowcase.source.eth[0].queue flowQueueingTime:histogram:mean -nan
scalar TransportPathVisualizerSimpleWiredShowcase.source.eth[0].queue flowQueueingTime:histogram:stddev nan
scalar TransportPathVisualizerSimpleWiredShowcase.source.eth[0].queue flowQueueingTime:histogram:min nan
scalar TransportPathVisualizerSimpleWiredShowcase.source.eth[0].queue flowQueueingTime:histogram:max nan
scalar TransportPathVisualizerSimpleWiredShowcase.source.eth[0].queue flowQueueingTime:histogram:numbins 1
scalar TransportPathVisualizerSimpleWiredShowcase.source.eth[0].queue flowQueueingTime:histogram:rangemin 0
scalar TransportPathVisualizerSimpleWiredShowcase.source.eth[0].queue flowQueueingTime:histogram:rangemax 1
scalar TransportPathVisualizerSimpleWiredShowcase.source.eth[0].queue flowQueueingTime:histogram:underflows 0
scalar TransportPathVisualizerSimpleWiredShowcase.source.eth[0].queue flowQueueingTime:histogram:overflows 0
scalar TransportPathVisualizerSimpleWiredShowcase.source.eth[0].queue incomingPacketLengths:histogram:count 506
scalar TransportPathVisualizerSimpleWiredShowcase.source.eth[0].queue incomingPacketLengths:histogram:sumweights 506
scalar TransportPathVisualizerSimpleWiredShowcase.source.eth[0].queue incomingPacketLengths:histogram:mean 1160.0948616601
scalar TransportPathVisualizerSimpleWiredShowcase.source.eth[0].queue incomingPacketLengths:histogram:stddev 79.208703475177
scalar TransportPathVisualizerSimpleWiredShowcase.source.eth[0].queue incomingPacketLengths:histogram:min 368
scalar TransportPathVisualizerSimpleWiredShowcase.source.eth[0].queue incomingPacketLengths:histogram:max 1168
scalar TransportPathVisualizerSimpleWiredShowcase.source.eth[0].queue incomingPacketLengths:histogram:numbins 61
scalar TransportPathVisualizerSimpleWiredShowcase.source.eth[0].queue incomingPacketLengths:histogram:rangemin 160
scalar TransportPathVisualizerSimpleWiredShowcase.source.eth[0].queue incomingPacketLengths:histogram:rangemax 1380
scalar TransportPathVisualizerSimpleWiredShowcase.source.eth[0].queue incomingPacketLengths:histogram:underflows 0
scalar TransportPathVisualizerSimpleWiredShowcase.source.eth[0].queue incomingPacketLengths:histogram:overflows 0
scalar TransportPathVisualizerSimpleWiredShowcase.source.eth[0].mac throughput:histogram:count 5000
scalar TransportPathVisualizerSimpleWiredShowcase.source.eth[0].mac throughput:histogram:sumweights 5000
scalar TransportPathVisualizerSimpleWiredShowcase.source.eth[0].mac throughput:histogram:mean 1237.76
scalar TransportPathVisualizerSimpleWiredShowcase.source.eth[0].mac throughput:histogram:stddev 3718.0719458072
scalar TransportPathVisualizerSimpleWiredShowcase.source.eth[0].mac throughput:histogram:min 0
scalar TransportPathVisualizerSimpleWiredShowcase.source.eth[0].mac throughput:histogram:max 18080
scalar TransportPathVisualizerSimpleWiredShowcase.source.eth[0].mac throughput:histogram:numbins 46
scalar TransportPathVisualizerSimpleWiredShowcase.source.eth[0].mac throughput:histogram:rangemin 0
scalar TransportPathVisualizerSimpleWiredShowcase.source.eth[0].mac throughput:histogram:rangemax 23000
scalar TransportPathVisualizerSimpleWiredShowcase.source.eth[0].mac throughput:histogram:underflows 0
scalar TransportPathVisualizerSimpleWiredShowcase.source.eth[0].mac throughput:histogram:overflows 0
scalar TransportPathVisualizerSimpleWiredShowcase.source.eth[0].mac utilization:histogram:count 5000
scalar TransportPathVisualizerSimpleWiredShowcase.source.eth[0].mac utilization:histogram:sumweights 5000
scalar TransportPathVisualizerSimpleWiredShowcase.source.eth[0].mac utilization:histogram:mean 0.00123776
scalar TransportPathVisualizerSimpleWiredShowcase.source.eth[0].mac utilization:histogram:stddev 0.0037180719458072
scalar TransportPathVisualizerSimpleWiredShowcase.source.eth[0].mac utilization:histogram:min 0
scalar TransportPathVisualizerSimpleWiredShowcase.source.eth[0].mac utilization:histogram:max 0.01808
scalar TransportPathVisualizerSimpleWiredShowcase.source.eth[0].mac utilization:histogram:numbins 46
scalar TransportPathVisualizerSimpleWiredShowcase.source.eth[0].mac utilization:histogram:rangemin 0
scalar TransportPathVisualizerSimpleWiredShowcase.source.eth[0].mac utilization:histogram:rangemax 0.023
scalar TransportPathVisualizerSimpleWiredShowcase.source.eth[0].mac utilization:histogram:underflows 0
scalar TransportPathVisualizerSimpleWiredShowcase.source.eth[0].mac utilization:histogram:overflows 0
scalar TransportPathVisualizerSimpleWiredShowcase.destination.eth[0].queue queueingTime:histogram:count 5
scalar TransportPathVisualizerSimpleWiredShowcase.destination.eth[0].queue queueingTime:histogram:sumweights 5
scalar TransportPathVisualizerSimpleWiredShowcase.destination.eth[0].queue queueingTime:histogram:mean 0
scalar TransportPathVisualizerSimpleWiredShowcase.destination.eth[0].queue queueingTime:histogram:stddev 0
scalar TransportPathVisualizerSimpleWiredShowcase.destination.eth[0].queue queueingTime:histogram:min 0
scalar TransportPathVisualizerSimpleWiredShowcase.destination.eth[0].queue queueingTime:histogram:max 0
scalar TransportPathVisualizerSimpleWiredShowcase.destination.eth[0].queue queueingTime:histogram:numbins 50
scalar TransportPathVisualizerSimpleWiredShowcase.destination.eth[0].queue queueingTime:histogram:rangemin -0.5
scalar TransportPathVisualizerSimpleWiredShowcase.destination.eth[0].queue queueingTime:histogram:rangemax 0.5
scalar TransportPathVisualizerSimpleWiredShowcase.destination.eth[0].queue queueingTime:histogram:underflows 0
scalar TransportPathVisualizerSimpleWiredShowcase.destination.eth[0].queue queueingTime:histogram:overflows 0
scalar TransportPathVisualizerSimpleWiredShowcase.destination.eth[0].queue outgoingPacketLengths:histogram:count 5
scalar TransportPathVisualizerSimpleWiredShowcase.destination.eth[0].queue outgoingPacketLengths:histogram:sumweights 5
scalar TransportPathVisualizerSimpleWiredShowcase.destination.eth[0].queue outgoingPacketLengths:histogram:mean 368
scalar TransportPathVisualizerSimpleWiredShowcase.destination.eth[0].queue outgoingPacketLengths:histogram:stddev 0
scalar TransportPathVisualizerSimpleWiredShowcase.destination.eth[0].queue outgoingPacketLengths:histogram:min 368
scalar TransportPathVisualizerSimpleWiredShowcase.destination.eth[0].queue outgoingPacketLengths:histogram:max 368
scalar TransportPathVisualizerSimpleWiredShowcase.destination.eth[0].queue outgoingPacketLengths:histogram:numbins 2
scalar TransportPathVisualizerSimpleWiredShowcase.destination.eth[0].queue outgoingPacketLengths:histogram:rangemin 367
scalar TransportPathVisualizerSimpleWiredShowcase.destination.eth[0].queue outgoingPacketLengths:histogram:rangemax 369
scalar TransportPathVisualizerSimpleWiredShowcase.destination.eth[0].queue outgoingPacketLengths:histogram:underflows 0
scalar TransportPathVisualizerSimpleWiredShowcase.destination.eth[0].queue outgoingPacketLengths:histogram:overflows 0
scalar TransportPathVisualizerSimpleWiredShowcase.destination.eth[0].queue flowQueueingTime:histogram:count 0
scalar TransportPathVisualizerSimpleWiredShowcase.destination.eth[0].queue flowQueueingTime:histogram:sumweights 0
scalar TransportPathVisualizerSimpleWiredShowcase.destination.eth[0].queue flowQueueingTime:histogram:mean -nan
scalar TransportPathVisualizerSimpleWiredShowcase.destination.eth[0].queue flowQueueingTime:histogram:stddev nan
scalar TransportPathVisualizerSimpleWiredShowcase.destination.eth[0].queue flowQueueingTime:histogram:min nan
scalar TransportPathVisualizerSimpleWiredShowcase.destination.eth[0].queue flowQueueingTime:histogram:max nan
scalar TransportPathVisualizerSimpleWiredShowcase.destination.eth[0].queue flowQueueingTime:histogram:numbins 1
scalar TransportPathVisualizerSimpleWiredShowcase.destination.eth[0].queue flowQueueingTime:histogram:rangemin 0
scalar TransportPathVisualizerSimpleWiredShowcase.destination.eth[0].queue flowQueueingTime:histogram:rangemax 1
scalar TransportPathVisualizerSimpleWiredShowcase.destination.eth[0].queue flowQueueingTime:histogram:underflows 0
scalar TransportPathVisualizerSimpleWiredShowcase.destination.eth[0].queue flowQueueingTime:histogram:overflows 0
scalar TransportPathVisualizerSimpleWiredShowcase.destination.eth[0].queue incomingPacketLengths:histogram:count 5
scalar TransportPathVisualizerSimpleWiredShowcase.destination.eth[0].queue incomingPacketLengths:histogram:sumweights 5
scalar TransportPathVisualizerSimpleWiredShowcase.destination.eth[0].queue incomingPacketLengths:histogram:mean 368
scalar TransportPathVisualizerSimpleWiredShowcase.destination.eth[0].queue incomingPacketLengths:histogram:stddev 0
scalar TransportPathVisualizerSimpleWiredShowcase.destination.eth[0].queue incomingPacketLengths:histogram:min 368
scalar TransportPathVisualizerSimpleWiredShowcase.destination.eth[0].queue incomingPacketLengths:histogram:max 368
scalar TransportPathVisualizerSimpleWiredShowcase.destination.eth[0].queue incomingPacketLengths:histogram:numbins 2
scalar TransportPathVisualizerSimpleWiredShowcase.destination.eth[0].queue incomingPacketLengths:histogram:rangemin 367
scalar TransportPathVisualizerSimpleWiredShowcase.destination.eth[0].queue incomingPacketLengths:histogram:rangemax 369
scalar TransportPathVisualizerSimpleWiredShowcase.destination.eth[0].queue incomingPacketLengths:histogram:underflows 0
scalar TransportPathVisualizerSimpleWiredShowcase.destination.eth[0].queue incomingPacketLengths:histogram:overflows 0
scalar TransportPathVisualizerSimpleWiredShowcase.destination.eth[0].mac throughput:histogram:count 5000
scalar TransportPathVisualizerSimpleWiredShowcase.destination.eth[0].mac throughput:histogram:sumweights 5000
scalar TransportPathVisualizerSimpleWiredShowcase.destination.eth[0].mac throughput:histogram:mean 5.76
scalar TransportPathVisualizerSimpleWiredShowcase.destination.eth[0].mac throughput:histogram:stddev 182.07430519028
scalar TransportPathVisualizerSimpleWiredShowcase.destination.eth[0].mac throughput:histogram:min 0
scalar TransportPathVisualizerSimpleWiredShowcase.destination.eth[0].mac throughput:histogram:max 5760
scalar TransportPathVisualizerSimpleWiredShowcase.destination.eth[0].mac throughput:histogram:numbins 73
scalar TransportPathVisualizerSimpleWiredShowcase.destination.eth[0].mac throughput:histogram:rangemin 0
scalar TransportPathVisualizerSimpleWiredShowcase.destination.eth[0].mac throughput:histogram:rangemax 7300
scalar TransportPathVisualizerSimpleWiredShowcase.destination.eth[0].mac throughput:histogram:underflows 0
scalar TransportPathVisualizerSimpleWiredShowcase.destination.eth[0].mac throughput:histogram:overflows 0
scalar TransportPathVisualizerSimpleWiredShowcase.destination.eth[0].mac utilization:histogram:count 5000
scalar TransportPathVisualizerSimpleWiredShowcase.destination.eth[0].mac utilization:histogram:sumweights 5000
scalar TransportPathVisualizerSimpleWiredShowcase.destination.eth[0].mac utilization:histogram:mean 5.76e-06
scalar TransportPathVisualizerSimpleWiredShowcase.destination.eth[0].mac utilization:histogram:stddev 0.00018207430519028
scalar TransportPathVisualizerSimpleWiredShowcase.destination.eth[0].mac utilization:histogram:min 0
scalar TransportPathVisualizerSimpleWiredShowcase.destination.eth[0].mac utilization:histogram:max 0.00576
scalar TransportPathVisualizerSimpleWiredShowcase.destination.eth[0].mac utilization:histogram:numbins 72
scalar TransportPathVisualizerSimpleWiredShowcase.destination.eth[0].mac utilization:histogram:rangemin 0
scalar TransportPathVisualizerSimpleWiredShowcase.destination.eth[0].mac utilization:histogram:rangemax 0.0072
scalar TransportPathVisualizerSimpleWiredShowcase.destination.eth[0].mac utilization:histogram:underflows 0
scalar TransportPathVisualizerSimpleWiredShowcase.destination.eth[0].mac utilization:histogram:overflows 0
scalar TransportPathVisualizerSimpleWiredShowcase.destination.app[0] endToEndDelay:histogram:count 500
scalar TransportPathVisualizerSimpleWiredShowcase.destination.app[0] endToEndDelay:histogram:sumweights 500
scalar TransportPathVisualizerSimpleWiredShowcase.destination.app[0] endToEndDelay:histogram:mean 1.24862e-05
scalar TransportPathVisualizerSimpleWiredShowcase.destination.app[0] endToEndDelay:histogram:stddev 1.1573333144784e-06
scalar TransportPathVisualizerSimpleWiredShowcase.destination.app[0] endToEndDelay:histogram:min 1.237e-05
scalar TransportPathVisualizerSimpleWiredShowcase.destination.app[0] endToEndDelay:histogram:max 2.399e-05
scalar TransportPathVisualizerSimpleWiredShowcase.destination.app[0] endToEndDelay:histogram:numbins 88
scalar TransportPathVisualizerSimpleWiredShowcase.destination.app[0] endToEndDelay:histogram:rangemin 9.4e-06
scalar TransportPathVisualizerSimpleWiredShowcase.destination.app[0] endToEndDelay:histogram:rangemax 2.7e-05
scalar TransportPathVisualizerSimpleWiredShowcase.destination.app[0] endToEndDelay:histogram:underflows 0
scalar TransportPathVisualizerSimpleWiredShowcase.destination.app[0] endToEndDelay:histogram:overflows 0
statistic TransportPathVisualizerSimpleWiredShowcase.source.app[0] rcvdPkLifetime:stats
field count 0
field mean -nan
field stddev nan
field min nan
field max nan
field sum 0
field sqrsum 0
statistic TransportPathVisualizerSimpleWiredShowcase.source.eth[0].queue queueingTime:histogram
field count 506
field mean 0
field stddev 0
field min 0
field max 0
field sum 0
field sqrsum 0
bin	-inf	0
bin	-0.5	0
bin	-0.48	0
bin	-0.46	0
bin	-0.44	0
bin	-0.42	0
bin	-0.4	0
bin	-0.38	0
bin	-0.36	0
bin	-0.34	0
bin	-0.32	0
bin	-0.3	0
bin	-0.28	0
bin	-0.26	0
bin	-0.24	0
bin	-0.22	0
bin	-0.2	0
bin	-0.18	0
bin	-0.16	0
bin	-0.14	0
bin	-0.12	0
bin	-0.1	0
bin	-0.08	0
bin	-0.06	0
bin	-0.04	0
bin	-0.02	0
bin	0	506
bin	0.02	0
bin	0.04	0
bin	0.06	0
bin	0.08	0
bin	0.1	0
bin	0.12	0
bin	0.14	0
bin	0.16	0
bin	0.18	0
bin	0.2	0
bin	0.22	0
bin	0.24	0
bin	0.26	0
bin	0.28	0
bin	0.3	0
bin	0.32	0
bin	0.34	0
bin	0.36	0
bin	0.38	0
bin	0.4	0
bin	0.42	0
bin	0.44	0
bin	0.46	0
bin	0.48	0
bin	0.5	0
statistic TransportPathVisualizerSimpleWiredShowcase.source.eth[0].queue outgoingPacketLengths:histogram
field count 506
field mean 1160.0948616601
field stddev 79.208703475177
field min 368
field max 1168
field sum 587008
field sqrsum 684153344
bin	-inf	0
bin	160	0
bin	180	0
bin	200	0
bin	220	0
bin	240	0
bin	260	0
bin	280	0
bin	300	0
bin	320	0
bin	340	0
bin	360	5
bin	380	0
bin	400	0
bin	420	0
bin	440	0
bin	460	0
bin	480	0
bin	500	0
bin	520	0
bin	540	0
bin	560	0
bin	580	0
bin	600	0
bin	620	0
bin	640	0
bin	660	0
bin	680	0
bin	700	0
bin	720	0
bin	740	0
bin	760	0
bin	780	0
bin	800	0
bin	820	0
bin	840	0
bin	860	0
bin	880	0
bin	900	0
bin	920	0
bin	940	0
bin	960	0
bin	980	0
bin	1000	0
bin	1020	0
bin	1040	0
bin	1060	0
bin	1080	0
bin	1100	0
bin	1120	0
bin	1140	0
bin	1160	501
bin	1180	0
bin	1200	0
bin	1220	0
bin	1240	0
bin	1260	0
bin	1280	0
bin	1300	0
bin	1320	0
bin	1340	0
bin	1360	0
bin	1380	0
statistic TransportPathVisualizerSimpleWiredShowcase.source.eth[0].queue flowQueueingTime:histogram
field count 0
field mean -nan
field stddev nan
field min nan
field max nan
field sum 0
field sqrsum 0
bin	-inf	0
bin	0	0
bin	1	0
statistic TransportPathVisualizerSimpleWiredShowcase.source.eth[0].queue incomingPacketLengths:histogram
field count 506
field mean 1160.0948616601
field stddev 79.208703475177
field min 368
field max 1168
field sum 587008
field sqrsum 684153344
bin	-inf	0
bin	160	0
bin	180	0
bin	200	0
bin	220	0
bin	240	0
bin	260	0
bin	280	0
bin	300	0
bin	320	0
bin	340	0
bin	360	5
bin	380	0
bin	400	0
bin	420	0
bin	440	0
bin	460	0
bin	480	0
bin	500	0
bin	520	0
bin	540	0
bin	560	0
bin	580	0
bin	600	0
bin	620	0
bin	640	0
bin	660	0
bin	680	0
bin	700	0
bin	720	0
bin	740	0
bin	760	0
bin	780	0
bin	800	0
bin	820	0
bin	840	0
bin	860	0
bin	880	0
bin	900	0
bin	920	0
bin	940	0
bin	960	0
bin	980	0
bin	1000	0
bin	1020	0
bin	1040	0
bin	1060	0
bin	1080	0
bin	1100	0
bin	1120	0
bin	1140	0
bin	1160	501
bin	1180	0
bin	1200	0
bin	1220	0
bin	1240	0
bin	1260	0
bin	1280	0
bin	1300	0
bin	1320	0
bin	1340	0
bin	1360	0
bin	1380	0
statistic TransportPathVisualizerSimpleWiredShowcase.source.eth[0].mac throughput:histogram
field count 5000
field mean 1237.76
field stddev 3718.0719458072
field min 0
field max 18080
field sum 6188800
field sqrsum 76766720000
bin	-inf	0
bin	0	4500
bin	500	0
bin	1000	0
bin	1500	0
bin	2000	0
bin	2500	0
bin	3000	0
bin	3500	0
bin	4000	0
bin	4500	0
bin	5000	0
bin	5500	0
bin	6000	0
bin	6500	0
bin	7000	0
bin	7500	0
bin	8000	0
bin	8500	0
bin	9000	0
bin	9500	0
bin	10000	0
bin	10500	0
bin	11000	0
bin	11500	0
bin	12000	495
bin	12500	0
bin	13000	0
bin	13500	0
bin	14000	0
bin	14500	0
bin	15000	0
bin	15500	0
bin	16000	0
bin	16500	0
bin	17000	0
bin	17500	0
bin	18000	5
bin	18500	0
bin	19000	0
bin	19500	0
bin	20000	0
bin	20500	0
bin	21000	0
bin	21500	0
bin	22000	0
bin	22500	0
bin	23000	0
statistic TransportPathVisualizerSimpleWiredShowcase.source.eth[0].mac utilization:histogram
field count 5000
field mean 0.00123776
field stddev 0.0037180719458072
field min 0
field max 0.01808
field sum 6.1888
field sqrsum 0.07676672
bin	-inf	0
bin	0	4500
bin	0.0005	0
bin	0.001	0
bin	0.0015	0
bin	0.002	0
bin	0.0025	0
bin	0.003	0
bin	0.0035	0
bin	0.004	0
bin	0.0045	0
bin	0.005	0
bin	0.0055	0
bin	0.006	0
bin	0.0065	0
bin	0.007	0
bin	0.0075	0
bin	0.008	0
bin	0.0085	0
bin	0.009	0
bin	0.0095	0
bin	0.01	0
bin	0.0105	0
bin	0.011	0
bin	0.0115	0
bin	0.012	495
bin	0.0125	0
bin	0.013	0
bin	0.0135	0
bin	0.014	0
bin	0.0145	0
bin	0.015	0
bin	0.0155	0
bin	0.016	0
bin	0.0165	0
bin	0.017	0
bin	0.0175	0
bin	0.018	5
bin	0.0185	0
bin	0.019	0
bin	0.0195	0
bin	0.02	0
bin	0.0205	0
bin	0.021	0
bin	0.0215	0
bin	0.022	0
bin	0.0225	0
bin	0.023	0
statistic TransportPathVisualizerSimpleWiredShowcase.destination.eth[0].queue queueingTime:histogram
field count 5
field mean 0
field stddev 0
field min 0
field max 0
field sum 0
field sqrsum 0
bin	-inf	0
bin	-0.5	0
bin	-0.48	0
bin	-0.46	0
bin	-0.44	0
bin	-0.42	0
bin	-0.4	0
bin	-0.38	0
bin	-0.36	0
bin	-0.34	0
bin	-0.32	0
bin	-0.3	0
bin	-0.28	0
bin	-0.26	0
bin	-0.24	0
bin	-0.22	0
bin	-0.2	0
bin	-0.18	0
bin	-0.16	0
bin	-0.14	0
bin	-0.12	0
bin	-0.1	0
bin	-0.08	0
bin	-0.06	0
bin	-0.04	0
bin	-0.02	0
bin	0	5
bin	0.02	0
bin	0.04	0
bin	0.06	0
bin	0.08	0
bin	0.1	0
bin	0.12	0
bin	0.14	0
bin	0.16	0
bin	0.18	0
bin	0.2	0
bin	0.22	0
bin	0.24	0
bin	0.26	0
bin	0.28	0
bin	0.3	0
bin	0.32	0
bin	0.34	0
bin	0.36	0
bin	0.38	0
bin	0.4	0
bin	0.42	0
bin	0.44	0
bin	0.46	0
bin	0.48	0
bin	0.5	0
statistic TransportPathVisualizerSimpleWiredShowcase.destination.eth[0].queue outgoingPacketLengths:histogram
field count 5
field mean 368
field stddev 0
field min 368
field max 368
field sum 1840
field sqrsum 677120
bin	-inf	0
bin	367	0
bin	368	5
bin	369	0
statistic TransportPathVisualizerSimpleWiredShowcase.destination.eth[0].queue flowQueueingTime:histogram
field count 0
field mean -nan
field stddev nan
field min nan
field max nan
field sum 0
field sqrsum 0
bin	-inf	0
bin	0	0
bin	1	0
statistic TransportPathVisualizerSimpleWiredShowcase.destination.eth[0].queue incomingPacketLengths:histogram
field count 5
field mean 368
field stddev 0
field min 368
field max 368
field sum 1840
field sqrsum 677120
bin	-inf	0
bin	367	0
bin	368	5
bin	369	0
statistic TransportPathVisualizerSimpleWiredShowcase.destination.eth[0].mac throughput:histogram
field count 5000
field mean 5.76
field stddev 182.07430519028
field min 0
field max 5760
field sum 28800
field sqrsum 165888000
bin	-inf	0
bin	0	4995
bin	100	0
bin	200	0
bin	300	0
bin	400	0
bin	500	0
bin	600	0
bin	700	0
bin	800	0
bin	900	0
bin	1000	0
bin	1100	0
bin	1200	0
bin	1300	0
bin	1400	0
bin	1500	0
bin	1600	0
bin	1700	0
bin	1800	0
bin	1900	0
bin	2000	0
bin	2100	0
bin	2200	0
bin	2300	0
bin	2400	0
bin	2500	0
bin	2600	0
bin	2700	0
bin	2800	0
bin	2900	0
bin	3000	0
bin	3100	0
bin	3200	0
bin	3300	0
bin	3400	0
bin	3500	0
bin	3600	0
bin	3700	0
bin	3800	0
bin	3900	0
bin	4000	0
bin	4100	0
bin	4200	0
bin	4300	0
bin	4400	0
bin	4500	0
bin	4600	0
bin	4700	0
bin	4800	0
bin	4900	0
bin	5000	0
bin	5100	0
bin	5200	0
bin	5300	0
bin	5400	0
bin	5500	0
bin	5600	0
bin	5700	5
bin	5800	0
bin	5900	0
bin	6000	0
bin	6100	0
bin	6200	0
bin	6300	0
bin	6400	0
bin	6500	0
bin	6600	0
bin	6700	0
bin	6800	0
bin	6900	0
bin	7000	0
bin	7100	0
bin	7200	0
bin	7300	0
statistic TransportPathVisualizerSimpleWiredShowcase.destination.eth[0].mac utilization:histogram
field count 5000
field mean 5.76e-06
field stddev 0.00018207430519028
field min 0
field max 0.00576
field sum 0.0288
field sqrsum 0.000165888
bin	-inf	0
bin	0	4995
bin	0.0001	0
bin	0.0002	0
bin	0.0003	0
bin	0.0004	0
bin	0.0005	0
bin	0.0006	0
bin	0.0007	0
bin	0.0008	0
bin	0.0009	0
bin	0.001	0
bin	0.0011	0
bin	0.0012	0
bin	0.0013	0
bin	0.0014	0
bin	0.0015	0
bin	0.0016	0
bin	0.0017	0
bin	0.0018	0
bin	0.0019	0
bin	0.002	0
bin	0.0021	0
bin	0.0022	0
bin	0.0023	0
bin	0.0024	0
bin	0.0025	0
bin	0.0026	0
bin	0.0027	0
bin	0.0028	0
bin	0.0029	0
bin	0.003	0
bin	0.0031	0
bin	0.0032	0
bin	0.0033	0
bin	0.0034	0
bin	0.0035	0
bin	0.0036	0
bin	0.0037	0
bin	0.0038	0
bin	0.0039	0
bin	0.004	0
bin	0.0041	0
bin	0.0042	0
bin	0.0043	0
bin	0.0044	0
bin	0.0045	0
bin	0.0046	0
bin	0.0047	0
bin	0.0048	0
bin	0.0049	0
bin	0.005	0
bin	0.0051	0
bin	0.0052	0
bin	0.0053	0
bin	0.0054	0
bin	0.0055	0
bin	0.0056	0
bin	0.0057	5
bin	0.0058	0
bin	0.0059	0
bin	0.006	0
bin	0.0061	0
bin	0.0062	0
bin	0.0063	0
bin	0.0064	0
bin	0.0065	0
bin	0.0066	0
bin	0.0067	0
bin	0.0068	0
bin	0.0069	0
bin	0.007	0
bin	0.0071	0
bin	0.0072	0
statistic TransportPathVisualizerSimpleWiredShowcase.destination.app[0] endToEndDelay:histogram
field count 500
field mean 1.24862e-05
field stddev 1.1573333144784e-06
field min 1.237e-05
field max 2.399e-05
field sum 0.0062431
field sqrsum 7.8620966e-08
bin	-inf	0
bin	9.4e-06	0
bin	9.6e-06	0
bin	9.8e-06	0
bin	1e-05	0
bin	1.02e-05	0
bin	1.04e-05	0
bin	1.06e-05	0
bin	1.08e-05	0
bin	1.1e-05	0
bin	1.12e-05	0
bin	1.14e-05	0
bin	1.16e-05	0
bin	1.18e-05	0
bin	1.2e-05	0
bin	1.22e-05	495
bin	1.24e-05	0
bin	1.26e-05	0
bin	1.28e-05	0
bin	1.3e-05	0
bin	1.32e-05	0
bin	1.34e-05	0
bin	1.36e-05	0
bin	1.38e-05	0
bin	1.4e-05	0
bin	1.42e-05	0
bin	1.44e-05	0
bin	1.46e-05	0
bin	1.48e-05	0
bin	1.5e-05	0
bin	1.52e-05	0
bin	1.54e-05	0
bin	1.56e-05	0
bin	1.58e-05	0
bin	1.6e-05	0
bin	1.62e-05	0
bin	1.64e-05	0
bin	1.66e-05	0
bin	1.68e-05	0
bin	1.7e-05	0
bin	1.72e-05	0
bin	1.74e-05	0
bin	1.76e-05	0
bin	1.78e-05	0
bin	1.8e-05	0
bin	1.82e-05	0
bin	1.84e-05	0
bin	1.86e-05	0
bin	1.88e-05	0
bin	1.9e-05	0
bin	1.92e-05	0
bin	1.94e-05	0
bin	1.96e-05	0
bin	1.98e-05	0
bin	2e-05	0
bin	2.02e-05	0
bin	2.04e-05	0
bin	2.06e-05	0
bin	2.08e-05	0
bin	2.1e-05	0
bin	2.12e-05	0
bin	2.14e-05	0
bin	2.16e-05	0
bin	2.18e-05	0
bin	2.2e-05	0
bin	2.22e-05	0
bin	2.24e-05	0
bin	2.26e-05	0
bin	2.28e-05	0
bin	2.3e-05	0
bin	2.32e-05	0
bin	2.34e-05	0
bin	2.36e-05	0
bin	2.38e-05	5
bin	2.4e-05	0
bin	2.42e-05	0
bin	2.44e-05	0
bin	2.46e-05	0
bin	2.48e-05	0
bin	2.5e-05	0
bin	2.52e-05	0
bin	2.54e-05	0
bin	2.56e-05	0
bin	2.58e-05	0
bin	2.6e-05	0
bin	2.62e-05	0
bin	2.64e-05	0
bin	2.66e-05	0
bin	2.68e-05	0
bin	2.7e-05	0
scalar TransportPathVisualizerSimpleWiredShowcase.source.ethernet encapPk:vector(packetBytes):count 506
scalar TransportPathVisualizerSimpleWiredShowcase.source.ethernet encapPk:vector(packetBytes):sum 64268
scalar TransportPathVisualizerSimpleWiredShowcase.source.ethernet encapPk:vector(packetBytes):sumweights 506
scalar TransportPathVisualizerSimpleWiredShowcase.source.ethernet encapPk:vector(packetBytes):mean 127.01185770751
scalar TransportPathVisualizerSimpleWiredShowcase.source.ethernet encapPk:vector(packetBytes):stddev 9.9010879343971
scalar TransportPathVisualizerSimpleWiredShowcase.source.ethernet encapPk:vector(packetBytes):min 28
scalar TransportPathVisualizerSimpleWiredShowcase.source.ethernet encapPk:vector(packetBytes):max 128
scalar TransportPathVisualizerSimpleWiredShowcase.source.ethernet encapPk:vector(packetBytes):starttime 0
scalar TransportPathVisualizerSimpleWiredShowcase.source.ethernet encapPk:vector(packetBytes):endtime 500
scalar TransportPathVisualizerSimpleWiredShowcase.source.ethernet decapPk:vector(packetBytes):count 5
scalar TransportPathVisualizerSimpleWiredShowcase.source.ethernet decapPk:vector(packetBytes):sum 230
scalar TransportPathVisualizerSimpleWiredShowcase.source.ethernet decapPk:vector(packetBytes):sumweights 5
scalar TransportPathVisualizerSimpleWiredShowcase.source.ethernet decapPk:vector(packetBytes):mean 46
scalar TransportPathVisualizerSimpleWiredShowcase.source.ethernet decapPk:vector(packetBytes):stddev 0
scalar TransportPathVisualizerSimpleWiredShowcase.source.ethernet decapPk:vector(packetBytes):min 46
scalar TransportPathVisualizerSimpleWiredShowcase.source.ethernet decapPk:vector(packetBytes):max 46
scalar TransportPathVisualizerSimpleWiredShowcase.source.ethernet decapPk:vector(packetBytes):starttime 1.162e-05
scalar TransportPathVisualizerSimpleWiredShowcase.source.ethernet decapPk:vector(packetBytes):endtime 484.00001162
scalar TransportPathVisualizerSimpleWiredShowcase.source.ethernet pauseSent:vector:count 0
scalar TransportPathVisualizerSimpleWiredShowcase.source.ethernet pauseSent:vector:sum 0
scalar TransportPathVisualizerSimpleWiredShowcase.source.ethernet pauseSent:vector:sumweights 0
scalar TransportPathVisualizerSimpleWiredShowcase.source.ethernet pauseSent:vector:mean -nan
scalar TransportPathVisualizerSimpleWiredShowcase.source.ethernet pauseSent:vector:stddev nan
scalar TransportPathVisualizerSimpleWiredShowcase.source.ethernet pauseSent:vector:min inf
scalar TransportPathVisualizerSimpleWiredShowcase.source.ethernet pauseSent:vector:max -inf
scalar TransportPathVisualizerSimpleWiredShowcase.source.ethernet pauseSent:vector:starttime nan
scalar TransportPathVisualizerSimpleWiredShowcase.source.ethernet pauseSent:vector:endtime nan
scalar TransportPathVisualizerSimpleWiredShowcase.source.lo[0].lo rcvdPkFromHl:vector(packetBytes):count 0
scalar TransportPathVisualizerSimpleWiredShowcase.source.lo[0].lo rcvdPkFromHl:vector(packetBytes):sum 0
scalar TransportPathVisualizerSimpleWiredShowcase.source.lo[0].lo rcvdPkFromHl:vector(packetBytes):sumweights 0
scalar TransportPathVisualizerSimpleWiredShowcase.source.lo[0].lo rcvdPkFromHl:vector(packetBytes):mean -nan
scalar TransportPathVisualizerSimpleWiredShowcase.source.lo[0].lo rcvdPkFromHl:vector(packetBytes):stddev nan
scalar TransportPathVisualizerSimpleWiredShowcase.source.lo[0].lo rcvdPkFromHl:vector(packetBytes):min inf
scalar TransportPathVisualizerSimpleWiredShowcase.source.lo[0].lo rcvdPkFromHl:vector(packetBytes):max -inf
scalar TransportPathVisualizerSimpleWiredShowcase.source.lo[0].lo rcvdPkFromHl:vector(packetBytes):starttime nan
scalar TransportPathVisualizerSimpleWiredShowcase.source.lo[0].lo rcvdPkFromHl:vector(packetBytes):endtime nan
scalar TransportPathVisualizerSimpleWiredShowcase.source.lo[0].lo passedUpPk:vector(packetBytes):count 0
scalar TransportPathVisualizerSimpleWiredShowcase.source.lo[0].lo passedUpPk:vector(packetBytes):sum 0
scalar TransportPathVisualizerSimpleWiredShowcase.source.lo[0].lo passedUpPk:vector(packetBytes):sumweights 0
scalar TransportPathVisualizerSimpleWiredShowcase.source.lo[0].lo passedUpPk:vector(packetBytes):mean -nan
scalar TransportPathVisualizerSimpleWiredShowcase.source.lo[0].lo passedUpPk:vector(packetBytes):stddev nan
scalar TransportPathVisualizerSimpleWiredShowcase.source.lo[0].lo passedUpPk:vector(packetBytes):min inf
scalar TransportPathVisualizerSimpleWiredShowcase.source.lo[0].lo passedUpPk:vector(packetBytes):max -inf
scalar TransportPathVisualizerSimpleWiredShowcase.source.lo[0].lo passedUpPk:vector(packetBytes):starttime nan
scalar TransportPathVisualizerSimpleWiredShowcase.source.lo[0].lo passedUpPk:vector(packetBytes):endtime nan
scalar TransportPathVisualizerSimpleWiredShowcase.source.lo[0] packetDropInterfaceDown:vector(packetBytes):count 0
scalar TransportPathVisualizerSimpleWiredShowcase.source.lo[0] packetDropInterfaceDown:vector(packetBytes):sum 0
scalar TransportPathVisualizerSimpleWiredShowcase.source.lo[0] packetDropInterfaceDown:vector(packetBytes):sumweights 0
scalar TransportPathVisualizerSimpleWiredShowcase.source.lo[0] packetDropInterfaceDown:vector(packetBytes):mean -nan
scalar TransportPathVisualizerSimpleWiredShowcase.source.lo[0] packetDropInterfaceDown:vector(packetBytes):stddev nan
scalar TransportPathVisualizerSimpleWiredShowcase.source.lo[0] packetDropInterfaceDown:vector(packetBytes):min inf
scalar TransportPathVisualizerSimpleWiredShowcase.source.lo[0] packetDropInterfaceDown:vector(packetBytes):max -inf
scalar TransportPathVisualizerSimpleWiredShowcase.source.lo[0] packetDropInterfaceDown:vector(packetBytes):starttime nan
scalar TransportPathVisualizerSimpleWiredShowcase.source.lo[0] packetDropInterfaceDown:vector(packetBytes):endtime nan
scalar TransportPathVisualizerSimpleWiredShowcase.source.lo[0] packetDropNoCarrier:vector(packetBytes):count 0
scalar TransportPathVisualizerSimpleWiredShowcase.source.lo[0] packetDropNoCarrier:vector(packetBytes):sum 0
scalar TransportPathVisualizerSimpleWiredShowcase.source.lo[0] packetDropNoCarrier:vector(packetBytes):sumweights 0
scalar TransportPathVisualizerSimpleWiredShowcase.source.lo[0] packetDropNoCarrier:vector(packetBytes):mean -nan
scalar TransportPathVisualizerSimpleWiredShowcase.source.lo[0] packetDropNoCarrier:vector(packetBytes):stddev nan
scalar TransportPathVisualizerSimpleWiredShowcase.source.lo[0] packetDropNoCarrier:vector(packetBytes):min inf
scalar TransportPathVisualizerSimpleWiredShowcase.source.lo[0] packetDropNoCarrier:vector(packetBytes):max -inf
scalar TransportPathVisualizerSimpleWiredShowcase.source.lo[0] packetDropNoCarrier:vector(packetBytes):starttime nan
scalar TransportPathVisualizerSimpleWiredShowcase.source.lo[0] packetDropNoCarrier:vector(packetBytes):endtime nan
scalar TransportPathVisualizerSimpleWiredShowcase.source.eth[0].queue queueLength:vector:count 511
scalar TransportPathVisualizerSimpleWiredShowcase.source.eth[0].queue queueLength:vector:sum 0
scalar TransportPathVisualizerSimpleWiredShowcase.source.eth[0].queue queueLength:vector:sumweights 511
scalar TransportPathVisualizerSimpleWiredShowcase.source.eth[0].queue queueLength:vector:mean 0
scalar TransportPathVisualizerSimpleWiredShowcase.source.eth[0].queue queueLength:vector:stddev 0
scalar TransportPathVisualizerSimpleWiredShowcase.source.eth[0].queue queueLength:vector:min 0
scalar TransportPathVisualizerSimpleWiredShowcase.source.eth[0].queue queueLength:vector:max 0
scalar TransportPathVisualizerSimpleWiredShowcase.source.eth[0].queue queueLength:vector:starttime 0
scalar TransportPathVisualizerSimpleWiredShowcase.source.eth[0].queue queueLength:vector:endtime 500
scalar TransportPathVisualizerSimpleWiredShowcase.source.eth[0].queue queueBitLength:vector:count 511
scalar TransportPathVisualizerSimpleWiredShowcase.source.eth[0].queue queueBitLength:vector:sum 0
scalar TransportPathVisualizerSimpleWiredShowcase.source.eth[0].queue queueBitLength:vector:sumweights 511
scalar TransportPathVisualizerSimpleWiredShowcase.source.eth[0].queue queueBitLength:vector:mean 0
scalar TransportPathVisualizerSimpleWiredShowcase.source.eth[0].queue queueBitLength:vector:stddev 0
scalar TransportPathVisualizerSimpleWiredShowcase.source.eth[0].queue queueBitLength:vector:min 0
scalar TransportPathVisualizerSimpleWiredShowcase.source.eth[0].queue queueBitLength:vector:max 0
scalar TransportPathVisualizerSimpleWiredShowcase.source.eth[0].queue queueBitLength:vector:starttime 0
scalar TransportPathVisualizerSimpleWiredShowcase.source.eth[0].queue queueBitLength:vector:endtime 500
scalar TransportPathVisualizerSimpleWiredShowcase.source.eth[0].queue queueingTime:vector:count 506
scalar TransportPathVisualizerSimpleWiredShowcase.source.eth[0].queue queueingTime:vector:sum 0
scalar TransportPathVisualizerSimpleWiredShowcase.source.eth[0].queue queueingTime:vector:sumweights 506
scalar TransportPathVisualizerSimpleWiredShowcase.source.eth[0].queue queueingTime:vector:mean 0
scalar TransportPathVisualizerSimpleWiredShowcase.source.eth[0].queue queueingTime:vector:stddev 0
scalar TransportPathVisualizerSimpleWiredShowcase.source.eth[0].queue queueingTime:vector:min 0
scalar TransportPathVisualizerSimpleWiredShowcase.source.eth[0].queue queueingTime:vector:max 0
scalar TransportPathVisualizerSimpleWiredShowcase.source.eth[0].queue queueingTime:vector:starttime 0
scalar TransportPathVisualizerSimpleWiredShowcase.source.eth[0].queue queueingTime:vector:endtime 500
scalar TransportPathVisualizerSimpleWiredShowcase.source.eth[0].queue incomingPacketLengths:vector:count 506
scalar TransportPathVisualizerSimpleWiredShowcase.source.eth[0].queue incomingPacketLengths:vector:sum 587008
scalar TransportPathVisualizerSimpleWiredShowcase.source.eth[0].queue incomingPacketLengths:vector:sumweights 506
scalar TransportPathVisualizerSimpleWiredShowcase.source.eth[0].queue incomingPacketLengths:vector:mean 1160.0948616601
scalar TransportPathVisualizerSimpleWiredShowcase.source.eth[0].queue incomingPacketLengths:vector:stddev 79.208703475177
scalar TransportPathVisualizerSimpleWiredShowcase.source.eth[0].queue incomingPacketLengths:vector:min 368
scalar TransportPathVisualizerSimpleWiredShowcase.source.eth[0].queue incomingPacketLengths:vector:max 1168
scalar TransportPathVisualizerSimpleWiredShowcase.source.eth[0].queue incomingPacketLengths:vector:starttime 0
scalar TransportPathVisualizerSimpleWiredShowcase.source.eth[0].queue incomingPacketLengths:vector:endtime 500
scalar TransportPathVisualizerSimpleWiredShowcase.source.eth[0].queue incomingDataRate:vector:count 5000
scalar TransportPathVisualizerSimpleWiredShowcase.source.eth[0].queue incomingDataRate:vector:sum 5858400
scalar TransportPathVisualizerSimpleWiredShowcase.source.eth[0].queue incomingDataRate:vector:sumweights 5000
scalar TransportPathVisualizerSimpleWiredShowcase.source.eth[0].queue incomingDataRate:vector:mean 1171.68
scalar TransportPathVisualizerSimpleWiredShowcase.source.eth[0].queue incomingDataRate:vector:stddev 3517.2983176141
scalar TransportPathVisualizerSimpleWiredShowcase.source.eth[0].queue incomingDataRate:vector:min 0
scalar TransportPathVisualizerSimpleWiredShowcase.source.eth[0].queue incomingDataRate:vector:max 15360
scalar TransportPathVisualizerSimpleWiredShowcase.source.eth[0].queue incomingDataRate:vector:starttime 0.1
scalar TransportPathVisualizerSimpleWiredShowcase.source.eth[0].queue incomingDataRate:vector:endtime 500
scalar TransportPathVisualizerSimpleWiredShowcase.source.eth[0].queue outgoingPacketLengths:vector:count 506
scalar TransportPathVisualizerSimpleWiredShowcase.source.eth[0].queue outgoingPacketLengths:vector:sum 587008
scalar TransportPathVisualizerSimpleWiredShowcase.source.eth[0].queue outgoingPacketLengths:vector:sumweights 506
scalar TransportPathVisualizerSimpleWiredShowcase.source.eth[0].queue outgoingPacketLengths:vector:mean 1160.0948616601
scalar TransportPathVisualizerSimpleWiredShowcase.source.eth[0].queue outgoingPacketLengths:vector:stddev 79.208703475177
scalar TransportPathVisualizerSimpleWiredShowcase.source.eth[0].queue outgoingPacketLengths:vector:min 368
scalar TransportPathVisualizerSimpleWiredShowcase.source.eth[0].queue outgoingPacketLengths:vector:max 1168
scalar TransportPathVisualizerSimpleWiredShowcase.source.eth[0].queue outgoingPacketLengths:vector:starttime 0
scalar TransportPathVisualizerSimpleWiredShowcase.source.eth[0].queue outgoingPacketLengths:vector:endtime 500
scalar TransportPathVisualizerSimpleWiredShowcase.source.eth[0].queue outgoingDataRate:vector:count 5000
scalar TransportPathVisualizerSimpleWiredShowcase.source.eth[0].queue outgoingDataRate:vector:sum 5858400
scalar TransportPathVisualizerSimpleWiredShowcase.source.eth[0].queue outgoingDataRate:vector:sumweights 5000
scalar TransportPathVisualizerSimpleWiredShowcase.source.eth[0].queue outgoingDataRate:vector:mean 1171.68
scalar TransportPathVisualizerSimpleWiredShowcase.source.eth[0].queue outgoingDataRate:vector:stddev 3517.2983176141
scalar TransportPathVisualizerSimpleWiredShowcase.source.eth[0].queue outgoingDataRate:vector:min 0
scalar TransportPathVisualizerSimpleWiredShowcase.source.eth[0].queue outgoingDataRate:vector:max 15360
scalar TransportPathVisualizerSimpleWiredShowcase.source.eth[0].queue outgoingDataRate:vector:starttime 0.1
scalar TransportPathVisualizerSimpleWiredShowcase.source.eth[0].queue outgoingDataRate:vector:endtime 500
scalar TransportPathVisualizerSimpleWiredShowcase.source.eth[0].queue droppedPacketLengthsQueueOverflow:vector:count 0
scalar TransportPathVisualizerSimpleWiredShowcase.source.eth[0].queue droppedPacketLengthsQueueOverflow:vector:sum 0
scalar TransportPathVisualizerSimpleWiredShowcase.source.eth[0].queue droppedPacketLengthsQueueOverflow:vector:sumweights 0
scalar TransportPathVisualizerSimpleWiredShowcase.source.eth[0].queue droppedPacketLengthsQueueOverflow:vector:mean -nan
scalar TransportPathVisualizerSimpleWiredShowcase.source.eth[0].queue droppedPacketLengthsQueueOverflow:vector:stddev nan
scalar TransportPathVisualizerSimpleWiredShowcase.source.eth[0].queue droppedPacketLengthsQueueOverflow:vector:min inf
scalar TransportPathVisualizerSimpleWiredShowcase.source.eth[0].queue droppedPacketLengthsQueueOverflow:vector:max -inf
scalar TransportPathVisualizerSimpleWiredShowcase.source.eth[0].queue droppedPacketLengthsQueueOverflow:vector:starttime nan
scalar TransportPathVisualizerSimpleWiredShowcase.source.eth[0].queue droppedPacketLengthsQueueOverflow:vector:endtime nan
scalar TransportPathVisualizerSimpleWiredShowcase.source.eth[0].queue flowQueueingTime:vector:count 0
scalar TransportPathVisualizerSimpleWiredShowcase.source.eth[0].queue flowQueueingTime:vector:sum 0
scalar TransportPathVisualizerSimpleWiredShowcase.source.eth[0].queue flowQueueingTime:vector:sumweights 0
scalar TransportPathVisualizerSimpleWiredShowcase.source.eth[0].queue flowQueueingTime:vector:mean -nan
scalar TransportPathVisualizerSimpleWiredShowcase.source.eth[0].queue flowQueueingTime:vector:stddev nan
scalar TransportPathVisualizerSimpleWiredShowcase.source.eth[0].queue flowQueueingTime:vector:min inf
scalar TransportPathVisualizerSimpleWiredShowcase.source.eth[0].queue flowQueueingTime:vector:max -inf
scalar TransportPathVisualizerSimpleWiredShowcase.source.eth[0].queue flowQueueingTime:vector:starttime nan
scalar TransportPathVisualizerSimpleWiredShowcase.source.eth[0].queue flowQueueingTime:vector:endtime nan
scalar TransportPathVisualizerSimpleWiredShowcase.source.eth[0].queue flowIncomingDataRate:vector:count 5000
scalar TransportPathVisualizerSimpleWiredShowcase.source.eth[0].queue flowIncomingDataRate:vector:sum 0
scalar TransportPathVisualizerSimpleWiredShowcase.source.eth[0].queue flowIncomingDataRate:vector:sumweights 5000
scalar TransportPathVisualizerSimpleWiredShowcase.source.eth[0].queue flowIncomingDataRate:vector:mean 0
scalar TransportPathVisualizerSimpleWiredShowcase.source.eth[0].queue flowIncomingDataRate:vector:stddev 0
scalar TransportPathVisualizerSimpleWiredShowcase.source.eth[0].queue flowIncomingDataRate:vector:min 0
scalar TransportPathVisualizerSimpleWiredShowcase.source.eth[0].queue flowIncomingDataRate:vector:max 0
scalar TransportPathVisualizerSimpleWiredShowcase.source.eth[0].queue flowIncomingDataRate:vector:starttime 0.1
scalar TransportPathVisualizerSimpleWiredShowcase.source.eth[0].queue flowIncomingDataRate:vector:endtime 500
scalar TransportPathVisualizerSimpleWiredShowcase.source.eth[0].queue flowOutgoingDataRate:vector:count 5000
scalar TransportPathVisualizerSimpleWiredShowcase.source.eth[0].queue flowOutgoingDataRate:vector:sum 0
scalar TransportPathVisualizerSimpleWiredShowcase.source.eth[0].queue flowOutgoingDataRate:vector:sumweights 5000
scalar TransportPathVisualizerSimpleWiredShowcase.source.eth[0].queue flowOutgoingDataRate:vector:mean 0
scalar TransportPathVisualizerSimpleWiredShowcase.source.eth[0].queue flowOutgoingDataRate:vector:stddev 0
scalar TransportPathVisualizerSimpleWiredShowcase.source.eth[0].queue flowOutgoingDataRate:vector:min 0
scalar TransportPathVisualizerSimpleWiredShowcase.source.eth[0].queue flowOutgoingDataRate:vector:max 0
scalar TransportPathVisualizerSimpleWiredShowcase.source.eth[0].queue flowOutgoingDataRate:vector:starttime 0.1
scalar TransportPathVisualizerSimpleWiredShowcase.source.eth[0].queue flowOutgoingDataRate:vector:endtime 500
scalar TransportPathVisualizerSimpleWiredShowcase.source.eth[0].mac transmitting:vector:count 1013
scalar TransportPathVisualizerSimpleWiredShowcase.source.eth[0].mac transmitting:vector:sum 506
scalar TransportPathVisualizerSimpleWiredShowcase.source.eth[0].mac transmitting:vector:sumweights 1013
scalar TransportPathVisualizerSimpleWiredShowcase.source.eth[0].mac transmitting:vector:mean 0.4995064165844
scalar TransportPathVisualizerSimpleWiredShowcase.source.eth[0].mac transmitting:vector:stddev 0.5002467308317
scalar TransportPathVisualizerSimpleWiredShowcase.source.eth[0].mac transmitting:vector:min 0
scalar TransportPathVisualizerSimpleWiredShowcase.source.eth[0].mac transmitting:vector:max 1
scalar TransportPathVisualizerSimpleWiredShowcase.source.eth[0].mac transmitting:vector:starttime 0
scalar TransportPathVisualizerSimpleWiredShowcase.source.eth[0].mac transmitting:vector:endtime 500
scalar TransportPathVisualizerSimpleWiredShowcase.source.eth[0].mac throughput:vector:count 5000
scalar TransportPathVisualizerSimpleWiredShowcase.source.eth[0].mac throughput:vector:sum 6188800
scalar TransportPathVisualizerSimpleWiredShowcase.source.eth[0].mac throughput:vector:sumweights 5000
scalar TransportPathVisualizerSimpleWiredShowcase.source.eth[0].mac throughput:vector:mean 1237.76
scalar TransportPathVisualizerSimpleWiredShowcase.source.eth[0].mac throughput:vector:stddev 3718.0719458072
scalar TransportPathVisualizerSimpleWiredShowcase.source.eth[0].mac throughput:vector:min 0
scalar TransportPathVisualizerSimpleWiredShowcase.source.eth[0].mac throughput:vector:max 18080
scalar TransportPathVisualizerSimpleWiredShowcase.source.eth[0].mac throughput:vector:starttime 0.1
scalar TransportPathVisualizerSimpleWiredShowcase.source.eth[0].mac throughput:vector:endtime 500
scalar TransportPathVisualizerSimpleWiredShowcase.source.eth[0].mac utilization:vector:count 5000
scalar TransportPathVisualizerSimpleWiredShowcase.source.eth[0].mac utilization:vector:sum 6.1888
scalar TransportPathVisualizerSimpleWiredShowcase.source.eth[0].mac utilization:vector:sumweights 5000
scalar TransportPathVisualizerSimpleWiredShowcase.source.eth[0].mac utilization:vector:mean 0.00123776
scalar TransportPathVisualizerSimpleWiredShowcase.source.eth[0].mac utilization:vector:stddev 0.0037180719458072
scalar TransportPathVisualizerSimpleWiredShowcase.source.eth[0].mac utilization:vector:min 0
scalar TransportPathVisualizerSimpleWiredShowcase.source.eth[0].mac utilization:vector:max 0.01808
scalar TransportPathVisualizerSimpleWiredShowcase.source.eth[0].mac utilization:vector:starttime 0.1
scalar TransportPathVisualizerSimpleWiredShowcase.source.eth[0].mac utilization:vector:endtime 500
scalar TransportPathVisualizerSimpleWiredShowcase.source.eth[0].mac txPk:vector(packetBytes):count 505
scalar TransportPathVisualizerSimpleWiredShowcase.source.eth[0].mac txPk:vector(packetBytes):sum 73320
scalar TransportPathVisualizerSimpleWiredShowcase.source.eth[0].mac txPk:vector(packetBytes):sumweights 505
scalar TransportPathVisualizerSimpleWiredShowcase.source.eth[0].mac txPk:vector(packetBytes):mean 145.18811881188
scalar TransportPathVisualizerSimpleWiredShowcase.source.eth[0].mac txPk:vector(packetBytes):stddev 8.1268622667865
scalar TransportPathVisualizerSimpleWiredShowcase.source.eth[0].mac txPk:vector(packetBytes):min 64
scalar TransportPathVisualizerSimpleWiredShowcase.source.eth[0].mac txPk:vector(packetBytes):max 146
scalar TransportPathVisualizerSimpleWiredShowcase.source.eth[0].mac txPk:vector(packetBytes):starttime 5.76e-06
scalar TransportPathVisualizerSimpleWiredShowcase.source.eth[0].mac txPk:vector(packetBytes):endtime 499.00001232
scalar TransportPathVisualizerSimpleWiredShowcase.source.eth[0].mac rxPkOk:vector(packetBytes):count 5
scalar TransportPathVisualizerSimpleWiredShowcase.source.eth[0].mac rxPkOk:vector(packetBytes):sum 320
scalar TransportPathVisualizerSimpleWiredShowcase.source.eth[0].mac rxPkOk:vector(packetBytes):sumweights 5
scalar TransportPathVisualizerSimpleWiredShowcase.source.eth[0].mac rxPkOk:vector(packetBytes):mean 64
scalar TransportPathVisualizerSimpleWiredShowcase.source.eth[0].mac rxPkOk:vector(packetBytes):stddev 0
scalar TransportPathVisualizerSimpleWiredShowcase.source.eth[0].mac rxPkOk:vector(packetBytes):min 64
scalar TransportPathVisualizerSimpleWiredShowcase.source.eth[0].mac rxPkOk:vector(packetBytes):max 64
scalar TransportPathVisualizerSimpleWiredShowcase.source.eth[0].mac rxPkOk:vector(packetBytes):starttime 1.162e-05
scalar TransportPathVisualizerSimpleWiredShowcase.source.eth[0].mac rxPkOk:vector(packetBytes):endtime 484.00001162
scalar TransportPathVisualizerSimpleWiredShowcase.source.eth[0].mac passedUpPk:vector(packetBytes):count 5
scalar TransportPathVisualizerSimpleWiredShowcase.source.eth[0].mac passedUpPk:vector(packetBytes):sum 320
scalar TransportPathVisualizerSimpleWiredShowcase.source.eth[0].mac passedUpPk:vector(packetBytes):sumweights 5
scalar TransportPathVisualizerSimpleWiredShowcase.source.eth[0].mac passedUpPk:vector(packetBytes):mean 64
scalar TransportPathVisualizerSimpleWiredShowcase.source.eth[0].mac passedUpPk:vector(packetBytes):stddev 0
scalar TransportPathVisualizerSimpleWiredShowcase.source.eth[0].mac passedUpPk:vector(packetBytes):min 64
scalar TransportPathVisualizerSimpleWiredShowcase.source.eth[0].mac passedUpPk:vector(packetBytes):max 64
scalar TransportPathVisualizerSimpleWiredShowcase.source.eth[0].mac passedUpPk:vector(packetBytes):starttime 1.162e-05
scalar TransportPathVisualizerSimpleWiredShowcase.source.eth[0].mac passedUpPk:vector(packetBytes):endtime 484.00001162
scalar TransportPathVisualizerSimpleWiredShowcase.source.eth[0].mac txPausePkUnits:vector:count 0
scalar TransportPathVisualizerSimpleWiredShowcase.source.eth[0].mac txPausePkUnits:vector:sum 0
scalar TransportPathVisualizerSimpleWiredShowcase.source.eth[0].mac txPausePkUnits:vector:sumweights 0
scalar TransportPathVisualizerSimpleWiredShowcase.source.eth[0].mac txPausePkUnits:vector:mean -nan
scalar TransportPathVisualizerSimpleWiredShowcase.source.eth[0].mac txPausePkUnits:vector:stddev nan
scalar TransportPathVisualizerSimpleWiredShowcase.source.eth[0].mac txPausePkUnits:vector:min inf
scalar TransportPathVisualizerSimpleWiredShowcase.source.eth[0].mac txPausePkUnits:vector:max -inf
scalar TransportPathVisualizerSimpleWiredShowcase.source.eth[0].mac txPausePkUnits:vector:starttime nan
scalar TransportPathVisualizerSimpleWiredShowcase.source.eth[0].mac txPausePkUnits:vector:endtime nan
scalar TransportPathVisualizerSimpleWiredShowcase.source.eth[0].mac rxPausePkUnits:vector:count 0
scalar TransportPathVisualizerSimpleWiredShowcase.source.eth[0].mac rxPausePkUnits:vector:sum 0
scalar TransportPathVisualizerSimpleWiredShowcase.source.eth[0].mac rxPausePkUnits:vector:sumweights 0
scalar TransportPathVisualizerSimpleWiredShowcase.source.eth[0].mac rxPausePkUnits:vector:mean -nan
scalar TransportPathVisualizerSimpleWiredShowcase.source.eth[0].mac rxPausePkUnits:vector:stddev nan
scalar TransportPathVisualizerSimpleWiredShowcase.source.eth[0].mac rxPausePkUnits:vector:min inf
scalar TransportPathVisualizerSimpleWiredShowcase.source.eth[0].mac rxPausePkUnits:vector:max -inf
scalar TransportPathVisualizerSimpleWiredShowcase.source.eth[0].mac rxPausePkUnits:vector:starttime nan
scalar TransportPathVisualizerSimpleWiredShowcase.source.eth[0].mac rxPausePkUnits:vector:endtime nan
scalar TransportPathVisualizerSimpleWiredShowcase.source.eth[0].mac packetReceivedFromUpper:vector(packetBytes):count 506
scalar TransportPathVisualizerSimpleWiredShowcase.source.eth[0].mac packetReceivedFromUpper:vector(packetBytes):sum 73376
scalar TransportPathVisualizerSimpleWiredShowcase.source.eth[0].mac packetReceivedFromUpper:vector(packetBytes):sumweights 506
scalar TransportPathVisualizerSimpleWiredShowcase.source.eth[0].mac packetReceivedFromUpper:vector(packetBytes):mean 145.01185770751
scalar TransportPathVisualizerSimpleWiredShowcase.source.eth[0].mac packetReceivedFromUpper:vector(packetBytes):stddev 9.9010879343972
scalar TransportPathVisualizerSimpleWiredShowcase.source.eth[0].mac packetReceivedFromUpper:vector(packetBytes):min 46
scalar TransportPathVisualizerSimpleWiredShowcase.source.eth[0].mac packetReceivedFromUpper:vector(packetBytes):max 146
scalar TransportPathVisualizerSimpleWiredShowcase.source.eth[0].mac packetReceivedFromUpper:vector(packetBytes):starttime 0
scalar TransportPathVisualizerSimpleWiredShowcase.source.eth[0].mac packetReceivedFromUpper:vector(packetBytes):endtime 500
scalar TransportPathVisualizerSimpleWiredShowcase.source.eth[0].mac packetDropIncorrectlyReceived:vector(packetBytes):count 0
scalar TransportPathVisualizerSimpleWiredShowcase.source.eth[0].mac packetDropIncorrectlyReceived:vector(packetBytes):sum 0
scalar TransportPathVisualizerSimpleWiredShowcase.source.eth[0].mac packetDropIncorrectlyReceived:vector(packetBytes):sumweights 0
scalar TransportPathVisualizerSimpleWiredShowcase.source.eth[0].mac packetDropIncorrectlyReceived:vector(packetBytes):mean -nan
scalar TransportPathVisualizerSimpleWiredShowcase.source.eth[0].mac packetDropIncorrectlyReceived:vector(packetBytes):stddev nan
scalar TransportPathVisualizerSimpleWiredShowcase.source.eth[0].mac packetDropIncorrectlyReceived:vector(packetBytes):min inf
scalar TransportPathVisualizerSimpleWiredShowcase.source.eth[0].mac packetDropIncorrectlyReceived:vector(packetBytes):max -inf
scalar TransportPathVisualizerSimpleWiredShowcase.source.eth[0].mac packetDropIncorrectlyReceived:vector(packetBytes):starttime nan
scalar TransportPathVisualizerSimpleWiredShowcase.source.eth[0].mac packetDropIncorrectlyReceived:vector(packetBytes):endtime nan
scalar TransportPathVisualizerSimpleWiredShowcase.source.eth[0].mac packetDropInterfaceDown:vector(packetBytes):count 0
scalar TransportPathVisualizerSimpleWiredShowcase.source.eth[0].mac packetDropInterfaceDown:vector(packetBytes):sum 0
scalar TransportPathVisualizerSimpleWiredShowcase.source.eth[0].mac packetDropInterfaceDown:vector(packetBytes):sumweights 0
scalar TransportPathVisualizerSimpleWiredShowcase.source.eth[0].mac packetDropInterfaceDown:vector(packetBytes):mean -nan
scalar TransportPathVisualizerSimpleWiredShowcase.source.eth[0].mac packetDropInterfaceDown:vector(packetBytes):stddev nan
scalar TransportPathVisualizerSimpleWiredShowcase.source.eth[0].mac packetDropInterfaceDown:vector(packetBytes):min inf
scalar TransportPathVisualizerSimpleWiredShowcase.source.eth[0].mac packetDropInterfaceDown:vector(packetBytes):max -inf
scalar TransportPathVisualizerSimpleWiredShowcase.source.eth[0].mac packetDropInterfaceDown:vector(packetBytes):starttime nan
scalar TransportPathVisualizerSimpleWiredShowcase.source.eth[0].mac packetDropInterfaceDown:vector(packetBytes):endtime nan
scalar TransportPathVisualizerSimpleWiredShowcase.source.eth[0].mac packetDropNotAddressedToUs:vector(packetBytes):count 0
scalar TransportPathVisualizerSimpleWiredShowcase.source.eth[0].mac packetDropNotAddressedToUs:vector(packetBytes):sum 0
scalar TransportPathVisualizerSimpleWiredShowcase.source.eth[0].mac packetDropNotAddressedToUs:vector(packetBytes):sumweights 0
scalar TransportPathVisualizerSimpleWiredShowcase.source.eth[0].mac packetDropNotAddressedToUs:vector(packetBytes):mean -nan
scalar TransportPathVisualizerSimpleWiredShowcase.source.eth[0].mac packetDropNotAddressedToUs:vector(packetBytes):stddev nan
scalar TransportPathVisualizerSimpleWiredShowcase.source.eth[0].mac packetDropNotAddressedToUs:vector(packetBytes):min inf
scalar TransportPathVisualizerSimpleWiredShowcase.source.eth[0].mac packetDropNotAddressedToUs:vector(packetBytes):max -inf
scalar TransportPathVisualizerSimpleWiredShowcase.source.eth[0].mac packetDropNotAddressedToUs:vector(packetBytes):starttime nan
scalar TransportPathVisualizerSimpleWiredShowcase.source.eth[0].mac packetDropNotAddressedToUs:vector(packetBytes):endtime nan
scalar TransportPathVisualizerSimpleWiredShowcase.source.eth[0] packetDropInterfaceDown:vector(packetBytes):count 0
scalar TransportPathVisualizerSimpleWiredShowcase.source.eth[0] packetDropInterfaceDown:vector(packetBytes):sum 0
scalar TransportPathVisualizerSimpleWiredShowcase.source.eth[0] packetDropInterfaceDown:vector(packetBytes):sumweights 0
scalar TransportPathVisualizerSimpleWiredShowcase.source.eth[0] packetDropInterfaceDown:vector(packetBytes):mean -nan
scalar TransportPathVisualizerSimpleWiredShowcase.source.eth[0] packetDropInterfaceDown:vector(packetBytes):stddev nan
scalar TransportPathVisualizerSimpleWiredShowcase.source.eth[0] packetDropInterfaceDown:vector(packetBytes):min inf
scalar TransportPathVisualizerSimpleWiredShowcase.source.eth[0] packetDropInterfaceDown:vector(packetBytes):max -inf
scalar TransportPathVisualizerSimpleWiredShowcase.source.eth[0] packetDropInterfaceDown:vector(packetBytes):starttime nan
scalar TransportPathVisualizerSimpleWiredShowcase.source.eth[0] packetDropInterfaceDown:vector(packetBytes):endtime nan
scalar TransportPathVisualizerSimpleWiredShowcase.source.eth[0] packetDropNoCarrier:vector(packetBytes):count 0
scalar TransportPathVisualizerSimpleWiredShowcase.source.eth[0] packetDropNoCarrier:vector(packetBytes):sum 0
scalar TransportPathVisualizerSimpleWiredShowcase.source.eth[0] packetDropNoCarrier:vector(packetBytes):sumweights 0
scalar TransportPathVisualizerSimpleWiredShowcase.source.eth[0] packetDropNoCarrier:vector(packetBytes):mean -nan
scalar TransportPathVisualizerSimpleWiredShowcase.source.eth[0] packetDropNoCarrier:vector(packetBytes):stddev nan
scalar TransportPathVisualizerSimpleWiredShowcase.source.eth[0] packetDropNoCarrier:vector(packetBytes):min inf
scalar TransportPathVisualizerSimpleWiredShowcase.source.eth[0] packetDropNoCarrier:vector(packetBytes):max -inf
scalar TransportPathVisualizerSimpleWiredShowcase.source.eth[0] packetDropNoCarrier:vector(packetBytes):starttime nan
scalar TransportPathVisualizerSimpleWiredShowcase.source.eth[0] packetDropNoCarrier:vector(packetBytes):endtime nan
scalar TransportPathVisualizerSimpleWiredShowcase.source.ipv4.ip packetDropAddressResolutionFailed:vector(packetBytes):count 0
scalar TransportPathVisualizerSimpleWiredShowcase.source.ipv4.ip packetDropAddressResolutionFailed:vector(packetBytes):sum 0
scalar TransportPathVisualizerSimpleWiredShowcase.source.ipv4.ip packetDropAddressResolutionFailed:vector(packetBytes):sumweights 0
scalar TransportPathVisualizerSimpleWiredShowcase.source.ipv4.ip packetDropAddressResolutionFailed:vector(packetBytes):mean -nan
scalar TransportPathVisualizerSimpleWiredShowcase.source.ipv4.ip packetDropAddressResolutionFailed:vector(packetBytes):stddev nan
scalar TransportPathVisualizerSimpleWiredShowcase.source.ipv4.ip packetDropAddressResolutionFailed:vector(packetBytes):min inf
scalar TransportPathVisualizerSimpleWiredShowcase.source.ipv4.ip packetDropAddressResolutionFailed:vector(packetBytes):max -inf
scalar TransportPathVisualizerSimpleWiredShowcase.source.ipv4.ip packetDropAddressResolutionFailed:vector(packetBytes):starttime nan
scalar TransportPathVisualizerSimpleWiredShowcase.source.ipv4.ip packetDropAddressResolutionFailed:vector(packetBytes):endtime nan
scalar TransportPathVisualizerSimpleWiredShowcase.source.ipv4.ip packetDropHopLimitReached:vector(packetBytes):count 0
scalar TransportPathVisualizerSimpleWiredShowcase.source.ipv4.ip packetDropHopLimitReached:vector(packetBytes):sum 0
scalar TransportPathVisualizerSimpleWiredShowcase.source.ipv4.ip packetDropHopLimitReached:vector(packetBytes):sumweights 0
scalar TransportPathVisualizerSimpleWiredShowcase.source.ipv4.ip packetDropHopLimitReached:vector(packetBytes):mean -nan
scalar TransportPathVisualizerSimpleWiredShowcase.source.ipv4.ip packetDropHopLimitReached:vector(packetBytes):stddev nan
scalar TransportPathVisualizerSimpleWiredShowcase.source.ipv4.ip packetDropHopLimitReached:vector(packetBytes):min inf
scalar TransportPathVisualizerSimpleWiredShowcase.source.ipv4.ip packetDropHopLimitReached:vector(packetBytes):max -inf
scalar TransportPathVisualizerSimpleWiredShowcase.source.ipv4.ip packetDropHopLimitReached:vector(packetBytes):starttime nan
scalar TransportPathVisualizerSimpleWiredShowcase.source.ipv4.ip packetDropHopLimitReached:vector(packetBytes):endtime nan
scalar TransportPathVisualizerSimpleWiredShowcase.source.ipv4.ip packetDropForwardingDisabled:vector(packetBytes):count 0
scalar TransportPathVisualizerSimpleWiredShowcase.source.ipv4.ip packetDropForwardingDisabled:vector(packetBytes):sum 0
scalar TransportPathVisualizerSimpleWiredShowcase.source.ipv4.ip packetDropForwardingDisabled:vector(packetBytes):sumweights 0
scalar TransportPathVisualizerSimpleWiredShowcase.source.ipv4.ip packetDropForwardingDisabled:vector(packetBytes):mean -nan
scalar TransportPathVisualizerSimpleWiredShowcase.source.ipv4.ip packetDropForwardingDisabled:vector(packetBytes):stddev nan
scalar TransportPathVisualizerSimpleWiredShowcase.source.ipv4.ip packetDropForwardingDisabled:vector(packetBytes):min inf
scalar TransportPathVisualizerSimpleWiredShowcase.source.ipv4.ip packetDropForwardingDisabled:vector(packetBytes):max -inf
scalar TransportPathVisualizerSimpleWiredShowcase.source.ipv4.ip packetDropForwardingDisabled:vector(packetBytes):starttime nan
scalar TransportPathVisualizerSimpleWiredShowcase.source.ipv4.ip packetDropForwardingDisabled:vector(packetBytes):endtime nan
scalar TransportPathVisualizerSimpleWiredShowcase.source.ipv4.ip packetDropLifetimeExpired:vector(packetBytes):count 0
[...]
scalar TransportPathVisualizerSimpleWiredShowcase.destination.eth[0] packetDropInterfaceDown:vector(packetBytes):endtime nan
scalar TransportPathVisualizerSimpleWiredShowcase.destination.eth[0] packetDropNoCarrier:vector(packetBytes):count 0
scalar TransportPathVisualizerSimpleWiredShowcase.destination.eth[0] packetDropNoCarrier:vector(packetBytes):sum 0
scalar TransportPathVisualizerSimpleWiredShowcase.destination.eth[0] packetDropNoCarrier:vector(packetBytes):sumweights 0
scalar TransportPathVisualizerSimpleWiredShowcase.destination.eth[0] packetDropNoCarrier:vector(packetBytes):mean -nan
scalar TransportPathVisualizerSimpleWiredShowcase.destination.eth[0] packetDropNoCarrier:vector(packetBytes):stddev nan
scalar TransportPathVisualizerSimpleWiredShowcase.destination.eth[0] packetDropNoCarrier:vector(packetBytes):min inf
scalar TransportPathVisualizerSimpleWiredShowcase.destination.eth[0] packetDropNoCarrier:vector(packetBytes):max -inf
scalar TransportPathVisualizerSimpleWiredShowcase.destination.eth[0] packetDropNoCarrier:vector(packetBytes):starttime nan
scalar TransportPathVisualizerSimpleWiredShowcase.destination.eth[0] packetDropNoCarrier:vector(packetBytes):endtime nan
scalar TransportPathVisualizerSimpleWiredShowcase.destination.ipv4.ip packetDropAddressResolutionFailed:vector(packetBytes):count 0
scalar TransportPathVisualizerSimpleWiredShowcase.destination.ipv4.ip packetDropAddressResolutionFailed:vector(packetBytes):sum 0
scalar TransportPathVisualizerSimpleWiredShowcase.destination.ipv4.ip packetDropAddressResolutionFailed:vector(packetBytes):sumweights 0
scalar TransportPathVisualizerSimpleWiredShowcase.destination.ipv4.ip packetDropAddressResolutionFailed:vector(packetBytes):mean -nan
scalar TransportPathVisualizerSimpleWiredShowcase.destination.ipv4.ip packetDropAddressResolutionFailed:vector(packetBytes):stddev nan
scalar TransportPathVisualizerSimpleWiredShowcase.destination.ipv4.ip packetDropAddressResolutionFailed:vector(packetBytes):min inf
scalar TransportPathVisualizerSimpleWiredShowcase.destination.ipv4.ip packetDropAddressResolutionFailed:vector(packetBytes):max -inf
scalar TransportPathVisualizerSimpleWiredShowcase.destination.ipv4.ip packetDropAddressResolutionFailed:vector(packetBytes):starttime nan
scalar TransportPathVisualizerSimpleWiredShowcase.destination.ipv4.ip packetDropAddressResolutionFailed:vector(packetBytes):endtime nan
scalar TransportPathVisualizerSimpleWiredShowcase.destination.ipv4.ip packetDropHopLimitReached:vector(packetBytes):count 0
scalar TransportPathVisualizerSimpleWiredShowcase.destination.ipv4.ip packetDropHopLimitReached:vector(packetBytes):sum 0
scalar TransportPathVisualizerSimpleWiredShowcase.destination.ipv4.ip packetDropHopLimitReached:vector(packetBytes):sumweights 0
scalar TransportPathVisualizerSimpleWiredShowcase.destination.ipv4.ip packetDropHopLimitReached:vector(packetBytes):mean -nan
scalar TransportPathVisualizerSimpleWiredShowcase.destination.ipv4.ip packetDropHopLimitReached:vector(packetBytes):stddev nan
scalar TransportPathVisualizerSimpleWiredShowcase.destination.ipv4.ip packetDropHopLimitReached:vector(packetBytes):min inf
scalar TransportPathVisualizerSimpleWiredShowcase.destination.ipv4.ip packetDropHopLimitReached:vector(packetBytes):max -inf
scalar TransportPathVisualizerSimpleWiredShowcase.destination.ipv4.ip packetDropHopLimitReached:vector(packetBytes):starttime nan
scalar TransportPathVisualizerSimpleWiredShowcase.destination.ipv4.ip packetDropHopLimitReached:vector(packetBytes):endtime nan
scalar TransportPathVisualizerSimpleWiredShowcase.destination.ipv4.ip packetDropForwardingDisabled:vector(packetBytes):count 0
scalar TransportPathVisualizerSimpleWiredShowcase.destination.ipv4.ip packetDropForwardingDisabled:vector(packetBytes):sum 0
scalar TransportPathVisualizerSimpleWiredShowcase.destination.ipv4.ip packetDropForwardingDisabled:vector(packetBytes):sumweights 0
scalar TransportPathVisualizerSimpleWiredShowcase.destination.ipv4.ip packetDropForwardingDisabled:vector(packetBytes):mean -nan
scalar TransportPathVisualizerSimpleWiredShowcase.destination.ipv4.ip packetDropForwardingDisabled:vector(packetBytes):stddev nan
scalar TransportPathVisualizerSimpleWiredShowcase.destination.ipv4.ip packetDropForwardingDisabled:vector(packetBytes):min inf
scalar TransportPathVisualizerSimpleWiredShowcase.destination.ipv4.ip packetDropForwardingDisabled:vector(packetBytes):max -inf
scalar TransportPathVisualizerSimpleWiredShowcase.destination.ipv4.ip packetDropForwardingDisabled:vector(packetBytes):starttime nan
scalar TransportPathVisualizerSimpleWiredShowcase.destination.ipv4.ip packetDropForwardingDisabled:vector(packetBytes):endtime nan
scalar TransportPathVisualizerSimpleWiredShowcase.destination.ipv4.ip packetDropLifetimeExpired:vector(packetBytes):count 0
scalar TransportPathVisualizerSimpleWiredShowcase.destination.ipv4.ip packetDropLifetimeExpired:vector(packetBytes):sum 0
scalar TransportPathVisualizerSimpleWiredShowcase.destination.ipv4.ip packetDropLifetimeExpired:vector(packetBytes):sumweights 0
scalar TransportPathVisualizerSimpleWiredShowcase.destination.ipv4.ip packetDropLifetimeExpired:vector(packetBytes):mean -nan
scalar TransportPathVisualizerSimpleWiredShowcase.destination.ipv4.ip packetDropLifetimeExpired:vector(packetBytes):stddev nan
scalar TransportPathVisualizerSimpleWiredShowcase.destination.ipv4.ip packetDropLifetimeExpired:vector(packetBytes):min inf
scalar TransportPathVisualizerSimpleWiredShowcase.destination.ipv4.ip packetDropLifetimeExpired:vector(packetBytes):max -inf
scalar TransportPathVisualizerSimpleWiredShowcase.destination.ipv4.ip packetDropLifetimeExpired:vector(packetBytes):starttime nan
scalar TransportPathVisualizerSimpleWiredShowcase.destination.ipv4.ip packetDropLifetimeExpired:vector(packetBytes):endtime nan
scalar TransportPathVisualizerSimpleWiredShowcase.destination.ipv4.ip packetDropNoInterfaceFound:vector(packetBytes):count 0
scalar TransportPathVisualizerSimpleWiredShowcase.destination.ipv4.ip packetDropNoInterfaceFound:vector(packetBytes):sum 0
scalar TransportPathVisualizerSimpleWiredShowcase.destination.ipv4.ip packetDropNoInterfaceFound:vector(packetBytes):sumweights 0
scalar TransportPathVisualizerSimpleWiredShowcase.destination.ipv4.ip packetDropNoInterfaceFound:vector(packetBytes):mean -nan
scalar TransportPathVisualizerSimpleWiredShowcase.destination.ipv4.ip packetDropNoInterfaceFound:vector(packetBytes):stddev nan
scalar TransportPathVisualizerSimpleWiredShowcase.destination.ipv4.ip packetDropNoInterfaceFound:vector(packetBytes):min inf
scalar TransportPathVisualizerSimpleWiredShowcase.destination.ipv4.ip packetDropNoInterfaceFound:vector(packetBytes):max -inf
scalar TransportPathVisualizerSimpleWiredShowcase.destination.ipv4.ip packetDropNoInterfaceFound:vector(packetBytes):starttime nan
scalar TransportPathVisualizerSimpleWiredShowcase.destination.ipv4.ip packetDropNoInterfaceFound:vector(packetBytes):endtime nan
scalar TransportPathVisualizerSimpleWiredShowcase.destination.ipv4.ip packetDropNoRouteFound:vector(packetBytes):count 0
scalar TransportPathVisualizerSimpleWiredShowcase.destination.ipv4.ip packetDropNoRouteFound:vector(packetBytes):sum 0
scalar TransportPathVisualizerSimpleWiredShowcase.destination.ipv4.ip packetDropNoRouteFound:vector(packetBytes):sumweights 0
scalar TransportPathVisualizerSimpleWiredShowcase.destination.ipv4.ip packetDropNoRouteFound:vector(packetBytes):mean -nan
scalar TransportPathVisualizerSimpleWiredShowcase.destination.ipv4.ip packetDropNoRouteFound:vector(packetBytes):stddev nan
scalar TransportPathVisualizerSimpleWiredShowcase.destination.ipv4.ip packetDropNoRouteFound:vector(packetBytes):min inf
scalar TransportPathVisualizerSimpleWiredShowcase.destination.ipv4.ip packetDropNoRouteFound:vector(packetBytes):max -inf
scalar TransportPathVisualizerSimpleWiredShowcase.destination.ipv4.ip packetDropNoRouteFound:vector(packetBytes):starttime nan
scalar TransportPathVisualizerSimpleWiredShowcase.destination.ipv4.ip packetDropNoRouteFound:vector(packetBytes):endtime nan
scalar TransportPathVisualizerSimpleWiredShowcase.destination.ipv4.ip packetDropUndefined:vector(packetBytes):count 0
scalar TransportPathVisualizerSimpleWiredShowcase.destination.ipv4.ip packetDropUndefined:vector(packetBytes):sum 0
scalar TransportPathVisualizerSimpleWiredShowcase.destination.ipv4.ip packetDropUndefined:vector(packetBytes):sumweights 0
scalar TransportPathVisualizerSimpleWiredShowcase.destination.ipv4.ip packetDropUndefined:vector(packetBytes):mean -nan
scalar TransportPathVisualizerSimpleWiredShowcase.destination.ipv4.ip packetDropUndefined:vector(packetBytes):stddev nan
scalar TransportPathVisualizerSimpleWiredShowcase.destination.ipv4.ip packetDropUndefined:vector(packetBytes):min inf
scalar TransportPathVisualizerSimpleWiredShowcase.destination.ipv4.ip packetDropUndefined:vector(packetBytes):max -inf
scalar TransportPathVisualizerSimpleWiredShowcase.destination.ipv4.ip packetDropUndefined:vector(packetBytes):starttime nan
scalar TransportPathVisualizerSimpleWiredShowcase.destination.ipv4.ip packetDropUndefined:vector(packetBytes):endtime nan
scalar TransportPathVisualizerSimpleWiredShowcase.destination.ipv4.arp arpRequestSent:vector(packetBytes):count 0
scalar TransportPathVisualizerSimpleWiredShowcase.destination.ipv4.arp arpRequestSent:vector(packetBytes):sum 0
scalar TransportPathVisualizerSimpleWiredShowcase.destination.ipv4.arp arpRequestSent:vector(packetBytes):sumweights 0
scalar TransportPathVisualizerSimpleWiredShowcase.destination.ipv4.arp arpRequestSent:vector(packetBytes):mean -nan
scalar TransportPathVisualizerSimpleWiredShowcase.destination.ipv4.arp arpRequestSent:vector(packetBytes):stddev nan
scalar TransportPathVisualizerSimpleWiredShowcase.destination.ipv4.arp arpRequestSent:vector(packetBytes):min inf
scalar TransportPathVisualizerSimpleWiredShowcase.destination.ipv4.arp arpRequestSent:vector(packetBytes):max -inf
scalar TransportPathVisualizerSimpleWiredShowcase.destination.ipv4.arp arpRequestSent:vector(packetBytes):starttime nan
scalar TransportPathVisualizerSimpleWiredShowcase.destination.ipv4.arp arpRequestSent:vector(packetBytes):endtime nan
scalar TransportPathVisualizerSimpleWiredShowcase.destination.ipv4.arp arpReplySent:vector(packetBytes):count 5
scalar TransportPathVisualizerSimpleWiredShowcase.destination.ipv4.arp arpReplySent:vector(packetBytes):sum 140
scalar TransportPathVisualizerSimpleWiredShowcase.destination.ipv4.arp arpReplySent:vector(packetBytes):sumweights 5
scalar TransportPathVisualizerSimpleWiredShowcase.destination.ipv4.arp arpReplySent:vector(packetBytes):mean 28
scalar TransportPathVisualizerSimpleWiredShowcase.destination.ipv4.arp arpReplySent:vector(packetBytes):stddev 0
scalar TransportPathVisualizerSimpleWiredShowcase.destination.ipv4.arp arpReplySent:vector(packetBytes):min 28
scalar TransportPathVisualizerSimpleWiredShowcase.destination.ipv4.arp arpReplySent:vector(packetBytes):max 28
scalar TransportPathVisualizerSimpleWiredShowcase.destination.ipv4.arp arpReplySent:vector(packetBytes):starttime 5.81e-06
scalar TransportPathVisualizerSimpleWiredShowcase.destination.ipv4.arp arpReplySent:vector(packetBytes):endtime 484.00000581
scalar TransportPathVisualizerSimpleWiredShowcase.destination.udp packetSent:vector(packetBytes):count 0
scalar TransportPathVisualizerSimpleWiredShowcase.destination.udp packetSent:vector(packetBytes):sum 0
scalar TransportPathVisualizerSimpleWiredShowcase.destination.udp packetSent:vector(packetBytes):sumweights 0
scalar TransportPathVisualizerSimpleWiredShowcase.destination.udp packetSent:vector(packetBytes):mean -nan
scalar TransportPathVisualizerSimpleWiredShowcase.destination.udp packetSent:vector(packetBytes):stddev nan
scalar TransportPathVisualizerSimpleWiredShowcase.destination.udp packetSent:vector(packetBytes):min inf
scalar TransportPathVisualizerSimpleWiredShowcase.destination.udp packetSent:vector(packetBytes):max -inf
scalar TransportPathVisualizerSimpleWiredShowcase.destination.udp packetSent:vector(packetBytes):starttime nan
scalar TransportPathVisualizerSimpleWiredShowcase.destination.udp packetSent:vector(packetBytes):endtime nan
scalar TransportPathVisualizerSimpleWiredShowcase.destination.udp packetReceived:vector(packetBytes):count 500
scalar TransportPathVisualizerSimpleWiredShowcase.destination.udp packetReceived:vector(packetBytes):sum 54000
scalar TransportPathVisualizerSimpleWiredShowcase.destination.udp packetReceived:vector(packetBytes):sumweights 500
scalar TransportPathVisualizerSimpleWiredShowcase.destination.udp packetReceived:vector(packetBytes):mean 108
scalar TransportPathVisualizerSimpleWiredShowcase.destination.udp packetReceived:vector(packetBytes):stddev 0
scalar TransportPathVisualizerSimpleWiredShowcase.destination.udp packetReceived:vector(packetBytes):min 108
scalar TransportPathVisualizerSimpleWiredShowcase.destination.udp packetReceived:vector(packetBytes):max 108
scalar TransportPathVisualizerSimpleWiredShowcase.destination.udp packetReceived:vector(packetBytes):starttime 2.399e-05
scalar TransportPathVisualizerSimpleWiredShowcase.destination.udp packetReceived:vector(packetBytes):endtime 499.00001237
scalar TransportPathVisualizerSimpleWiredShowcase.destination.udp passedUpPk:vector(count):count 501
scalar TransportPathVisualizerSimpleWiredShowcase.destination.udp passedUpPk:vector(count):sum 125250
scalar TransportPathVisualizerSimpleWiredShowcase.destination.udp passedUpPk:vector(count):sumweights 501
scalar TransportPathVisualizerSimpleWiredShowcase.destination.udp passedUpPk:vector(count):mean 250
scalar TransportPathVisualizerSimpleWiredShowcase.destination.udp passedUpPk:vector(count):stddev 144.77050804636
scalar TransportPathVisualizerSimpleWiredShowcase.destination.udp passedUpPk:vector(count):min 0
scalar TransportPathVisualizerSimpleWiredShowcase.destination.udp passedUpPk:vector(count):max 500
scalar TransportPathVisualizerSimpleWiredShowcase.destination.udp passedUpPk:vector(count):starttime 0
scalar TransportPathVisualizerSimpleWiredShowcase.destination.udp passedUpPk:vector(count):endtime 499.00001237
scalar TransportPathVisualizerSimpleWiredShowcase.destination.udp droppedPkWrongPort:vector(count):count 1
scalar TransportPathVisualizerSimpleWiredShowcase.destination.udp droppedPkWrongPort:vector(count):sum 0
scalar TransportPathVisualizerSimpleWiredShowcase.destination.udp droppedPkWrongPort:vector(count):sumweights 1
scalar TransportPathVisualizerSimpleWiredShowcase.destination.udp droppedPkWrongPort:vector(count):mean 0
scalar TransportPathVisualizerSimpleWiredShowcase.destination.udp droppedPkWrongPort:vector(count):stddev nan
scalar TransportPathVisualizerSimpleWiredShowcase.destination.udp droppedPkWrongPort:vector(count):min 0
scalar TransportPathVisualizerSimpleWiredShowcase.destination.udp droppedPkWrongPort:vector(count):max 0
scalar TransportPathVisualizerSimpleWiredShowcase.destination.udp droppedPkWrongPort:vector(count):starttime 0
scalar TransportPathVisualizerSimpleWiredShowcase.destination.udp droppedPkWrongPort:vector(count):endtime 0
scalar TransportPathVisualizerSimpleWiredShowcase.destination.udp droppedPkBadChecksum:vector(count):count 1
scalar TransportPathVisualizerSimpleWiredShowcase.destination.udp droppedPkBadChecksum:vector(count):sum 0
scalar TransportPathVisualizerSimpleWiredShowcase.destination.udp droppedPkBadChecksum:vector(count):sumweights 1
scalar TransportPathVisualizerSimpleWiredShowcase.destination.udp droppedPkBadChecksum:vector(count):mean 0
scalar TransportPathVisualizerSimpleWiredShowcase.destination.udp droppedPkBadChecksum:vector(count):stddev nan
scalar TransportPathVisualizerSimpleWiredShowcase.destination.udp droppedPkBadChecksum:vector(count):min 0
scalar TransportPathVisualizerSimpleWiredShowcase.destination.udp droppedPkBadChecksum:vector(count):max 0
scalar TransportPathVisualizerSimpleWiredShowcase.destination.udp droppedPkBadChecksum:vector(count):starttime 0
scalar TransportPathVisualizerSimpleWiredShowcase.destination.udp droppedPkBadChecksum:vector(count):endtime 0
scalar TransportPathVisualizerSimpleWiredShowcase.destination.app[0] packetReceived:vector(packetBytes):count 500
scalar TransportPathVisualizerSimpleWiredShowcase.destination.app[0] packetReceived:vector(packetBytes):sum 50000
scalar TransportPathVisualizerSimpleWiredShowcase.destination.app[0] packetReceived:vector(packetBytes):sumweights 500
scalar TransportPathVisualizerSimpleWiredShowcase.destination.app[0] packetReceived:vector(packetBytes):mean 100
scalar TransportPathVisualizerSimpleWiredShowcase.destination.app[0] packetReceived:vector(packetBytes):stddev 0
scalar TransportPathVisualizerSimpleWiredShowcase.destination.app[0] packetReceived:vector(packetBytes):min 100
scalar TransportPathVisualizerSimpleWiredShowcase.destination.app[0] packetReceived:vector(packetBytes):max 100
scalar TransportPathVisualizerSimpleWiredShowcase.destination.app[0] packetReceived:vector(packetBytes):starttime 2.399e-05
scalar TransportPathVisualizerSimpleWiredShowcase.destination.app[0] packetReceived:vector(packetBytes):endtime 499.00001237
scalar TransportPathVisualizerSimpleWiredShowcase.destination.app[0] throughput:vector:count 5000
scalar TransportPathVisualizerSimpleWiredShowcase.destination.app[0] throughput:vector:sum 4000000
scalar TransportPathVisualizerSimpleWiredShowcase.destination.app[0] throughput:vector:sumweights 5000
scalar TransportPathVisualizerSimpleWiredShowcase.destination.app[0] throughput:vector:mean 800
scalar TransportPathVisualizerSimpleWiredShowcase.destination.app[0] throughput:vector:stddev 2400.240036006
scalar TransportPathVisualizerSimpleWiredShowcase.destination.app[0] throughput:vector:min 0
scalar TransportPathVisualizerSimpleWiredShowcase.destination.app[0] throughput:vector:max 8000
scalar TransportPathVisualizerSimpleWiredShowcase.destination.app[0] throughput:vector:starttime 0.1
scalar TransportPathVisualizerSimpleWiredShowcase.destination.app[0] throughput:vector:endtime 500
scalar TransportPathVisualizerSimpleWiredShowcase.destination.app[0] endToEndDelay:vector:count 500
scalar TransportPathVisualizerSimpleWiredShowcase.destination.app[0] endToEndDelay:vector:sum 0.0062431
scalar TransportPathVisualizerSimpleWiredShowcase.destination.app[0] endToEndDelay:vector:sumweights 500
scalar TransportPathVisualizerSimpleWiredShowcase.destination.app[0] endToEndDelay:vector:mean 1.24862e-05
scalar TransportPathVisualizerSimpleWiredShowcase.destination.app[0] endToEndDelay:vector:stddev 1.1573333144784e-06
scalar TransportPathVisualizerSimpleWiredShowcase.destination.app[0] endToEndDelay:vector:min 1.237e-05
scalar TransportPathVisualizerSimpleWiredShowcase.destination.app[0] endToEndDelay:vector:max 2.399e-05
scalar TransportPathVisualizerSimpleWiredShowcase.destination.app[0] endToEndDelay:vector:starttime 2.399e-05
scalar TransportPathVisualizerSimpleWiredShowcase.destination.app[0] endToEndDelay:vector:endtime 499.00001237
scalar TransportPathVisualizerSimpleWiredShowcase.destination.app[0] rcvdPkSeqNo:vector:count 500
scalar TransportPathVisualizerSimpleWiredShowcase.destination.app[0] rcvdPkSeqNo:vector:sum 124750
scalar TransportPathVisualizerSimpleWiredShowcase.destination.app[0] rcvdPkSeqNo:vector:sumweights 500
scalar TransportPathVisualizerSimpleWiredShowcase.destination.app[0] rcvdPkSeqNo:vector:mean 249.5
scalar TransportPathVisualizerSimpleWiredShowcase.destination.app[0] rcvdPkSeqNo:vector:stddev 144.481832768
scalar TransportPathVisualizerSimpleWiredShowcase.destination.app[0] rcvdPkSeqNo:vector:min 0
scalar TransportPathVisualizerSimpleWiredShowcase.destination.app[0] rcvdPkSeqNo:vector:max 499
scalar TransportPathVisualizerSimpleWiredShowcase.destination.app[0] rcvdPkSeqNo:vector:starttime 2.399e-05
scalar TransportPathVisualizerSimpleWiredShowcase.destination.app[0] rcvdPkSeqNo:vector:endtime 499.00001237

