version 3
run General-0-20260206-21:59:58-3563106
attr configname General
attr datetime 20260206-21:59:58
attr datetimef 20260206-215958
attr experiment General
attr inifile omnetpp.ini
attr iterationvars ""
attr iterationvarsd ""
attr iterationvarsf ""
attr measurement ""
attr network WiredAndWirelessHostsWithAP
attr processid 3563106
attr repetition 0
attr replication #0
attr resultdir results
attr runnumber 0
attr seedset 0
config **.param-recording false
config image-path /home/attila/projects/inet/images
config output-scalar-file results/omnetpp.ini-General-#0.sca
config output-scalar-precision 17
config output-vector-file results/omnetpp.ini-General-#0.vec
config output-vector-precision 17
config record-eventlog false
config sim-time-limit 400s
config network WiredAndWirelessHostsWithAP
config sim-time-limit 400s
config **.addDefaultRoutes false
config **.*Host*.numApps 3
config **.*Host*.app[0].typename UdpEchoApp
config **.*Host*.app[0].localPort 1000
config **.*Host*.app[*].typename UdpBasicApp
config **.wiredHost1.app[1].destAddresses "\"wirelessHost1\""
config **.wiredHost1.app[2].destAddresses "\"wiredHost2\""
config **.wiredHost2.app[1].destAddresses "\"wirelessHost1\""
config **.wiredHost2.app[2].destAddresses "\"wiredHost1\""
config **.wirelessHost1.app[1].destAddresses "\"wiredHost1\""
config **.wirelessHost1.app[2].destAddresses "\"wiredHost2\""
config **.*Host*.app[1..].destPort 1000
config **.*Host*.app[1..].messageLength 100B
config **.*Host*.app[1..].sendInterval 1s
config **.*Host*.app[1..].stopTime 300s
config **.initialZ 0m

scalar WiredAndWirelessHostsWithAP.radioMedium.propagation "Arrival computation count" 8839
scalar WiredAndWirelessHostsWithAP.radioMedium "transmission count" 8839
scalar WiredAndWirelessHostsWithAP.radioMedium "signal send count" 8839
scalar WiredAndWirelessHostsWithAP.radioMedium "reception computation count" 8839
scalar WiredAndWirelessHostsWithAP.radioMedium "interference computation count" 35360
scalar WiredAndWirelessHostsWithAP.radioMedium "reception decision computation count" 8839
scalar WiredAndWirelessHostsWithAP.radioMedium "listening decision computation count" 17682
scalar WiredAndWirelessHostsWithAP.radioMedium "reception cache hit" 85.714285714285708
scalar WiredAndWirelessHostsWithAP.radioMedium "interference cache hit" 66.666666666666671
scalar WiredAndWirelessHostsWithAP.radioMedium "noise cache hit" 0
scalar WiredAndWirelessHostsWithAP.radioMedium "snir cache hit" 50
scalar WiredAndWirelessHostsWithAP.radioMedium "reception decision cache hit" 50
scalar WiredAndWirelessHostsWithAP.radioMedium "reception result cache hit" 0
scalar WiredAndWirelessHostsWithAP.wirelessHost1.lo[0].lo rcvdPkFromHl:count 0
scalar WiredAndWirelessHostsWithAP.wirelessHost1.lo[0].lo rcvdPkFromHl:sum(packetBytes) 0
scalar WiredAndWirelessHostsWithAP.wirelessHost1.lo[0].lo passedUpPk:count 0
scalar WiredAndWirelessHostsWithAP.wirelessHost1.lo[0].lo passedUpPk:sum(packetBytes) 0
scalar WiredAndWirelessHostsWithAP.wirelessHost1.lo[0] packetDropInterfaceDown:count 0
scalar WiredAndWirelessHostsWithAP.wirelessHost1.lo[0] packetDropInterfaceDown:sum(packetBytes) 0
scalar WiredAndWirelessHostsWithAP.wirelessHost1.lo[0] packetDropNoCarrier:count 0
scalar WiredAndWirelessHostsWithAP.wirelessHost1.lo[0] packetDropNoCarrier:sum(packetBytes) 0
scalar WiredAndWirelessHostsWithAP.wirelessHost1.wlan[0].agent dropConfirm:count 0
scalar WiredAndWirelessHostsWithAP.wirelessHost1.wlan[0].agent acceptConfirm:count 3
scalar WiredAndWirelessHostsWithAP.wirelessHost1.wlan[0].agent sentRequest:count 3
scalar WiredAndWirelessHostsWithAP.wirelessHost1.wlan[0].mac.dcf.channelAccess.pendingQueue queueLength:last 0
scalar WiredAndWirelessHostsWithAP.wirelessHost1.wlan[0].mac.dcf.channelAccess.pendingQueue queueLength:max 3
scalar WiredAndWirelessHostsWithAP.wirelessHost1.wlan[0].mac.dcf.channelAccess.pendingQueue queueLength:timeavg 0.00073435698438999988
scalar WiredAndWirelessHostsWithAP.wirelessHost1.wlan[0].mac.dcf.channelAccess.pendingQueue queueBitLength:last 0
scalar WiredAndWirelessHostsWithAP.wirelessHost1.wlan[0].mac.dcf.channelAccess.pendingQueue queueBitLength:max 3136
scalar WiredAndWirelessHostsWithAP.wirelessHost1.wlan[0].mac.dcf.channelAccess.pendingQueue queueBitLength:timeavg 0.95253138357967937
scalar WiredAndWirelessHostsWithAP.wirelessHost1.wlan[0].mac.dcf.channelAccess.pendingQueue outgoingPackets:count 1209
scalar WiredAndWirelessHostsWithAP.wirelessHost1.wlan[0].mac.dcf.channelAccess.pendingQueue outgoingPacketLengths:sum 1574912
scalar WiredAndWirelessHostsWithAP.wirelessHost1.wlan[0].mac.dcf.channelAccess.pendingQueue incomingPackets:count 1209
scalar WiredAndWirelessHostsWithAP.wirelessHost1.wlan[0].mac.dcf.channelAccess.pendingQueue incomingPacketLengths:sum 1574912
scalar WiredAndWirelessHostsWithAP.wirelessHost1.wlan[0].mac.dcf.channelAccess.pendingQueue droppedPacketsQueueOverflow:count 0
scalar WiredAndWirelessHostsWithAP.wirelessHost1.wlan[0].mac.dcf.channelAccess.pendingQueue droppedPacketLengthsQueueOverflow:sum 0
scalar WiredAndWirelessHostsWithAP.wirelessHost1.wlan[0].mac.dcf.channelAccess.inProgressFrames queueLength:max 2
scalar WiredAndWirelessHostsWithAP.wirelessHost1.wlan[0].mac.dcf.channelAccess.inProgressFrames queueLength:timeavg 0.0013725125003300033
scalar WiredAndWirelessHostsWithAP.wirelessHost1.wlan[0].mac.dcf.channelAccess.contention channelAccessGranted:count 1209
scalar WiredAndWirelessHostsWithAP.wirelessHost1.wlan[0].mac.dcf.channelAccess.contention stateChanged:count 35362
scalar WiredAndWirelessHostsWithAP.wirelessHost1.wlan[0].mac.dcf.channelAccess channelOwnershipChanged:count 2418
scalar WiredAndWirelessHostsWithAP.wirelessHost1.wlan[0].mac.dcf.originatorMacDataService packetAggregated:count 0
scalar WiredAndWirelessHostsWithAP.wirelessHost1.wlan[0].mac.dcf.originatorMacDataService packetFragmented:count 0
scalar WiredAndWirelessHostsWithAP.wirelessHost1.wlan[0].mac.dcf.recipientMacDataService packetDeaggregated:count 0
scalar WiredAndWirelessHostsWithAP.wirelessHost1.wlan[0].mac.dcf.recipientMacDataService packetDefragmented:count 5212
scalar WiredAndWirelessHostsWithAP.wirelessHost1.wlan[0].mac.dcf.recipientMacDataService packetDropDuplicateDetected:count 0
scalar WiredAndWirelessHostsWithAP.wirelessHost1.wlan[0].mac.dcf.recipientMacDataService packetDropDuplicateDetected:sum(packetBytes) 0
scalar WiredAndWirelessHostsWithAP.wirelessHost1.wlan[0].mac.dcf.recoveryProcedure retryLimitReached:count 0
scalar WiredAndWirelessHostsWithAP.wirelessHost1.wlan[0].mac.dcf frameSequenceFinished:count 1209
scalar WiredAndWirelessHostsWithAP.wirelessHost1.wlan[0].mac.dcf packetReceivedFromPeer:count 6420
scalar WiredAndWirelessHostsWithAP.wirelessHost1.wlan[0].mac.dcf packetReceivedFromPeer:sum(packetBytes) 438208
scalar WiredAndWirelessHostsWithAP.wirelessHost1.wlan[0].mac.dcf packetReceivedFromPeerUnicast:count 2413
scalar WiredAndWirelessHostsWithAP.wirelessHost1.wlan[0].mac.dcf packetReceivedFromPeerUnicast:sum(packetBytes) 213634
scalar WiredAndWirelessHostsWithAP.wirelessHost1.wlan[0].mac.dcf packetReceivedFromPeerMulticast:count 4007
scalar WiredAndWirelessHostsWithAP.wirelessHost1.wlan[0].mac.dcf packetReceivedFromPeerMulticast:sum(packetBytes) 224574
scalar WiredAndWirelessHostsWithAP.wirelessHost1.wlan[0].mac.dcf packetReceivedFromPeerBroadcast:count 4007
scalar WiredAndWirelessHostsWithAP.wirelessHost1.wlan[0].mac.dcf packetReceivedFromPeerBroadcast:sum(packetBytes) 224574
scalar WiredAndWirelessHostsWithAP.wirelessHost1.wlan[0].mac.dcf packetReceivedFromPeerWithRetry:count 0
scalar WiredAndWirelessHostsWithAP.wirelessHost1.wlan[0].mac.dcf packetReceivedFromPeerWithRetry:sum(packetBytes) 0
scalar WiredAndWirelessHostsWithAP.wirelessHost1.wlan[0].mac.dcf packetReceivedFromPeerWithoutRetry:count 6420
scalar WiredAndWirelessHostsWithAP.wirelessHost1.wlan[0].mac.dcf packetReceivedFromPeerWithoutRetry:sum(packetBytes) 438208
scalar WiredAndWirelessHostsWithAP.wirelessHost1.wlan[0].mac.dcf packetSentToPeer:count 2414
scalar WiredAndWirelessHostsWithAP.wirelessHost1.wlan[0].mac.dcf packetSentToPeer:sum(packetBytes) 213734
scalar WiredAndWirelessHostsWithAP.wirelessHost1.wlan[0].mac.dcf packetSentToPeerUnicast:count 2413
scalar WiredAndWirelessHostsWithAP.wirelessHost1.wlan[0].mac.dcf packetSentToPeerUnicast:sum(packetBytes) 213694
scalar WiredAndWirelessHostsWithAP.wirelessHost1.wlan[0].mac.dcf packetSentToPeerMulticast:count 1
scalar WiredAndWirelessHostsWithAP.wirelessHost1.wlan[0].mac.dcf packetSentToPeerMulticast:sum(packetBytes) 40
scalar WiredAndWirelessHostsWithAP.wirelessHost1.wlan[0].mac.dcf packetSentToPeerBroadcast:count 1
scalar WiredAndWirelessHostsWithAP.wirelessHost1.wlan[0].mac.dcf packetSentToPeerBroadcast:sum(packetBytes) 40
scalar WiredAndWirelessHostsWithAP.wirelessHost1.wlan[0].mac.dcf packetSentToPeerWithRetry:count 0
scalar WiredAndWirelessHostsWithAP.wirelessHost1.wlan[0].mac.dcf packetSentToPeerWithRetry:sum(packetBytes) 0
scalar WiredAndWirelessHostsWithAP.wirelessHost1.wlan[0].mac.dcf packetSentToPeerWithoutRetry:count 2414
scalar WiredAndWirelessHostsWithAP.wirelessHost1.wlan[0].mac.dcf packetSentToPeerWithoutRetry:sum(packetBytes) 213734
scalar WiredAndWirelessHostsWithAP.wirelessHost1.wlan[0].mac.dcf packetDrop:count 5
scalar WiredAndWirelessHostsWithAP.wirelessHost1.wlan[0].mac.dcf packetDrop:sum(packetBytes) 320
scalar WiredAndWirelessHostsWithAP.wirelessHost1.wlan[0].mac.dcf packetDropNotAddressedToUs:count 5
scalar WiredAndWirelessHostsWithAP.wirelessHost1.wlan[0].mac.dcf packetDropNotAddressedToUs:sum(packetBytes) 320
scalar WiredAndWirelessHostsWithAP.wirelessHost1.wlan[0].mac.dcf packetDropQueueOverflow:count 0
scalar WiredAndWirelessHostsWithAP.wirelessHost1.wlan[0].mac.dcf packetDropQueueOverflow:sum(packetBytes) 0
scalar WiredAndWirelessHostsWithAP.wirelessHost1.wlan[0].mac.dcf packetDropRetryLimitReached:count 0
scalar WiredAndWirelessHostsWithAP.wirelessHost1.wlan[0].mac.dcf packetDropRetryLimitReached:sum(packetBytes) 0
scalar WiredAndWirelessHostsWithAP.wirelessHost1.wlan[0].mac.dcf linkBroken:count 0
scalar WiredAndWirelessHostsWithAP.wirelessHost1.wlan[0].mac packetReceivedFromLower:count 6425
scalar WiredAndWirelessHostsWithAP.wirelessHost1.wlan[0].mac packetReceivedFromLower:sum(packetBytes) 438528
scalar WiredAndWirelessHostsWithAP.wirelessHost1.wlan[0].mac packetSentToLower:count 2414
scalar WiredAndWirelessHostsWithAP.wirelessHost1.wlan[0].mac packetSentToLower:sum(packetBytes) 213734
scalar WiredAndWirelessHostsWithAP.wirelessHost1.wlan[0].mac packetReceivedFromUpper:count 1205
scalar WiredAndWirelessHostsWithAP.wirelessHost1.wlan[0].mac packetReceivedFromUpper:sum(packetBytes) 162980
scalar WiredAndWirelessHostsWithAP.wirelessHost1.wlan[0].mac packetSentToUpper:count 1208
scalar WiredAndWirelessHostsWithAP.wirelessHost1.wlan[0].mac packetSentToUpper:sum(packetBytes) 163304
scalar WiredAndWirelessHostsWithAP.wirelessHost1.wlan[0].mac packetDrop:count 5
scalar WiredAndWirelessHostsWithAP.wirelessHost1.wlan[0].mac packetDrop:sum(packetBytes) 320
scalar WiredAndWirelessHostsWithAP.wirelessHost1.wlan[0].mac packetDropIncorrectlyReceived:count 0
scalar WiredAndWirelessHostsWithAP.wirelessHost1.wlan[0].mac packetDropIncorrectlyReceived:sum(packetBytes) 0
scalar WiredAndWirelessHostsWithAP.wirelessHost1.wlan[0].mac packetDropNotAddressedToUs:count 5
scalar WiredAndWirelessHostsWithAP.wirelessHost1.wlan[0].mac packetDropNotAddressedToUs:sum(packetBytes) 320
scalar WiredAndWirelessHostsWithAP.wirelessHost1.wlan[0].mac packetDropQueueOverflow:count 0
scalar WiredAndWirelessHostsWithAP.wirelessHost1.wlan[0].mac packetDropQueueOverflow:sum(packetBytes) 0
scalar WiredAndWirelessHostsWithAP.wirelessHost1.wlan[0].mac packetDropRetryLimitReached:count 0
scalar WiredAndWirelessHostsWithAP.wirelessHost1.wlan[0].mac packetDropRetryLimitReached:sum(packetBytes) 0
scalar WiredAndWirelessHostsWithAP.wirelessHost1.wlan[0].mac packetDropDuplicateDetected:count 0
scalar WiredAndWirelessHostsWithAP.wirelessHost1.wlan[0].mac packetDropDuplicateDetected:sum(packetBytes) 0
scalar WiredAndWirelessHostsWithAP.wirelessHost1.wlan[0].mac packetDropOther:count 0
scalar WiredAndWirelessHostsWithAP.wirelessHost1.wlan[0].mac packetDropOther:sum(packetBytes) 0
scalar WiredAndWirelessHostsWithAP.wirelessHost1.wlan[0].mac linkBroken:count 0
scalar WiredAndWirelessHostsWithAP.wirelessHost1.wlan[0].radio radioMode:count 4831
scalar WiredAndWirelessHostsWithAP.wirelessHost1.wlan[0].radio receptionState:count 17679
scalar WiredAndWirelessHostsWithAP.wirelessHost1.wlan[0].radio transmissionState:count 9656
scalar WiredAndWirelessHostsWithAP.wirelessHost1.wlan[0] packetDropInterfaceDown:count 0
scalar WiredAndWirelessHostsWithAP.wirelessHost1.wlan[0] packetDropInterfaceDown:sum(packetBytes) 0
scalar WiredAndWirelessHostsWithAP.wirelessHost1.wlan[0] packetDropNoCarrier:count 0
scalar WiredAndWirelessHostsWithAP.wirelessHost1.wlan[0] packetDropNoCarrier:sum(packetBytes) 0
scalar WiredAndWirelessHostsWithAP.wirelessHost1.ipv4.ip packetDropAddressResolutionFailed:count 0
scalar WiredAndWirelessHostsWithAP.wirelessHost1.ipv4.ip packetDropAddressResolutionFailed:sum(packetBytes) 0
scalar WiredAndWirelessHostsWithAP.wirelessHost1.ipv4.ip packetDropHopLimitReached:count 0
scalar WiredAndWirelessHostsWithAP.wirelessHost1.ipv4.ip packetDropHopLimitReached:sum(packetBytes) 0
scalar WiredAndWirelessHostsWithAP.wirelessHost1.ipv4.ip packetDropForwardingDisabled:count 0
scalar WiredAndWirelessHostsWithAP.wirelessHost1.ipv4.ip packetDropForwardingDisabled:sum(packetBytes) 0
scalar WiredAndWirelessHostsWithAP.wirelessHost1.ipv4.ip packetDropLifetimeExpired:count 0
scalar WiredAndWirelessHostsWithAP.wirelessHost1.ipv4.ip packetDropLifetimeExpired:sum(packetBytes) 0
scalar WiredAndWirelessHostsWithAP.wirelessHost1.ipv4.ip packetDropNoInterfaceFound:count 0
scalar WiredAndWirelessHostsWithAP.wirelessHost1.ipv4.ip packetDropNoInterfaceFound:sum(packetBytes) 0
scalar WiredAndWirelessHostsWithAP.wirelessHost1.ipv4.ip packetDropNoRouteFound:count 0
scalar WiredAndWirelessHostsWithAP.wirelessHost1.ipv4.ip packetDropNoRouteFound:sum(packetBytes) 0
scalar WiredAndWirelessHostsWithAP.wirelessHost1.ipv4.ip packetDropUndefined:count 0
scalar WiredAndWirelessHostsWithAP.wirelessHost1.ipv4.ip packetDropUndefined:sum(packetBytes) 0
scalar WiredAndWirelessHostsWithAP.wirelessHost1.ipv4.arp arpResolutionFailed:count 0
scalar WiredAndWirelessHostsWithAP.wirelessHost1.ipv4.arp arpResolutionCompleted:count 12
scalar WiredAndWirelessHostsWithAP.wirelessHost1.ipv4.arp arpResolutionInitiated:count 5
scalar WiredAndWirelessHostsWithAP.wirelessHost1.ipv4.arp arpReplySent:count 4
scalar WiredAndWirelessHostsWithAP.wirelessHost1.ipv4.arp arpReplySent:sum(packetBytes) 112
scalar WiredAndWirelessHostsWithAP.wirelessHost1.ipv4.arp arpRequestSent:count 5
scalar WiredAndWirelessHostsWithAP.wirelessHost1.ipv4.arp arpRequestSent:sum(packetBytes) 140
scalar WiredAndWirelessHostsWithAP.wirelessHost1.udp packetReceived:count 1196
scalar WiredAndWirelessHostsWithAP.wirelessHost1.udp packetReceived:sum(packetBytes) 129168
scalar WiredAndWirelessHostsWithAP.wirelessHost1.udp packetSent:count 1196
scalar WiredAndWirelessHostsWithAP.wirelessHost1.udp packetSent:sum(packetBytes) 129168
scalar WiredAndWirelessHostsWithAP.wirelessHost1.udp passedUpPk:count 1196
scalar WiredAndWirelessHostsWithAP.wirelessHost1.udp droppedPkWrongPort:count 0
scalar WiredAndWirelessHostsWithAP.wirelessHost1.udp droppedPkBadChecksum:count 0
scalar WiredAndWirelessHostsWithAP.wirelessHost1.app[0] echoedPk:count 598
scalar WiredAndWirelessHostsWithAP.wirelessHost1.app[0] echoedPk:sum(packetBytes) 59800
scalar WiredAndWirelessHostsWithAP.wirelessHost1.app[1] "packets sent" 299
scalar WiredAndWirelessHostsWithAP.wirelessHost1.app[1] "packets received" 299
scalar WiredAndWirelessHostsWithAP.wirelessHost1.app[1] packetReceived:count 299
scalar WiredAndWirelessHostsWithAP.wirelessHost1.app[1] packetReceived:sum(packetBytes) 29900
scalar WiredAndWirelessHostsWithAP.wirelessHost1.app[1] packetSent:count 299
scalar WiredAndWirelessHostsWithAP.wirelessHost1.app[1] packetSent:sum(packetBytes) 29900
scalar WiredAndWirelessHostsWithAP.wirelessHost1.app[2] "packets sent" 299
scalar WiredAndWirelessHostsWithAP.wirelessHost1.app[2] "packets received" 299
scalar WiredAndWirelessHostsWithAP.wirelessHost1.app[2] packetReceived:count 299
scalar WiredAndWirelessHostsWithAP.wirelessHost1.app[2] packetReceived:sum(packetBytes) 29900
scalar WiredAndWirelessHostsWithAP.wirelessHost1.app[2] packetSent:count 299
scalar WiredAndWirelessHostsWithAP.wirelessHost1.app[2] packetSent:sum(packetBytes) 29900
scalar WiredAndWirelessHostsWithAP.wiredHost1.ethernet pauseSent:count 0
scalar WiredAndWirelessHostsWithAP.wiredHost1.ethernet pauseSent:sum 0
scalar WiredAndWirelessHostsWithAP.wiredHost1.ethernet decapPk:count 1208
scalar WiredAndWirelessHostsWithAP.wiredHost1.ethernet decapPk:sum(packetBytes) 153640
scalar WiredAndWirelessHostsWithAP.wiredHost1.ethernet encapPk:count 1204
scalar WiredAndWirelessHostsWithAP.wiredHost1.ethernet encapPk:sum(packetBytes) 153312
scalar WiredAndWirelessHostsWithAP.wiredHost1.lo[0].lo rcvdPkFromHl:count 0
scalar WiredAndWirelessHostsWithAP.wiredHost1.lo[0].lo rcvdPkFromHl:sum(packetBytes) 0
scalar WiredAndWirelessHostsWithAP.wiredHost1.lo[0].lo passedUpPk:count 0
scalar WiredAndWirelessHostsWithAP.wiredHost1.lo[0].lo passedUpPk:sum(packetBytes) 0
scalar WiredAndWirelessHostsWithAP.wiredHost1.lo[0] packetDropInterfaceDown:count 0
scalar WiredAndWirelessHostsWithAP.wiredHost1.lo[0] packetDropInterfaceDown:sum(packetBytes) 0
scalar WiredAndWirelessHostsWithAP.wiredHost1.lo[0] packetDropNoCarrier:count 0
scalar WiredAndWirelessHostsWithAP.wiredHost1.lo[0] packetDropNoCarrier:sum(packetBytes) 0
scalar WiredAndWirelessHostsWithAP.wiredHost1.eth[0].queue queueLength:last 0
scalar WiredAndWirelessHostsWithAP.wiredHost1.eth[0].queue queueLength:max 2
scalar WiredAndWirelessHostsWithAP.wiredHost1.eth[0].queue queueLength:timeavg 1.0042400000000031e-05
scalar WiredAndWirelessHostsWithAP.wiredHost1.eth[0].queue queueBitLength:last 0
scalar WiredAndWirelessHostsWithAP.wiredHost1.eth[0].queue queueBitLength:max 1536
scalar WiredAndWirelessHostsWithAP.wiredHost1.eth[0].queue queueBitLength:timeavg 0.011623603199999926
scalar WiredAndWirelessHostsWithAP.wiredHost1.eth[0].queue outgoingPackets:count 1204
scalar WiredAndWirelessHostsWithAP.wiredHost1.eth[0].queue outgoingPacketLengths:sum 1399872
scalar WiredAndWirelessHostsWithAP.wiredHost1.eth[0].queue incomingPackets:count 1204
scalar WiredAndWirelessHostsWithAP.wiredHost1.eth[0].queue incomingPacketLengths:sum 1399872
scalar WiredAndWirelessHostsWithAP.wiredHost1.eth[0].queue droppedPacketsQueueOverflow:count 0
scalar WiredAndWirelessHostsWithAP.wiredHost1.eth[0].queue droppedPacketLengthsQueueOverflow:sum 0
scalar WiredAndWirelessHostsWithAP.wiredHost1.eth[0].mac "simulated time" 400
scalar WiredAndWirelessHostsWithAP.wiredHost1.eth[0].mac full-duplex 1
scalar WiredAndWirelessHostsWithAP.wiredHost1.eth[0].mac "frames/sec sent" 3.0099999999999998
scalar WiredAndWirelessHostsWithAP.wiredHost1.eth[0].mac "frames/sec rcvd" 3.02
scalar WiredAndWirelessHostsWithAP.wiredHost1.eth[0].mac "bits/sec sent" 3502.5599999999999
scalar WiredAndWirelessHostsWithAP.wiredHost1.eth[0].mac "bits/sec rcvd" 3507.6799999999998
scalar WiredAndWirelessHostsWithAP.wiredHost1.eth[0].mac "rx channel idle (%)" 99.996299039999997
scalar WiredAndWirelessHostsWithAP.wiredHost1.eth[0].mac "rx channel utilization (%)" 0.0037009599999999997
scalar WiredAndWirelessHostsWithAP.wiredHost1.eth[0].mac rxPausePkUnits:count 0
scalar WiredAndWirelessHostsWithAP.wiredHost1.eth[0].mac rxPausePkUnits:sum 0
scalar WiredAndWirelessHostsWithAP.wiredHost1.eth[0].mac txPausePkUnits:count 0
scalar WiredAndWirelessHostsWithAP.wiredHost1.eth[0].mac txPausePkUnits:sum 0
scalar WiredAndWirelessHostsWithAP.wiredHost1.eth[0].mac rxPkOk:count 1208
scalar WiredAndWirelessHostsWithAP.wiredHost1.eth[0].mac rxPkOk:sum(packetBytes) 175384
scalar WiredAndWirelessHostsWithAP.wiredHost1.eth[0].mac txPk:count 1204
scalar WiredAndWirelessHostsWithAP.wiredHost1.eth[0].mac txPk:sum(packetBytes) 175128
scalar WiredAndWirelessHostsWithAP.wiredHost1.eth[0].mac packetReceivedFromUpper:count 1204
scalar WiredAndWirelessHostsWithAP.wiredHost1.eth[0].mac packetReceivedFromUpper:sum(packetBytes) 174984
scalar WiredAndWirelessHostsWithAP.wiredHost1.eth[0].mac passedUpPk:count 1208
scalar WiredAndWirelessHostsWithAP.wiredHost1.eth[0].mac passedUpPk:sum(packetBytes) 175384
scalar WiredAndWirelessHostsWithAP.wiredHost1.eth[0].mac packetDropIncorrectlyReceived:count 0
scalar WiredAndWirelessHostsWithAP.wiredHost1.eth[0].mac packetDropIncorrectlyReceived:sum(packetBytes) 0
scalar WiredAndWirelessHostsWithAP.wiredHost1.eth[0].mac packetDropInterfaceDown:count 0
scalar WiredAndWirelessHostsWithAP.wiredHost1.eth[0].mac packetDropInterfaceDown:sum(packetBytes) 0
scalar WiredAndWirelessHostsWithAP.wiredHost1.eth[0].mac packetDropNotAddressedToUs:count 0
scalar WiredAndWirelessHostsWithAP.wiredHost1.eth[0].mac packetDropNotAddressedToUs:sum(packetBytes) 0
scalar WiredAndWirelessHostsWithAP.wiredHost1.eth[0] packetDropInterfaceDown:count 0
scalar WiredAndWirelessHostsWithAP.wiredHost1.eth[0] packetDropInterfaceDown:sum(packetBytes) 0
scalar WiredAndWirelessHostsWithAP.wiredHost1.eth[0] packetDropNoCarrier:count 0
scalar WiredAndWirelessHostsWithAP.wiredHost1.eth[0] packetDropNoCarrier:sum(packetBytes) 0
scalar WiredAndWirelessHostsWithAP.wiredHost1.ipv4.ip packetDropAddressResolutionFailed:count 0
scalar WiredAndWirelessHostsWithAP.wiredHost1.ipv4.ip packetDropAddressResolutionFailed:sum(packetBytes) 0
scalar WiredAndWirelessHostsWithAP.wiredHost1.ipv4.ip packetDropHopLimitReached:count 0
scalar WiredAndWirelessHostsWithAP.wiredHost1.ipv4.ip packetDropHopLimitReached:sum(packetBytes) 0
scalar WiredAndWirelessHostsWithAP.wiredHost1.ipv4.ip packetDropForwardingDisabled:count 0
scalar WiredAndWirelessHostsWithAP.wiredHost1.ipv4.ip packetDropForwardingDisabled:sum(packetBytes) 0
scalar WiredAndWirelessHostsWithAP.wiredHost1.ipv4.ip packetDropLifetimeExpired:count 0
scalar WiredAndWirelessHostsWithAP.wiredHost1.ipv4.ip packetDropLifetimeExpired:sum(packetBytes) 0
scalar WiredAndWirelessHostsWithAP.wiredHost1.ipv4.ip packetDropNoInterfaceFound:count 0
scalar WiredAndWirelessHostsWithAP.wiredHost1.ipv4.ip packetDropNoInterfaceFound:sum(packetBytes) 0
scalar WiredAndWirelessHostsWithAP.wiredHost1.ipv4.ip packetDropNoRouteFound:count 0
scalar WiredAndWirelessHostsWithAP.wiredHost1.ipv4.ip packetDropNoRouteFound:sum(packetBytes) 0
scalar WiredAndWirelessHostsWithAP.wiredHost1.ipv4.ip packetDropUndefined:count 0
scalar WiredAndWirelessHostsWithAP.wiredHost1.ipv4.ip packetDropUndefined:sum(packetBytes) 0
scalar WiredAndWirelessHostsWithAP.wiredHost1.ipv4.arp arpResolutionFailed:count 0
scalar WiredAndWirelessHostsWithAP.wiredHost1.ipv4.arp arpResolutionCompleted:count 12
scalar WiredAndWirelessHostsWithAP.wiredHost1.ipv4.arp arpResolutionInitiated:count 3
scalar WiredAndWirelessHostsWithAP.wiredHost1.ipv4.arp arpReplySent:count 5
scalar WiredAndWirelessHostsWithAP.wiredHost1.ipv4.arp arpReplySent:sum(packetBytes) 140
scalar WiredAndWirelessHostsWithAP.wiredHost1.ipv4.arp arpRequestSent:count 3
scalar WiredAndWirelessHostsWithAP.wiredHost1.ipv4.arp arpRequestSent:sum(packetBytes) 84
scalar WiredAndWirelessHostsWithAP.wiredHost1.udp packetReceived:count 1196
scalar WiredAndWirelessHostsWithAP.wiredHost1.udp packetReceived:sum(packetBytes) 129168
scalar WiredAndWirelessHostsWithAP.wiredHost1.udp packetSent:count 1196
scalar WiredAndWirelessHostsWithAP.wiredHost1.udp packetSent:sum(packetBytes) 129168
scalar WiredAndWirelessHostsWithAP.wiredHost1.udp passedUpPk:count 1196
scalar WiredAndWirelessHostsWithAP.wiredHost1.udp droppedPkWrongPort:count 0
scalar WiredAndWirelessHostsWithAP.wiredHost1.udp droppedPkBadChecksum:count 0
scalar WiredAndWirelessHostsWithAP.wiredHost1.app[0] echoedPk:count 598
scalar WiredAndWirelessHostsWithAP.wiredHost1.app[0] echoedPk:sum(packetBytes) 59800
scalar WiredAndWirelessHostsWithAP.wiredHost1.app[1] "packets sent" 299
scalar WiredAndWirelessHostsWithAP.wiredHost1.app[1] "packets received" 299
scalar WiredAndWirelessHostsWithAP.wiredHost1.app[1] packetReceived:count 299
scalar WiredAndWirelessHostsWithAP.wiredHost1.app[1] packetReceived:sum(packetBytes) 29900
scalar WiredAndWirelessHostsWithAP.wiredHost1.app[1] packetSent:count 299
scalar WiredAndWirelessHostsWithAP.wiredHost1.app[1] packetSent:sum(packetBytes) 29900
scalar WiredAndWirelessHostsWithAP.wiredHost1.app[2] "packets sent" 299
scalar WiredAndWirelessHostsWithAP.wiredHost1.app[2] "packets received" 299
scalar WiredAndWirelessHostsWithAP.wiredHost1.app[2] packetReceived:count 299
scalar WiredAndWirelessHostsWithAP.wiredHost1.app[2] packetReceived:sum(packetBytes) 29900
scalar WiredAndWirelessHostsWithAP.wiredHost1.app[2] packetSent:count 299
scalar WiredAndWirelessHostsWithAP.wiredHost1.app[2] packetSent:sum(packetBytes) 29900
scalar WiredAndWirelessHostsWithAP.wiredHost2.ethernet pauseSent:count 0
scalar WiredAndWirelessHostsWithAP.wiredHost2.ethernet pauseSent:sum 0
scalar WiredAndWirelessHostsWithAP.wiredHost2.ethernet decapPk:count 1199
scalar WiredAndWirelessHostsWithAP.wiredHost2.ethernet decapPk:sum(packetBytes) 153226
scalar WiredAndWirelessHostsWithAP.wiredHost2.ethernet encapPk:count 1199
scalar WiredAndWirelessHostsWithAP.wiredHost2.ethernet encapPk:sum(packetBytes) 153172
scalar WiredAndWirelessHostsWithAP.wiredHost2.lo[0].lo rcvdPkFromHl:count 0
scalar WiredAndWirelessHostsWithAP.wiredHost2.lo[0].lo rcvdPkFromHl:sum(packetBytes) 0
scalar WiredAndWirelessHostsWithAP.wiredHost2.lo[0].lo passedUpPk:count 0
scalar WiredAndWirelessHostsWithAP.wiredHost2.lo[0].lo passedUpPk:sum(packetBytes) 0
scalar WiredAndWirelessHostsWithAP.wiredHost2.lo[0] packetDropInterfaceDown:count 0
scalar WiredAndWirelessHostsWithAP.wiredHost2.lo[0] packetDropInterfaceDown:sum(packetBytes) 0
scalar WiredAndWirelessHostsWithAP.wiredHost2.lo[0] packetDropNoCarrier:count 0
scalar WiredAndWirelessHostsWithAP.wiredHost2.lo[0] packetDropNoCarrier:sum(packetBytes) 0
scalar WiredAndWirelessHostsWithAP.wiredHost2.eth[0].queue queueLength:last 0
scalar WiredAndWirelessHostsWithAP.wiredHost2.eth[0].queue queueLength:max 1
scalar WiredAndWirelessHostsWithAP.wiredHost2.eth[0].queue queueLength:timeavg 9.9268000000000317e-06
scalar WiredAndWirelessHostsWithAP.wiredHost2.eth[0].queue queueBitLength:last 0
scalar WiredAndWirelessHostsWithAP.wiredHost2.eth[0].queue queueBitLength:max 1168
scalar WiredAndWirelessHostsWithAP.wiredHost2.eth[0].queue queueBitLength:timeavg 0.011594502399999927
scalar WiredAndWirelessHostsWithAP.wiredHost2.eth[0].queue outgoingPackets:count 1199
scalar WiredAndWirelessHostsWithAP.wiredHost2.eth[0].queue outgoingPacketLengths:sum 1398032
scalar WiredAndWirelessHostsWithAP.wiredHost2.eth[0].queue incomingPackets:count 1199
scalar WiredAndWirelessHostsWithAP.wiredHost2.eth[0].queue incomingPacketLengths:sum 1398032
scalar WiredAndWirelessHostsWithAP.wiredHost2.eth[0].queue droppedPacketsQueueOverflow:count 0
scalar WiredAndWirelessHostsWithAP.wiredHost2.eth[0].queue droppedPacketLengthsQueueOverflow:sum 0
scalar WiredAndWirelessHostsWithAP.wiredHost2.eth[0].mac "simulated time" 400
scalar WiredAndWirelessHostsWithAP.wiredHost2.eth[0].mac full-duplex 1
scalar WiredAndWirelessHostsWithAP.wiredHost2.eth[0].mac "frames/sec sent" 2.9975000000000001
scalar WiredAndWirelessHostsWithAP.wiredHost2.eth[0].mac "frames/sec rcvd" 2.9975000000000001
scalar WiredAndWirelessHostsWithAP.wiredHost2.eth[0].mac "bits/sec sent" 3496.1599999999999
scalar WiredAndWirelessHostsWithAP.wiredHost2.eth[0].mac "bits/sec rcvd" 3496.1599999999999
scalar WiredAndWirelessHostsWithAP.wiredHost2.eth[0].mac "rx channel idle (%)" 99.996312000000003
scalar WiredAndWirelessHostsWithAP.wiredHost2.eth[0].mac "rx channel utilization (%)" 0.0036879999999999999
scalar WiredAndWirelessHostsWithAP.wiredHost2.eth[0].mac rxPausePkUnits:count 0
scalar WiredAndWirelessHostsWithAP.wiredHost2.eth[0].mac rxPausePkUnits:sum 0
scalar WiredAndWirelessHostsWithAP.wiredHost2.eth[0].mac txPausePkUnits:count 0
scalar WiredAndWirelessHostsWithAP.wiredHost2.eth[0].mac txPausePkUnits:sum 0
scalar WiredAndWirelessHostsWithAP.wiredHost2.eth[0].mac rxPkOk:count 1199
scalar WiredAndWirelessHostsWithAP.wiredHost2.eth[0].mac rxPkOk:sum(packetBytes) 174808
scalar WiredAndWirelessHostsWithAP.wiredHost2.eth[0].mac txPk:count 1199
scalar WiredAndWirelessHostsWithAP.wiredHost2.eth[0].mac txPk:sum(packetBytes) 174808
scalar WiredAndWirelessHostsWithAP.wiredHost2.eth[0].mac packetReceivedFromUpper:count 1199
scalar WiredAndWirelessHostsWithAP.wiredHost2.eth[0].mac packetReceivedFromUpper:sum(packetBytes) 174754
scalar WiredAndWirelessHostsWithAP.wiredHost2.eth[0].mac passedUpPk:count 1199
scalar WiredAndWirelessHostsWithAP.wiredHost2.eth[0].mac passedUpPk:sum(packetBytes) 174808
scalar WiredAndWirelessHostsWithAP.wiredHost2.eth[0].mac packetDropIncorrectlyReceived:count 0
scalar WiredAndWirelessHostsWithAP.wiredHost2.eth[0].mac packetDropIncorrectlyReceived:sum(packetBytes) 0
scalar WiredAndWirelessHostsWithAP.wiredHost2.eth[0].mac packetDropInterfaceDown:count 0
scalar WiredAndWirelessHostsWithAP.wiredHost2.eth[0].mac packetDropInterfaceDown:sum(packetBytes) 0
scalar WiredAndWirelessHostsWithAP.wiredHost2.eth[0].mac packetDropNotAddressedToUs:count 0
scalar WiredAndWirelessHostsWithAP.wiredHost2.eth[0].mac packetDropNotAddressedToUs:sum(packetBytes) 0
scalar WiredAndWirelessHostsWithAP.wiredHost2.eth[0] packetDropInterfaceDown:count 0
scalar WiredAndWirelessHostsWithAP.wiredHost2.eth[0] packetDropInterfaceDown:sum(packetBytes) 0
scalar WiredAndWirelessHostsWithAP.wiredHost2.eth[0] packetDropNoCarrier:count 0
scalar WiredAndWirelessHostsWithAP.wiredHost2.eth[0] packetDropNoCarrier:sum(packetBytes) 0
scalar WiredAndWirelessHostsWithAP.wiredHost2.ipv4.ip packetDropAddressResolutionFailed:count 0
scalar WiredAndWirelessHostsWithAP.wiredHost2.ipv4.ip packetDropAddressResolutionFailed:sum(packetBytes) 0
scalar WiredAndWirelessHostsWithAP.wiredHost2.ipv4.ip packetDropHopLimitReached:count 0
scalar WiredAndWirelessHostsWithAP.wiredHost2.ipv4.ip packetDropHopLimitReached:sum(packetBytes) 0
scalar WiredAndWirelessHostsWithAP.wiredHost2.ipv4.ip packetDropForwardingDisabled:count 0
scalar WiredAndWirelessHostsWithAP.wiredHost2.ipv4.ip packetDropForwardingDisabled:sum(packetBytes) 0
scalar WiredAndWirelessHostsWithAP.wiredHost2.ipv4.ip packetDropLifetimeExpired:count 0
scalar WiredAndWirelessHostsWithAP.wiredHost2.ipv4.ip packetDropLifetimeExpired:sum(packetBytes) 0
scalar WiredAndWirelessHostsWithAP.wiredHost2.ipv4.ip packetDropNoInterfaceFound:count 0
scalar WiredAndWirelessHostsWithAP.wiredHost2.ipv4.ip packetDropNoInterfaceFound:sum(packetBytes) 0
scalar WiredAndWirelessHostsWithAP.wiredHost2.ipv4.ip packetDropNoRouteFound:count 0
scalar WiredAndWirelessHostsWithAP.wiredHost2.ipv4.ip packetDropNoRouteFound:sum(packetBytes) 0
scalar WiredAndWirelessHostsWithAP.wiredHost2.ipv4.ip packetDropUndefined:count 0
scalar WiredAndWirelessHostsWithAP.wiredHost2.ipv4.ip packetDropUndefined:sum(packetBytes) 0
scalar WiredAndWirelessHostsWithAP.wiredHost2.ipv4.arp arpResolutionFailed:count 0
scalar WiredAndWirelessHostsWithAP.wiredHost2.ipv4.arp arpResolutionCompleted:count 3
scalar WiredAndWirelessHostsWithAP.wiredHost2.ipv4.arp arpResolutionInitiated:count 2
scalar WiredAndWirelessHostsWithAP.wiredHost2.ipv4.arp arpReplySent:count 1
scalar WiredAndWirelessHostsWithAP.wiredHost2.ipv4.arp arpReplySent:sum(packetBytes) 28
scalar WiredAndWirelessHostsWithAP.wiredHost2.ipv4.arp arpRequestSent:count 2
scalar WiredAndWirelessHostsWithAP.wiredHost2.ipv4.arp arpRequestSent:sum(packetBytes) 56
scalar WiredAndWirelessHostsWithAP.wiredHost2.udp packetReceived:count 1196
scalar WiredAndWirelessHostsWithAP.wiredHost2.udp packetReceived:sum(packetBytes) 129168
scalar WiredAndWirelessHostsWithAP.wiredHost2.udp packetSent:count 1196
scalar WiredAndWirelessHostsWithAP.wiredHost2.udp packetSent:sum(packetBytes) 129168
scalar WiredAndWirelessHostsWithAP.wiredHost2.udp passedUpPk:count 1196
scalar WiredAndWirelessHostsWithAP.wiredHost2.udp droppedPkWrongPort:count 0
scalar WiredAndWirelessHostsWithAP.wiredHost2.udp droppedPkBadChecksum:count 0
scalar WiredAndWirelessHostsWithAP.wiredHost2.app[0] echoedPk:count 598
scalar WiredAndWirelessHostsWithAP.wiredHost2.app[0] echoedPk:sum(packetBytes) 59800
scalar WiredAndWirelessHostsWithAP.wiredHost2.app[1] "packets sent" 299
scalar WiredAndWirelessHostsWithAP.wiredHost2.app[1] "packets received" 299
scalar WiredAndWirelessHostsWithAP.wiredHost2.app[1] packetReceived:count 299
scalar WiredAndWirelessHostsWithAP.wiredHost2.app[1] packetReceived:sum(packetBytes) 29900
scalar WiredAndWirelessHostsWithAP.wiredHost2.app[1] packetSent:count 299
scalar WiredAndWirelessHostsWithAP.wiredHost2.app[1] packetSent:sum(packetBytes) 29900
scalar WiredAndWirelessHostsWithAP.wiredHost2.app[2] "packets sent" 299
scalar WiredAndWirelessHostsWithAP.wiredHost2.app[2] "packets received" 299
scalar WiredAndWirelessHostsWithAP.wiredHost2.app[2] packetReceived:count 299
scalar WiredAndWirelessHostsWithAP.wiredHost2.app[2] packetReceived:sum(packetBytes) 29900
scalar WiredAndWirelessHostsWithAP.wiredHost2.app[2] packetSent:count 299
scalar WiredAndWirelessHostsWithAP.wiredHost2.app[2] packetSent:sum(packetBytes) 29900
scalar WiredAndWirelessHostsWithAP.router.ethernet pauseSent:count 0
scalar WiredAndWirelessHostsWithAP.router.ethernet pauseSent:sum 0
scalar WiredAndWirelessHostsWithAP.router.ethernet decapPk:count 2407
scalar WiredAndWirelessHostsWithAP.router.ethernet decapPk:sum(packetBytes) 306866
scalar WiredAndWirelessHostsWithAP.router.ethernet encapPk:count 2402
scalar WiredAndWirelessHostsWithAP.router.ethernet encapPk:sum(packetBytes) 306456
scalar WiredAndWirelessHostsWithAP.router.lo[0].lo rcvdPkFromHl:count 0
scalar WiredAndWirelessHostsWithAP.router.lo[0].lo rcvdPkFromHl:sum(packetBytes) 0
scalar WiredAndWirelessHostsWithAP.router.lo[0].lo passedUpPk:count 0
scalar WiredAndWirelessHostsWithAP.router.lo[0].lo passedUpPk:sum(packetBytes) 0
scalar WiredAndWirelessHostsWithAP.router.lo[0] packetDropInterfaceDown:count 0
scalar WiredAndWirelessHostsWithAP.router.lo[0] packetDropInterfaceDown:sum(packetBytes) 0
scalar WiredAndWirelessHostsWithAP.router.lo[0] packetDropNoCarrier:count 0
scalar WiredAndWirelessHostsWithAP.router.lo[0] packetDropNoCarrier:sum(packetBytes) 0
scalar WiredAndWirelessHostsWithAP.router.eth[0].queue queueLength:last 0
scalar WiredAndWirelessHostsWithAP.router.eth[0].queue queueLength:max 1
scalar WiredAndWirelessHostsWithAP.router.eth[0].queue queueLength:timeavg 3.5657507500000001e-08
scalar WiredAndWirelessHostsWithAP.router.eth[0].queue queueBitLength:last 0
scalar WiredAndWirelessHostsWithAP.router.eth[0].queue queueBitLength:max 1168
scalar WiredAndWirelessHostsWithAP.router.eth[0].queue queueBitLength:timeavg 3.9507968760000001e-05
scalar WiredAndWirelessHostsWithAP.router.eth[0].queue outgoingPackets:count 1203
scalar WiredAndWirelessHostsWithAP.router.eth[0].queue outgoingPacketLengths:sum 1399504
scalar WiredAndWirelessHostsWithAP.router.eth[0].queue incomingPackets:count 1203
scalar WiredAndWirelessHostsWithAP.router.eth[0].queue incomingPacketLengths:sum 1399504
scalar WiredAndWirelessHostsWithAP.router.eth[0].queue droppedPacketsQueueOverflow:count 0
scalar WiredAndWirelessHostsWithAP.router.eth[0].queue droppedPacketLengthsQueueOverflow:sum 0
scalar WiredAndWirelessHostsWithAP.router.eth[0].mac "simulated time" 400
scalar WiredAndWirelessHostsWithAP.router.eth[0].mac full-duplex 1
scalar WiredAndWirelessHostsWithAP.router.eth[0].mac "frames/sec sent" 3.0074999999999998
scalar WiredAndWirelessHostsWithAP.router.eth[0].mac "frames/sec rcvd" 3.02
scalar WiredAndWirelessHostsWithAP.router.eth[0].mac "bits/sec sent" 3501.2800000000002
scalar WiredAndWirelessHostsWithAP.router.eth[0].mac "bits/sec rcvd" 3507.6799999999998
scalar WiredAndWirelessHostsWithAP.router.eth[0].mac "rx channel idle (%)" 99.996299039999997
scalar WiredAndWirelessHostsWithAP.router.eth[0].mac "rx channel utilization (%)" 0.0037009599999999997
scalar WiredAndWirelessHostsWithAP.router.eth[0].mac rxPausePkUnits:count 0
scalar WiredAndWirelessHostsWithAP.router.eth[0].mac rxPausePkUnits:sum 0
scalar WiredAndWirelessHostsWithAP.router.eth[0].mac txPausePkUnits:count 0
scalar WiredAndWirelessHostsWithAP.router.eth[0].mac txPausePkUnits:sum 0
scalar WiredAndWirelessHostsWithAP.router.eth[0].mac rxPkOk:count 1208
scalar WiredAndWirelessHostsWithAP.router.eth[0].mac rxPkOk:sum(packetBytes) 175384
scalar WiredAndWirelessHostsWithAP.router.eth[0].mac txPk:count 1203
scalar WiredAndWirelessHostsWithAP.router.eth[0].mac txPk:sum(packetBytes) 175064
scalar WiredAndWirelessHostsWithAP.router.eth[0].mac packetReceivedFromUpper:count 1203
scalar WiredAndWirelessHostsWithAP.router.eth[0].mac packetReceivedFromUpper:sum(packetBytes) 174938
scalar WiredAndWirelessHostsWithAP.router.eth[0].mac passedUpPk:count 1208
scalar WiredAndWirelessHostsWithAP.router.eth[0].mac passedUpPk:sum(packetBytes) 175384
scalar WiredAndWirelessHostsWithAP.router.eth[0].mac packetDropIncorrectlyReceived:count 0
scalar WiredAndWirelessHostsWithAP.router.eth[0].mac packetDropIncorrectlyReceived:sum(packetBytes) 0
scalar WiredAndWirelessHostsWithAP.router.eth[0].mac packetDropInterfaceDown:count 0
scalar WiredAndWirelessHostsWithAP.router.eth[0].mac packetDropInterfaceDown:sum(packetBytes) 0
scalar WiredAndWirelessHostsWithAP.router.eth[0].mac packetDropNotAddressedToUs:count 0
scalar WiredAndWirelessHostsWithAP.router.eth[0].mac packetDropNotAddressedToUs:sum(packetBytes) 0
scalar WiredAndWirelessHostsWithAP.router.eth[0] packetDropInterfaceDown:count 0
scalar WiredAndWirelessHostsWithAP.router.eth[0] packetDropInterfaceDown:sum(packetBytes) 0
scalar WiredAndWirelessHostsWithAP.router.eth[0] packetDropNoCarrier:count 0
scalar WiredAndWirelessHostsWithAP.router.eth[0] packetDropNoCarrier:sum(packetBytes) 0
scalar WiredAndWirelessHostsWithAP.router.eth[1].queue queueLength:last 0
scalar WiredAndWirelessHostsWithAP.router.eth[1].queue queueLength:max 0
scalar WiredAndWirelessHostsWithAP.router.eth[1].queue queueLength:timeavg 0
scalar WiredAndWirelessHostsWithAP.router.eth[1].queue queueBitLength:last 0
scalar WiredAndWirelessHostsWithAP.router.eth[1].queue queueBitLength:max 0
scalar WiredAndWirelessHostsWithAP.router.eth[1].queue queueBitLength:timeavg 0
scalar WiredAndWirelessHostsWithAP.router.eth[1].queue outgoingPackets:count 1199
scalar WiredAndWirelessHostsWithAP.router.eth[1].queue outgoingPacketLengths:sum 1398032
scalar WiredAndWirelessHostsWithAP.router.eth[1].queue incomingPackets:count 1199
scalar WiredAndWirelessHostsWithAP.router.eth[1].queue incomingPacketLengths:sum 1398032
scalar WiredAndWirelessHostsWithAP.router.eth[1].queue droppedPacketsQueueOverflow:count 0
scalar WiredAndWirelessHostsWithAP.router.eth[1].queue droppedPacketLengthsQueueOverflow:sum 0
scalar WiredAndWirelessHostsWithAP.router.eth[1].mac "simulated time" 400
scalar WiredAndWirelessHostsWithAP.router.eth[1].mac full-duplex 1
scalar WiredAndWirelessHostsWithAP.router.eth[1].mac "frames/sec sent" 2.9975000000000001
scalar WiredAndWirelessHostsWithAP.router.eth[1].mac "frames/sec rcvd" 2.9975000000000001
scalar WiredAndWirelessHostsWithAP.router.eth[1].mac "bits/sec sent" 3496.1599999999999
scalar WiredAndWirelessHostsWithAP.router.eth[1].mac "bits/sec rcvd" 3496.1599999999999
scalar WiredAndWirelessHostsWithAP.router.eth[1].mac "rx channel idle (%)" 99.996312000000003
scalar WiredAndWirelessHostsWithAP.router.eth[1].mac "rx channel utilization (%)" 0.0036879999999999999
scalar WiredAndWirelessHostsWithAP.router.eth[1].mac rxPausePkUnits:count 0
scalar WiredAndWirelessHostsWithAP.router.eth[1].mac rxPausePkUnits:sum 0
scalar WiredAndWirelessHostsWithAP.router.eth[1].mac txPausePkUnits:count 0
scalar WiredAndWirelessHostsWithAP.router.eth[1].mac txPausePkUnits:sum 0
scalar WiredAndWirelessHostsWithAP.router.eth[1].mac rxPkOk:count 1199
scalar WiredAndWirelessHostsWithAP.router.eth[1].mac rxPkOk:sum(packetBytes) 174808
scalar WiredAndWirelessHostsWithAP.router.eth[1].mac txPk:count 1199
scalar WiredAndWirelessHostsWithAP.router.eth[1].mac txPk:sum(packetBytes) 174808
scalar WiredAndWirelessHostsWithAP.router.eth[1].mac packetReceivedFromUpper:count 1199
scalar WiredAndWirelessHostsWithAP.router.eth[1].mac packetReceivedFromUpper:sum(packetBytes) 174754
scalar WiredAndWirelessHostsWithAP.router.eth[1].mac passedUpPk:count 1199
scalar WiredAndWirelessHostsWithAP.router.eth[1].mac passedUpPk:sum(packetBytes) 174808
scalar WiredAndWirelessHostsWithAP.router.eth[1].mac packetDropIncorrectlyReceived:count 0
scalar WiredAndWirelessHostsWithAP.router.eth[1].mac packetDropIncorrectlyReceived:sum(packetBytes) 0
scalar WiredAndWirelessHostsWithAP.router.eth[1].mac packetDropInterfaceDown:count 0
scalar WiredAndWirelessHostsWithAP.router.eth[1].mac packetDropInterfaceDown:sum(packetBytes) 0
scalar WiredAndWirelessHostsWithAP.router.eth[1].mac packetDropNotAddressedToUs:count 0
scalar WiredAndWirelessHostsWithAP.router.eth[1].mac packetDropNotAddressedToUs:sum(packetBytes) 0
scalar WiredAndWirelessHostsWithAP.router.eth[1] packetDropInterfaceDown:count 0
scalar WiredAndWirelessHostsWithAP.router.eth[1] packetDropInterfaceDown:sum(packetBytes) 0
scalar WiredAndWirelessHostsWithAP.router.eth[1] packetDropNoCarrier:count 0
scalar WiredAndWirelessHostsWithAP.router.eth[1] packetDropNoCarrier:sum(packetBytes) 0
scalar WiredAndWirelessHostsWithAP.router.ipv4.ip packetDropAddressResolutionFailed:count 0
scalar WiredAndWirelessHostsWithAP.router.ipv4.ip packetDropAddressResolutionFailed:sum(packetBytes) 0
scalar WiredAndWirelessHostsWithAP.router.ipv4.ip packetDropHopLimitReached:count 0
scalar WiredAndWirelessHostsWithAP.router.ipv4.ip packetDropHopLimitReached:sum(packetBytes) 0
scalar WiredAndWirelessHostsWithAP.router.ipv4.ip packetDropForwardingDisabled:count 0
scalar WiredAndWirelessHostsWithAP.router.ipv4.ip packetDropForwardingDisabled:sum(packetBytes) 0
scalar WiredAndWirelessHostsWithAP.router.ipv4.ip packetDropLifetimeExpired:count 0
scalar WiredAndWirelessHostsWithAP.router.ipv4.ip packetDropLifetimeExpired:sum(packetBytes) 0
scalar WiredAndWirelessHostsWithAP.router.ipv4.ip packetDropNoInterfaceFound:count 0
scalar WiredAndWirelessHostsWithAP.router.ipv4.ip packetDropNoInterfaceFound:sum(packetBytes) 0
scalar WiredAndWirelessHostsWithAP.router.ipv4.ip packetDropNoRouteFound:count 0
scalar WiredAndWirelessHostsWithAP.router.ipv4.ip packetDropNoRouteFound:sum(packetBytes) 0
scalar WiredAndWirelessHostsWithAP.router.ipv4.ip packetDropUndefined:count 0
scalar WiredAndWirelessHostsWithAP.router.ipv4.ip packetDropUndefined:sum(packetBytes) 0
scalar WiredAndWirelessHostsWithAP.router.ipv4.arp arpResolutionFailed:count 0
scalar WiredAndWirelessHostsWithAP.router.ipv4.arp arpResolutionCompleted:count 14
scalar WiredAndWirelessHostsWithAP.router.ipv4.arp arpResolutionInitiated:count 5
scalar WiredAndWirelessHostsWithAP.router.ipv4.arp arpReplySent:count 5
scalar WiredAndWirelessHostsWithAP.router.ipv4.arp arpReplySent:sum(packetBytes) 140
scalar WiredAndWirelessHostsWithAP.router.ipv4.arp arpRequestSent:count 5
scalar WiredAndWirelessHostsWithAP.router.ipv4.arp arpRequestSent:sum(packetBytes) 140
scalar WiredAndWirelessHostsWithAP.accessPoint.bridging "processed frames" 0
scalar WiredAndWirelessHostsWithAP.accessPoint.bridging "discarded frames" 0
scalar WiredAndWirelessHostsWithAP.accessPoint.bridging "number of received BPDUs from STP module" 0
scalar WiredAndWirelessHostsWithAP.accessPoint.bridging "number of received frames from network (including BPDUs)" 3612
scalar WiredAndWirelessHostsWithAP.accessPoint.bridging "number of dropped frames (including BPDUs)" 0
scalar WiredAndWirelessHostsWithAP.accessPoint.bridging "number of delivered BPDUs to the STP module" 0
scalar WiredAndWirelessHostsWithAP.accessPoint.bridging "number of dispatched BPDU frames to the network" 0
scalar WiredAndWirelessHostsWithAP.accessPoint.bridging "number of dispatched non-BDPU frames to the network" 0
scalar WiredAndWirelessHostsWithAP.accessPoint.bridging packetDropped:count 0
scalar WiredAndWirelessHostsWithAP.accessPoint.bridging packetDropped:sum(packetBytes) 0
scalar WiredAndWirelessHostsWithAP.accessPoint.ethernet pauseSent:count 0
scalar WiredAndWirelessHostsWithAP.accessPoint.ethernet pauseSent:sum 0
scalar WiredAndWirelessHostsWithAP.accessPoint.ethernet decapPk:count 3612
scalar WiredAndWirelessHostsWithAP.accessPoint.ethernet decapPk:sum(packetBytes) 460206
scalar WiredAndWirelessHostsWithAP.accessPoint.ethernet encapPk:count 3624
scalar WiredAndWirelessHostsWithAP.accessPoint.ethernet encapPk:sum(packetBytes) 460668
scalar WiredAndWirelessHostsWithAP.accessPoint.wlan[0].mac.dcf.channelAccess.pendingQueue queueLength:last 0
scalar WiredAndWirelessHostsWithAP.accessPoint.wlan[0].mac.dcf.channelAccess.pendingQueue queueLength:max 9
scalar WiredAndWirelessHostsWithAP.accessPoint.wlan[0].mac.dcf.channelAccess.pendingQueue queueLength:timeavg 0.0025401591532549866
scalar WiredAndWirelessHostsWithAP.accessPoint.wlan[0].mac.dcf.channelAccess.pendingQueue queueBitLength:last 0
scalar WiredAndWirelessHostsWithAP.accessPoint.wlan[0].mac.dcf.channelAccess.pendingQueue queueBitLength:max 6928
scalar WiredAndWirelessHostsWithAP.accessPoint.wlan[0].mac.dcf.channelAccess.pendingQueue queueBitLength:timeavg 3.2872223478737586
scalar WiredAndWirelessHostsWithAP.accessPoint.wlan[0].mac.dcf.channelAccess.pendingQueue outgoingPackets:count 5217
scalar WiredAndWirelessHostsWithAP.accessPoint.wlan[0].mac.dcf.channelAccess.pendingQueue outgoingPacketLengths:sum 3372928
scalar WiredAndWirelessHostsWithAP.accessPoint.wlan[0].mac.dcf.channelAccess.pendingQueue incomingPackets:count 5217
scalar WiredAndWirelessHostsWithAP.accessPoint.wlan[0].mac.dcf.channelAccess.pendingQueue incomingPacketLengths:sum 3372928
scalar WiredAndWirelessHostsWithAP.accessPoint.wlan[0].mac.dcf.channelAccess.pendingQueue droppedPacketsQueueOverflow:count 0
scalar WiredAndWirelessHostsWithAP.accessPoint.wlan[0].mac.dcf.channelAccess.pendingQueue droppedPacketLengthsQueueOverflow:sum 0
scalar WiredAndWirelessHostsWithAP.accessPoint.wlan[0].mac.dcf.channelAccess.inProgressFrames queueLength:max 2
scalar WiredAndWirelessHostsWithAP.accessPoint.wlan[0].mac.dcf.channelAccess.inProgressFrames queueLength:timeavg 0.0022043196666998886
scalar WiredAndWirelessHostsWithAP.accessPoint.wlan[0].mac.dcf.channelAccess.contention channelAccessGranted:count 5217
scalar WiredAndWirelessHostsWithAP.accessPoint.wlan[0].mac.dcf.channelAccess.contention stateChanged:count 51406
scalar WiredAndWirelessHostsWithAP.accessPoint.wlan[0].mac.dcf.channelAccess channelOwnershipChanged:count 10434
scalar WiredAndWirelessHostsWithAP.accessPoint.wlan[0].mac.dcf.originatorMacDataService packetAggregated:count 0
scalar WiredAndWirelessHostsWithAP.accessPoint.wlan[0].mac.dcf.originatorMacDataService packetFragmented:count 0
scalar WiredAndWirelessHostsWithAP.accessPoint.wlan[0].mac.dcf.recipientMacDataService packetDeaggregated:count 0
scalar WiredAndWirelessHostsWithAP.accessPoint.wlan[0].mac.dcf.recipientMacDataService packetDefragmented:count 1209
scalar WiredAndWirelessHostsWithAP.accessPoint.wlan[0].mac.dcf.recipientMacDataService packetDropDuplicateDetected:count 0
scalar WiredAndWirelessHostsWithAP.accessPoint.wlan[0].mac.dcf.recipientMacDataService packetDropDuplicateDetected:sum(packetBytes) 0
scalar WiredAndWirelessHostsWithAP.accessPoint.wlan[0].mac.dcf.recoveryProcedure retryLimitReached:count 0
scalar WiredAndWirelessHostsWithAP.accessPoint.wlan[0].mac.dcf frameSequenceFinished:count 5217
scalar WiredAndWirelessHostsWithAP.accessPoint.wlan[0].mac.dcf packetReceivedFromPeer:count 2414
scalar WiredAndWirelessHostsWithAP.accessPoint.wlan[0].mac.dcf packetReceivedFromPeer:sum(packetBytes) 213734
scalar WiredAndWirelessHostsWithAP.accessPoint.wlan[0].mac.dcf packetReceivedFromPeerUnicast:count 2413
scalar WiredAndWirelessHostsWithAP.accessPoint.wlan[0].mac.dcf packetReceivedFromPeerUnicast:sum(packetBytes) 213694
scalar WiredAndWirelessHostsWithAP.accessPoint.wlan[0].mac.dcf packetReceivedFromPeerMulticast:count 1
scalar WiredAndWirelessHostsWithAP.accessPoint.wlan[0].mac.dcf packetReceivedFromPeerMulticast:sum(packetBytes) 40
scalar WiredAndWirelessHostsWithAP.accessPoint.wlan[0].mac.dcf packetReceivedFromPeerBroadcast:count 1
scalar WiredAndWirelessHostsWithAP.accessPoint.wlan[0].mac.dcf packetReceivedFromPeerBroadcast:sum(packetBytes) 40
scalar WiredAndWirelessHostsWithAP.accessPoint.wlan[0].mac.dcf packetReceivedFromPeerWithRetry:count 0
scalar WiredAndWirelessHostsWithAP.accessPoint.wlan[0].mac.dcf packetReceivedFromPeerWithRetry:sum(packetBytes) 0
scalar WiredAndWirelessHostsWithAP.accessPoint.wlan[0].mac.dcf packetReceivedFromPeerWithoutRetry:count 2414
scalar WiredAndWirelessHostsWithAP.accessPoint.wlan[0].mac.dcf packetReceivedFromPeerWithoutRetry:sum(packetBytes) 213734
scalar WiredAndWirelessHostsWithAP.accessPoint.wlan[0].mac.dcf packetSentToPeer:count 6425
scalar WiredAndWirelessHostsWithAP.accessPoint.wlan[0].mac.dcf packetSentToPeer:sum(packetBytes) 438528
scalar WiredAndWirelessHostsWithAP.accessPoint.wlan[0].mac.dcf packetSentToPeerUnicast:count 2413
scalar WiredAndWirelessHostsWithAP.accessPoint.wlan[0].mac.dcf packetSentToPeerUnicast:sum(packetBytes) 213634
scalar WiredAndWirelessHostsWithAP.accessPoint.wlan[0].mac.dcf packetSentToPeerMulticast:count 4012
scalar WiredAndWirelessHostsWithAP.accessPoint.wlan[0].mac.dcf packetSentToPeerMulticast:sum(packetBytes) 224894
scalar WiredAndWirelessHostsWithAP.accessPoint.wlan[0].mac.dcf packetSentToPeerBroadcast:count 4012
scalar WiredAndWirelessHostsWithAP.accessPoint.wlan[0].mac.dcf packetSentToPeerBroadcast:sum(packetBytes) 224894
scalar WiredAndWirelessHostsWithAP.accessPoint.wlan[0].mac.dcf packetSentToPeerWithRetry:count 0
scalar WiredAndWirelessHostsWithAP.accessPoint.wlan[0].mac.dcf packetSentToPeerWithRetry:sum(packetBytes) 0
scalar WiredAndWirelessHostsWithAP.accessPoint.wlan[0].mac.dcf packetSentToPeerWithoutRetry:count 6425
scalar WiredAndWirelessHostsWithAP.accessPoint.wlan[0].mac.dcf packetSentToPeerWithoutRetry:sum(packetBytes) 438528
scalar WiredAndWirelessHostsWithAP.accessPoint.wlan[0].mac.dcf packetDrop:count 0
scalar WiredAndWirelessHostsWithAP.accessPoint.wlan[0].mac.dcf packetDrop:sum(packetBytes) 0
scalar WiredAndWirelessHostsWithAP.accessPoint.wlan[0].mac.dcf packetDropNotAddressedToUs:count 0
scalar WiredAndWirelessHostsWithAP.accessPoint.wlan[0].mac.dcf packetDropNotAddressedToUs:sum(packetBytes) 0
scalar WiredAndWirelessHostsWithAP.accessPoint.wlan[0].mac.dcf packetDropQueueOverflow:count 0
scalar WiredAndWirelessHostsWithAP.accessPoint.wlan[0].mac.dcf packetDropQueueOverflow:sum(packetBytes) 0
scalar WiredAndWirelessHostsWithAP.accessPoint.wlan[0].mac.dcf packetDropRetryLimitReached:count 0
scalar WiredAndWirelessHostsWithAP.accessPoint.wlan[0].mac.dcf packetDropRetryLimitReached:sum(packetBytes) 0
scalar WiredAndWirelessHostsWithAP.accessPoint.wlan[0].mac.dcf linkBroken:count 0
scalar WiredAndWirelessHostsWithAP.accessPoint.wlan[0].mac packetReceivedFromLower:count 2414
scalar WiredAndWirelessHostsWithAP.accessPoint.wlan[0].mac packetReceivedFromLower:sum(packetBytes) 213734
scalar WiredAndWirelessHostsWithAP.accessPoint.wlan[0].mac packetSentToLower:count 6425
scalar WiredAndWirelessHostsWithAP.accessPoint.wlan[0].mac packetSentToLower:sum(packetBytes) 438528
scalar WiredAndWirelessHostsWithAP.accessPoint.wlan[0].mac packetReceivedFromUpper:count 1208
scalar WiredAndWirelessHostsWithAP.accessPoint.wlan[0].mac packetReceivedFromUpper:sum(packetBytes) 163304
scalar WiredAndWirelessHostsWithAP.accessPoint.wlan[0].mac packetSentToUpper:count 1205
scalar WiredAndWirelessHostsWithAP.accessPoint.wlan[0].mac packetSentToUpper:sum(packetBytes) 162980
scalar WiredAndWirelessHostsWithAP.accessPoint.wlan[0].mac packetDrop:count 0
scalar WiredAndWirelessHostsWithAP.accessPoint.wlan[0].mac packetDrop:sum(packetBytes) 0
scalar WiredAndWirelessHostsWithAP.accessPoint.wlan[0].mac packetDropIncorrectlyReceived:count 0
scalar WiredAndWirelessHostsWithAP.accessPoint.wlan[0].mac packetDropIncorrectlyReceived:sum(packetBytes) 0
scalar WiredAndWirelessHostsWithAP.accessPoint.wlan[0].mac packetDropNotAddressedToUs:count 0
scalar WiredAndWirelessHostsWithAP.accessPoint.wlan[0].mac packetDropNotAddressedToUs:sum(packetBytes) 0
scalar WiredAndWirelessHostsWithAP.accessPoint.wlan[0].mac packetDropQueueOverflow:count 0
scalar WiredAndWirelessHostsWithAP.accessPoint.wlan[0].mac packetDropQueueOverflow:sum(packetBytes) 0
scalar WiredAndWirelessHostsWithAP.accessPoint.wlan[0].mac packetDropRetryLimitReached:count 0
scalar WiredAndWirelessHostsWithAP.accessPoint.wlan[0].mac packetDropRetryLimitReached:sum(packetBytes) 0
scalar WiredAndWirelessHostsWithAP.accessPoint.wlan[0].mac packetDropDuplicateDetected:count 0
scalar WiredAndWirelessHostsWithAP.accessPoint.wlan[0].mac packetDropDuplicateDetected:sum(packetBytes) 0
scalar WiredAndWirelessHostsWithAP.accessPoint.wlan[0].mac packetDropOther:count 0
scalar WiredAndWirelessHostsWithAP.accessPoint.wlan[0].mac packetDropOther:sum(packetBytes) 0
scalar WiredAndWirelessHostsWithAP.accessPoint.wlan[0].mac linkBroken:count 0
scalar WiredAndWirelessHostsWithAP.accessPoint.wlan[0].radio radioMode:count 12853
scalar WiredAndWirelessHostsWithAP.accessPoint.wlan[0].radio receptionState:count 17679
scalar WiredAndWirelessHostsWithAP.accessPoint.wlan[0].radio transmissionState:count 25700
scalar WiredAndWirelessHostsWithAP.accessPoint.wlan[0] packetDropInterfaceDown:count 0
scalar WiredAndWirelessHostsWithAP.accessPoint.wlan[0] packetDropInterfaceDown:sum(packetBytes) 0
scalar WiredAndWirelessHostsWithAP.accessPoint.wlan[0] packetDropNoCarrier:count 0
scalar WiredAndWirelessHostsWithAP.accessPoint.wlan[0] packetDropNoCarrier:sum(packetBytes) 0
scalar WiredAndWirelessHostsWithAP.accessPoint.eth[0].queue queueLength:last 0
scalar WiredAndWirelessHostsWithAP.accessPoint.eth[0].queue queueLength:max 1
scalar WiredAndWirelessHostsWithAP.accessPoint.eth[0].queue queueLength:timeavg 1.28325075e-08
scalar WiredAndWirelessHostsWithAP.accessPoint.eth[0].queue queueBitLength:last 0
scalar WiredAndWirelessHostsWithAP.accessPoint.eth[0].queue queueBitLength:max 368
scalar WiredAndWirelessHostsWithAP.accessPoint.eth[0].queue queueBitLength:timeavg 4.7223627600000003e-06
scalar WiredAndWirelessHostsWithAP.accessPoint.eth[0].queue outgoingPackets:count 1208
scalar WiredAndWirelessHostsWithAP.accessPoint.eth[0].queue outgoingPacketLengths:sum 1402064
scalar WiredAndWirelessHostsWithAP.accessPoint.eth[0].queue incomingPackets:count 1208
scalar WiredAndWirelessHostsWithAP.accessPoint.eth[0].queue incomingPacketLengths:sum 1402064
scalar WiredAndWirelessHostsWithAP.accessPoint.eth[0].queue droppedPacketsQueueOverflow:count 0
scalar WiredAndWirelessHostsWithAP.accessPoint.eth[0].queue droppedPacketLengthsQueueOverflow:sum 0
scalar WiredAndWirelessHostsWithAP.accessPoint.eth[0].mac "simulated time" 400
scalar WiredAndWirelessHostsWithAP.accessPoint.eth[0].mac full-duplex 1
scalar WiredAndWirelessHostsWithAP.accessPoint.eth[0].mac "frames/sec sent" 3.02
scalar WiredAndWirelessHostsWithAP.accessPoint.eth[0].mac "frames/sec rcvd" 3.0074999999999998
scalar WiredAndWirelessHostsWithAP.accessPoint.eth[0].mac "bits/sec sent" 3507.6799999999998
scalar WiredAndWirelessHostsWithAP.accessPoint.eth[0].mac "bits/sec rcvd" 3501.2800000000002
scalar WiredAndWirelessHostsWithAP.accessPoint.eth[0].mac "rx channel idle (%)" 99.996306239999996
scalar WiredAndWirelessHostsWithAP.accessPoint.eth[0].mac "rx channel utilization (%)" 0.0036937599999999995
scalar WiredAndWirelessHostsWithAP.accessPoint.eth[0].mac rxPausePkUnits:count 0
scalar WiredAndWirelessHostsWithAP.accessPoint.eth[0].mac rxPausePkUnits:sum 0
scalar WiredAndWirelessHostsWithAP.accessPoint.eth[0].mac txPausePkUnits:count 0
scalar WiredAndWirelessHostsWithAP.accessPoint.eth[0].mac txPausePkUnits:sum 0
scalar WiredAndWirelessHostsWithAP.accessPoint.eth[0].mac rxPkOk:count 1203
scalar WiredAndWirelessHostsWithAP.accessPoint.eth[0].mac rxPkOk:sum(packetBytes) 175064
scalar WiredAndWirelessHostsWithAP.accessPoint.eth[0].mac txPk:count 1208
scalar WiredAndWirelessHostsWithAP.accessPoint.eth[0].mac txPk:sum(packetBytes) 175384
scalar WiredAndWirelessHostsWithAP.accessPoint.eth[0].mac packetReceivedFromUpper:count 1208
scalar WiredAndWirelessHostsWithAP.accessPoint.eth[0].mac packetReceivedFromUpper:sum(packetBytes) 175258
scalar WiredAndWirelessHostsWithAP.accessPoint.eth[0].mac passedUpPk:count 1203
scalar WiredAndWirelessHostsWithAP.accessPoint.eth[0].mac passedUpPk:sum(packetBytes) 175064
scalar WiredAndWirelessHostsWithAP.accessPoint.eth[0].mac packetDropIncorrectlyReceived:count 0
scalar WiredAndWirelessHostsWithAP.accessPoint.eth[0].mac packetDropIncorrectlyReceived:sum(packetBytes) 0
scalar WiredAndWirelessHostsWithAP.accessPoint.eth[0].mac packetDropInterfaceDown:count 0
scalar WiredAndWirelessHostsWithAP.accessPoint.eth[0].mac packetDropInterfaceDown:sum(packetBytes) 0
scalar WiredAndWirelessHostsWithAP.accessPoint.eth[0].mac packetDropNotAddressedToUs:count 0
scalar WiredAndWirelessHostsWithAP.accessPoint.eth[0].mac packetDropNotAddressedToUs:sum(packetBytes) 0
scalar WiredAndWirelessHostsWithAP.accessPoint.eth[0] packetDropInterfaceDown:count 0
scalar WiredAndWirelessHostsWithAP.accessPoint.eth[0] packetDropInterfaceDown:sum(packetBytes) 0
scalar WiredAndWirelessHostsWithAP.accessPoint.eth[0] packetDropNoCarrier:count 0
scalar WiredAndWirelessHostsWithAP.accessPoint.eth[0] packetDropNoCarrier:sum(packetBytes) 0
scalar WiredAndWirelessHostsWithAP.accessPoint.eth[1].queue queueLength:last 0
scalar WiredAndWirelessHostsWithAP.accessPoint.eth[1].queue queueLength:max 1
scalar WiredAndWirelessHostsWithAP.accessPoint.eth[1].queue queueLength:timeavg 4.4410147125000073e-06
scalar WiredAndWirelessHostsWithAP.accessPoint.eth[1].queue queueBitLength:last 0
scalar WiredAndWirelessHostsWithAP.accessPoint.eth[1].queue queueBitLength:max 1168
scalar WiredAndWirelessHostsWithAP.accessPoint.eth[1].queue queueBitLength:timeavg 0.0051589271661999971
scalar WiredAndWirelessHostsWithAP.accessPoint.eth[1].queue outgoingPackets:count 1208
scalar WiredAndWirelessHostsWithAP.accessPoint.eth[1].queue outgoingPacketLengths:sum 1402064
scalar WiredAndWirelessHostsWithAP.accessPoint.eth[1].queue incomingPackets:count 1208
scalar WiredAndWirelessHostsWithAP.accessPoint.eth[1].queue incomingPacketLengths:sum 1402064
scalar WiredAndWirelessHostsWithAP.accessPoint.eth[1].queue droppedPacketsQueueOverflow:count 0
scalar WiredAndWirelessHostsWithAP.accessPoint.eth[1].queue droppedPacketLengthsQueueOverflow:sum 0
scalar WiredAndWirelessHostsWithAP.accessPoint.eth[1].mac "simulated time" 400
scalar WiredAndWirelessHostsWithAP.accessPoint.eth[1].mac full-duplex 1
scalar WiredAndWirelessHostsWithAP.accessPoint.eth[1].mac "frames/sec sent" 3.02
scalar WiredAndWirelessHostsWithAP.accessPoint.eth[1].mac "frames/sec rcvd" 3.0099999999999998
scalar WiredAndWirelessHostsWithAP.accessPoint.eth[1].mac "bits/sec sent" 3507.6799999999998
scalar WiredAndWirelessHostsWithAP.accessPoint.eth[1].mac "bits/sec rcvd" 3502.5599999999999
scalar WiredAndWirelessHostsWithAP.accessPoint.eth[1].mac "rx channel idle (%)" 99.996304800000004
scalar WiredAndWirelessHostsWithAP.accessPoint.eth[1].mac "rx channel utilization (%)" 0.0036952
scalar WiredAndWirelessHostsWithAP.accessPoint.eth[1].mac rxPausePkUnits:count 0
scalar WiredAndWirelessHostsWithAP.accessPoint.eth[1].mac rxPausePkUnits:sum 0
scalar WiredAndWirelessHostsWithAP.accessPoint.eth[1].mac txPausePkUnits:count 0
scalar WiredAndWirelessHostsWithAP.accessPoint.eth[1].mac txPausePkUnits:sum 0
scalar WiredAndWirelessHostsWithAP.accessPoint.eth[1].mac rxPkOk:count 1204
scalar WiredAndWirelessHostsWithAP.accessPoint.eth[1].mac rxPkOk:sum(packetBytes) 175128
scalar WiredAndWirelessHostsWithAP.accessPoint.eth[1].mac txPk:count 1208
scalar WiredAndWirelessHostsWithAP.accessPoint.eth[1].mac txPk:sum(packetBytes) 175384
scalar WiredAndWirelessHostsWithAP.accessPoint.eth[1].mac packetReceivedFromUpper:count 1208
scalar WiredAndWirelessHostsWithAP.accessPoint.eth[1].mac packetReceivedFromUpper:sum(packetBytes) 175258
scalar WiredAndWirelessHostsWithAP.accessPoint.eth[1].mac passedUpPk:count 1204
scalar WiredAndWirelessHostsWithAP.accessPoint.eth[1].mac passedUpPk:sum(packetBytes) 175128
scalar WiredAndWirelessHostsWithAP.accessPoint.eth[1].mac packetDropIncorrectlyReceived:count 0
scalar WiredAndWirelessHostsWithAP.accessPoint.eth[1].mac packetDropIncorrectlyReceived:sum(packetBytes) 0
scalar WiredAndWirelessHostsWithAP.accessPoint.eth[1].mac packetDropInterfaceDown:count 0
scalar WiredAndWirelessHostsWithAP.accessPoint.eth[1].mac packetDropInterfaceDown:sum(packetBytes) 0
scalar WiredAndWirelessHostsWithAP.accessPoint.eth[1].mac packetDropNotAddressedToUs:count 0
scalar WiredAndWirelessHostsWithAP.accessPoint.eth[1].mac packetDropNotAddressedToUs:sum(packetBytes) 0
scalar WiredAndWirelessHostsWithAP.accessPoint.eth[1] packetDropInterfaceDown:count 0
scalar WiredAndWirelessHostsWithAP.accessPoint.eth[1] packetDropInterfaceDown:sum(packetBytes) 0
scalar WiredAndWirelessHostsWithAP.accessPoint.eth[1] packetDropNoCarrier:count 0
scalar WiredAndWirelessHostsWithAP.accessPoint.eth[1] packetDropNoCarrier:sum(packetBytes) 0
scalar WiredAndWirelessHostsWithAP.wirelessHost1.app[1] rcvdPkLifetime:stats:count 299
scalar WiredAndWirelessHostsWithAP.wirelessHost1.app[1] rcvdPkLifetime:stats:sumweights 299
scalar WiredAndWirelessHostsWithAP.wirelessHost1.app[1] rcvdPkLifetime:stats:mean 0.0019125416557926433
scalar WiredAndWirelessHostsWithAP.wirelessHost1.app[1] rcvdPkLifetime:stats:stddev 0.00054356130167230673
scalar WiredAndWirelessHostsWithAP.wirelessHost1.app[1] rcvdPkLifetime:stats:min 0.00067286198199999995
scalar WiredAndWirelessHostsWithAP.wirelessHost1.app[1] rcvdPkLifetime:stats:max 0.0056515399400000003
scalar WiredAndWirelessHostsWithAP.wirelessHost1.app[1] rcvdPkLifetime:stats:numbins 0
scalar WiredAndWirelessHostsWithAP.wirelessHost1.app[2] rcvdPkLifetime:stats:count 299
scalar WiredAndWirelessHostsWithAP.wirelessHost1.app[2] rcvdPkLifetime:stats:sumweights 299
scalar WiredAndWirelessHostsWithAP.wirelessHost1.app[2] rcvdPkLifetime:stats:mean 0.0025114107662474921
scalar WiredAndWirelessHostsWithAP.wirelessHost1.app[2] rcvdPkLifetime:stats:stddev 0.00049660218426839022
scalar WiredAndWirelessHostsWithAP.wirelessHost1.app[2] rcvdPkLifetime:stats:min 0.001165815976
scalar WiredAndWirelessHostsWithAP.wirelessHost1.app[2] rcvdPkLifetime:stats:max 0.0061084939340000002
scalar WiredAndWirelessHostsWithAP.wirelessHost1.app[2] rcvdPkLifetime:stats:numbins 0
scalar WiredAndWirelessHostsWithAP.wiredHost1.app[1] rcvdPkLifetime:stats:count 299
scalar WiredAndWirelessHostsWithAP.wiredHost1.app[1] rcvdPkLifetime:stats:sumweights 299
scalar WiredAndWirelessHostsWithAP.wiredHost1.app[1] rcvdPkLifetime:stats:mean 0.0015250166797424753
scalar WiredAndWirelessHostsWithAP.wiredHost1.app[1] rcvdPkLifetime:stats:stddev 0.00040784901612653262
scalar WiredAndWirelessHostsWithAP.wiredHost1.app[1] rcvdPkLifetime:stats:min 0.00066475498500000001
scalar WiredAndWirelessHostsWithAP.wiredHost1.app[1] rcvdPkLifetime:stats:max 0.004894478949
scalar WiredAndWirelessHostsWithAP.wiredHost1.app[1] rcvdPkLifetime:stats:numbins 0
scalar WiredAndWirelessHostsWithAP.wiredHost1.app[2] rcvdPkLifetime:stats:count 299
scalar WiredAndWirelessHostsWithAP.wiredHost1.app[2] rcvdPkLifetime:stats:sumweights 299
scalar WiredAndWirelessHostsWithAP.wiredHost1.app[2] rcvdPkLifetime:stats:mean 8.7671819377926926e-05
scalar WiredAndWirelessHostsWithAP.wiredHost1.app[2] rcvdPkLifetime:stats:stddev 1.9758397779272999e-06
scalar WiredAndWirelessHostsWithAP.wiredHost1.app[2] rcvdPkLifetime:stats:min 8.0939999999999994e-05
scalar WiredAndWirelessHostsWithAP.wiredHost1.app[2] rcvdPkLifetime:stats:max 0.000108126997
scalar WiredAndWirelessHostsWithAP.wiredHost1.app[2] rcvdPkLifetime:stats:numbins 0
scalar WiredAndWirelessHostsWithAP.wiredHost2.app[1] rcvdPkLifetime:stats:count 299
scalar WiredAndWirelessHostsWithAP.wiredHost2.app[1] rcvdPkLifetime:stats:sumweights 299
scalar WiredAndWirelessHostsWithAP.wiredHost2.app[1] rcvdPkLifetime:stats:mean 0.0022728421836822736
scalar WiredAndWirelessHostsWithAP.wiredHost2.app[1] rcvdPkLifetime:stats:stddev 0.00039856752635123604
scalar WiredAndWirelessHostsWithAP.wiredHost2.app[1] rcvdPkLifetime:stats:min 0.0012910329729999999
scalar WiredAndWirelessHostsWithAP.wiredHost2.app[1] rcvdPkLifetime:stats:max 0.0040498949550000002
scalar WiredAndWirelessHostsWithAP.wiredHost2.app[1] rcvdPkLifetime:stats:numbins 0
scalar WiredAndWirelessHostsWithAP.wiredHost2.app[2] rcvdPkLifetime:stats:count 299
scalar WiredAndWirelessHostsWithAP.wiredHost2.app[2] rcvdPkLifetime:stats:sumweights 299
scalar WiredAndWirelessHostsWithAP.wiredHost2.app[2] rcvdPkLifetime:stats:mean 8.7694314381271413e-05
scalar WiredAndWirelessHostsWithAP.wiredHost2.app[2] rcvdPkLifetime:stats:stddev 2.0099834170892693e-06
scalar WiredAndWirelessHostsWithAP.wiredHost2.app[2] rcvdPkLifetime:stats:min 8.7499999999999999e-05
scalar WiredAndWirelessHostsWithAP.wiredHost2.app[2] rcvdPkLifetime:stats:max 0.00011074
scalar WiredAndWirelessHostsWithAP.wiredHost2.app[2] rcvdPkLifetime:stats:numbins 0
scalar WiredAndWirelessHostsWithAP.wirelessHost1.wlan[0].mac.dcf.channelAccess.pendingQueue queueingTime:histogram:count 1209
scalar WiredAndWirelessHostsWithAP.wirelessHost1.wlan[0].mac.dcf.channelAccess.pendingQueue queueingTime:histogram:sumweights 1209
scalar WiredAndWirelessHostsWithAP.wirelessHost1.wlan[0].mac.dcf.channelAccess.pendingQueue queueingTime:histogram:mean 0.00024296343569561615
scalar WiredAndWirelessHostsWithAP.wirelessHost1.wlan[0].mac.dcf.channelAccess.pendingQueue queueingTime:histogram:stddev 0.00032210027115052084
scalar WiredAndWirelessHostsWithAP.wirelessHost1.wlan[0].mac.dcf.channelAccess.pendingQueue queueingTime:histogram:min 0
scalar WiredAndWirelessHostsWithAP.wirelessHost1.wlan[0].mac.dcf.channelAccess.pendingQueue queueingTime:histogram:max 0.001696861982
scalar WiredAndWirelessHostsWithAP.wirelessHost1.wlan[0].mac.dcf.channelAccess.pendingQueue queueingTime:histogram:numbins 91
scalar WiredAndWirelessHostsWithAP.wirelessHost1.wlan[0].mac.dcf.channelAccess.pendingQueue queueingTime:histogram:rangemin 0
scalar WiredAndWirelessHostsWithAP.wirelessHost1.wlan[0].mac.dcf.channelAccess.pendingQueue queueingTime:histogram:rangemax 0.0018200000000000002
scalar WiredAndWirelessHostsWithAP.wirelessHost1.wlan[0].mac.dcf.channelAccess.pendingQueue queueingTime:histogram:underflows 0
scalar WiredAndWirelessHostsWithAP.wirelessHost1.wlan[0].mac.dcf.channelAccess.pendingQueue queueingTime:histogram:overflows 0
scalar WiredAndWirelessHostsWithAP.wirelessHost1.wlan[0].mac.dcf.channelAccess.pendingQueue outgoingPacketLengths:histogram:count 1209
scalar WiredAndWirelessHostsWithAP.wirelessHost1.wlan[0].mac.dcf.channelAccess.pendingQueue outgoingPacketLengths:histogram:sumweights 1209
scalar WiredAndWirelessHostsWithAP.wirelessHost1.wlan[0].mac.dcf.channelAccess.pendingQueue outgoingPacketLengths:histogram:mean 1302.656741108354
scalar WiredAndWirelessHostsWithAP.wirelessHost1.wlan[0].mac.dcf.channelAccess.pendingQueue outgoingPacketLengths:histogram:stddev 90.300723429846471
scalar WiredAndWirelessHostsWithAP.wirelessHost1.wlan[0].mac.dcf.channelAccess.pendingQueue outgoingPacketLengths:histogram:min 272
scalar WiredAndWirelessHostsWithAP.wirelessHost1.wlan[0].mac.dcf.channelAccess.pendingQueue outgoingPacketLengths:histogram:max 1312
scalar WiredAndWirelessHostsWithAP.wirelessHost1.wlan[0].mac.dcf.channelAccess.pendingQueue outgoingPacketLengths:histogram:numbins 79
scalar WiredAndWirelessHostsWithAP.wirelessHost1.wlan[0].mac.dcf.channelAccess.pendingQueue outgoingPacketLengths:histogram:rangemin 0
scalar WiredAndWirelessHostsWithAP.wirelessHost1.wlan[0].mac.dcf.channelAccess.pendingQueue outgoingPacketLengths:histogram:rangemax 1580
scalar WiredAndWirelessHostsWithAP.wirelessHost1.wlan[0].mac.dcf.channelAccess.pendingQueue outgoingPacketLengths:histogram:underflows 0
scalar WiredAndWirelessHostsWithAP.wirelessHost1.wlan[0].mac.dcf.channelAccess.pendingQueue outgoingPacketLengths:histogram:overflows 0
scalar WiredAndWirelessHostsWithAP.wirelessHost1.wlan[0].mac.dcf.channelAccess.pendingQueue flowQueueingTime:histogram:count 0
scalar WiredAndWirelessHostsWithAP.wirelessHost1.wlan[0].mac.dcf.channelAccess.pendingQueue flowQueueingTime:histogram:sumweights 0
scalar WiredAndWirelessHostsWithAP.wirelessHost1.wlan[0].mac.dcf.channelAccess.pendingQueue flowQueueingTime:histogram:mean -nan
scalar WiredAndWirelessHostsWithAP.wirelessHost1.wlan[0].mac.dcf.channelAccess.pendingQueue flowQueueingTime:histogram:stddev nan
scalar WiredAndWirelessHostsWithAP.wirelessHost1.wlan[0].mac.dcf.channelAccess.pendingQueue flowQueueingTime:histogram:min nan
scalar WiredAndWirelessHostsWithAP.wirelessHost1.wlan[0].mac.dcf.channelAccess.pendingQueue flowQueueingTime:histogram:max nan
scalar WiredAndWirelessHostsWithAP.wirelessHost1.wlan[0].mac.dcf.channelAccess.pendingQueue flowQueueingTime:histogram:numbins 1
scalar WiredAndWirelessHostsWithAP.wirelessHost1.wlan[0].mac.dcf.channelAccess.pendingQueue flowQueueingTime:histogram:rangemin 0
scalar WiredAndWirelessHostsWithAP.wirelessHost1.wlan[0].mac.dcf.channelAccess.pendingQueue flowQueueingTime:histogram:rangemax 1
scalar WiredAndWirelessHostsWithAP.wirelessHost1.wlan[0].mac.dcf.channelAccess.pendingQueue flowQueueingTime:histogram:underflows 0
scalar WiredAndWirelessHostsWithAP.wirelessHost1.wlan[0].mac.dcf.channelAccess.pendingQueue flowQueueingTime:histogram:overflows 0
scalar WiredAndWirelessHostsWithAP.wirelessHost1.wlan[0].mac.dcf.channelAccess.pendingQueue incomingPacketLengths:histogram:count 1209
scalar WiredAndWirelessHostsWithAP.wirelessHost1.wlan[0].mac.dcf.channelAccess.pendingQueue incomingPacketLengths:histogram:sumweights 1209
scalar WiredAndWirelessHostsWithAP.wirelessHost1.wlan[0].mac.dcf.channelAccess.pendingQueue incomingPacketLengths:histogram:mean 1302.656741108354
scalar WiredAndWirelessHostsWithAP.wirelessHost1.wlan[0].mac.dcf.channelAccess.pendingQueue incomingPacketLengths:histogram:stddev 90.300723429846471
scalar WiredAndWirelessHostsWithAP.wirelessHost1.wlan[0].mac.dcf.channelAccess.pendingQueue incomingPacketLengths:histogram:min 272
scalar WiredAndWirelessHostsWithAP.wirelessHost1.wlan[0].mac.dcf.channelAccess.pendingQueue incomingPacketLengths:histogram:max 1312
scalar WiredAndWirelessHostsWithAP.wirelessHost1.wlan[0].mac.dcf.channelAccess.pendingQueue incomingPacketLengths:histogram:numbins 79
scalar WiredAndWirelessHostsWithAP.wirelessHost1.wlan[0].mac.dcf.channelAccess.pendingQueue incomingPacketLengths:histogram:rangemin 0
scalar WiredAndWirelessHostsWithAP.wirelessHost1.wlan[0].mac.dcf.channelAccess.pendingQueue incomingPacketLengths:histogram:rangemax 1580
scalar WiredAndWirelessHostsWithAP.wirelessHost1.wlan[0].mac.dcf.channelAccess.pendingQueue incomingPacketLengths:histogram:underflows 0
scalar WiredAndWirelessHostsWithAP.wirelessHost1.wlan[0].mac.dcf.channelAccess.pendingQueue incomingPacketLengths:histogram:overflows 0
scalar WiredAndWirelessHostsWithAP.wirelessHost1.wlan[0].mac.dcf.channelAccess.inProgressFrames queueingTime:histogram:count 1209
scalar WiredAndWirelessHostsWithAP.wirelessHost1.wlan[0].mac.dcf.channelAccess.inProgressFrames queueingTime:histogram:sumweights 1209
scalar WiredAndWirelessHostsWithAP.wirelessHost1.wlan[0].mac.dcf.channelAccess.inProgressFrames queueingTime:histogram:mean 0.00045409842856244465
scalar WiredAndWirelessHostsWithAP.wirelessHost1.wlan[0].mac.dcf.channelAccess.inProgressFrames queueingTime:histogram:stddev 0.00037359190481852175
scalar WiredAndWirelessHostsWithAP.wirelessHost1.wlan[0].mac.dcf.channelAccess.inProgressFrames queueingTime:histogram:min 4.1999999999999998e-05
scalar WiredAndWirelessHostsWithAP.wirelessHost1.wlan[0].mac.dcf.channelAccess.inProgressFrames queueingTime:histogram:max 0.001453815976
scalar WiredAndWirelessHostsWithAP.wirelessHost1.wlan[0].mac.dcf.channelAccess.inProgressFrames queueingTime:histogram:numbins 80
scalar WiredAndWirelessHostsWithAP.wirelessHost1.wlan[0].mac.dcf.channelAccess.inProgressFrames queueingTime:histogram:rangemin 0
scalar WiredAndWirelessHostsWithAP.wirelessHost1.wlan[0].mac.dcf.channelAccess.inProgressFrames queueingTime:histogram:rangemax 0.0016000000000000001
scalar WiredAndWirelessHostsWithAP.wirelessHost1.wlan[0].mac.dcf.channelAccess.inProgressFrames queueingTime:histogram:underflows 0
scalar WiredAndWirelessHostsWithAP.wirelessHost1.wlan[0].mac.dcf.channelAccess.inProgressFrames queueingTime:histogram:overflows 0
scalar WiredAndWirelessHostsWithAP.wirelessHost1.wlan[0].mac.dcf frameSequenceDuration:histogram:count 1209
scalar WiredAndWirelessHostsWithAP.wirelessHost1.wlan[0].mac.dcf frameSequenceDuration:histogram:sumweights 1209
scalar WiredAndWirelessHostsWithAP.wirelessHost1.wlan[0].mac.dcf frameSequenceDuration:histogram:mean 0.00012654625703226164
scalar WiredAndWirelessHostsWithAP.wirelessHost1.wlan[0].mac.dcf frameSequenceDuration:histogram:stddev 4.1726190348020156e-06
scalar WiredAndWirelessHostsWithAP.wirelessHost1.wlan[0].mac.dcf frameSequenceDuration:histogram:min 4.1999999999999998e-05
scalar WiredAndWirelessHostsWithAP.wirelessHost1.wlan[0].mac.dcf frameSequenceDuration:histogram:max 0.000126953994
scalar WiredAndWirelessHostsWithAP.wirelessHost1.wlan[0].mac.dcf frameSequenceDuration:histogram:numbins 65
scalar WiredAndWirelessHostsWithAP.wirelessHost1.wlan[0].mac.dcf frameSequenceDuration:histogram:rangemin 2.0000000000000005e-05
scalar WiredAndWirelessHostsWithAP.wirelessHost1.wlan[0].mac.dcf frameSequenceDuration:histogram:rangemax 0.00015000000000000001
scalar WiredAndWirelessHostsWithAP.wirelessHost1.wlan[0].mac.dcf frameSequenceDuration:histogram:underflows 0
scalar WiredAndWirelessHostsWithAP.wirelessHost1.wlan[0].mac.dcf frameSequenceDuration:histogram:overflows 0
scalar WiredAndWirelessHostsWithAP.wirelessHost1.wlan[0].mac.dcf frameSequenceNumPackets:histogram:count 1209
scalar WiredAndWirelessHostsWithAP.wirelessHost1.wlan[0].mac.dcf frameSequenceNumPackets:histogram:sumweights 1209
scalar WiredAndWirelessHostsWithAP.wirelessHost1.wlan[0].mac.dcf frameSequenceNumPackets:histogram:mean 1.9991728701406122
scalar WiredAndWirelessHostsWithAP.wirelessHost1.wlan[0].mac.dcf frameSequenceNumPackets:histogram:stddev 0.028759865427153558
scalar WiredAndWirelessHostsWithAP.wirelessHost1.wlan[0].mac.dcf frameSequenceNumPackets:histogram:min 1
scalar WiredAndWirelessHostsWithAP.wirelessHost1.wlan[0].mac.dcf frameSequenceNumPackets:histogram:max 2
scalar WiredAndWirelessHostsWithAP.wirelessHost1.wlan[0].mac.dcf frameSequenceNumPackets:histogram:numbins 3
scalar WiredAndWirelessHostsWithAP.wirelessHost1.wlan[0].mac.dcf frameSequenceNumPackets:histogram:rangemin 0
scalar WiredAndWirelessHostsWithAP.wirelessHost1.wlan[0].mac.dcf frameSequenceNumPackets:histogram:rangemax 3
scalar WiredAndWirelessHostsWithAP.wirelessHost1.wlan[0].mac.dcf frameSequenceNumPackets:histogram:underflows 0
scalar WiredAndWirelessHostsWithAP.wirelessHost1.wlan[0].mac.dcf frameSequenceNumPackets:histogram:overflows 0
scalar WiredAndWirelessHostsWithAP.wirelessHost1.wlan[0].radio radioChannel:histogram:count 4
scalar WiredAndWirelessHostsWithAP.wirelessHost1.wlan[0].radio radioChannel:histogram:sumweights 4
scalar WiredAndWirelessHostsWithAP.wirelessHost1.wlan[0].radio radioChannel:histogram:mean 0
scalar WiredAndWirelessHostsWithAP.wirelessHost1.wlan[0].radio radioChannel:histogram:stddev 0
scalar WiredAndWirelessHostsWithAP.wirelessHost1.wlan[0].radio radioChannel:histogram:min 0
scalar WiredAndWirelessHostsWithAP.wirelessHost1.wlan[0].radio radioChannel:histogram:max 0
scalar WiredAndWirelessHostsWithAP.wirelessHost1.wlan[0].radio radioChannel:histogram:numbins 50
scalar WiredAndWirelessHostsWithAP.wirelessHost1.wlan[0].radio radioChannel:histogram:rangemin -0.5
scalar WiredAndWirelessHostsWithAP.wirelessHost1.wlan[0].radio radioChannel:histogram:rangemax 0.5
scalar WiredAndWirelessHostsWithAP.wirelessHost1.wlan[0].radio radioChannel:histogram:underflows 0
scalar WiredAndWirelessHostsWithAP.wirelessHost1.wlan[0].radio radioChannel:histogram:overflows 0
scalar WiredAndWirelessHostsWithAP.wirelessHost1.wlan[0].radio minSnir:histogram:count 6425
scalar WiredAndWirelessHostsWithAP.wirelessHost1.wlan[0].radio minSnir:histogram:sumweights 6425
scalar WiredAndWirelessHostsWithAP.wirelessHost1.wlan[0].radio minSnir:histogram:mean 9568.0842686876313
scalar WiredAndWirelessHostsWithAP.wirelessHost1.wlan[0].radio minSnir:histogram:stddev 0
scalar WiredAndWirelessHostsWithAP.wirelessHost1.wlan[0].radio minSnir:histogram:min 9568.0842686872584
scalar WiredAndWirelessHostsWithAP.wirelessHost1.wlan[0].radio minSnir:histogram:max 9568.0842686872584
scalar WiredAndWirelessHostsWithAP.wirelessHost1.wlan[0].radio minSnir:histogram:numbins 51
scalar WiredAndWirelessHostsWithAP.wirelessHost1.wlan[0].radio minSnir:histogram:rangemin 9567.5799999999999
scalar WiredAndWirelessHostsWithAP.wirelessHost1.wlan[0].radio minSnir:histogram:rangemax 9568.6000000000004
scalar WiredAndWirelessHostsWithAP.wirelessHost1.wlan[0].radio minSnir:histogram:underflows 0
scalar WiredAndWirelessHostsWithAP.wirelessHost1.wlan[0].radio minSnir:histogram:overflows 0
scalar WiredAndWirelessHostsWithAP.wirelessHost1.wlan[0].radio packetErrorRate:histogram:count 6425
scalar WiredAndWirelessHostsWithAP.wirelessHost1.wlan[0].radio packetErrorRate:histogram:sumweights 6425
scalar WiredAndWirelessHostsWithAP.wirelessHost1.wlan[0].radio packetErrorRate:histogram:mean 0
scalar WiredAndWirelessHostsWithAP.wirelessHost1.wlan[0].radio packetErrorRate:histogram:stddev 0
scalar WiredAndWirelessHostsWithAP.wirelessHost1.wlan[0].radio packetErrorRate:histogram:min 0
scalar WiredAndWirelessHostsWithAP.wirelessHost1.wlan[0].radio packetErrorRate:histogram:max 0
scalar WiredAndWirelessHostsWithAP.wirelessHost1.wlan[0].radio packetErrorRate:histogram:numbins 50
scalar WiredAndWirelessHostsWithAP.wirelessHost1.wlan[0].radio packetErrorRate:histogram:rangemin -0.5
scalar WiredAndWirelessHostsWithAP.wirelessHost1.wlan[0].radio packetErrorRate:histogram:rangemax 0.5
scalar WiredAndWirelessHostsWithAP.wirelessHost1.wlan[0].radio packetErrorRate:histogram:underflows 0
scalar WiredAndWirelessHostsWithAP.wirelessHost1.wlan[0].radio packetErrorRate:histogram:overflows 0
scalar WiredAndWirelessHostsWithAP.wirelessHost1.wlan[0].radio bitErrorRate:histogram:count 0
scalar WiredAndWirelessHostsWithAP.wirelessHost1.wlan[0].radio bitErrorRate:histogram:sumweights 0
scalar WiredAndWirelessHostsWithAP.wirelessHost1.wlan[0].radio bitErrorRate:histogram:mean -nan
scalar WiredAndWirelessHostsWithAP.wirelessHost1.wlan[0].radio bitErrorRate:histogram:stddev nan
scalar WiredAndWirelessHostsWithAP.wirelessHost1.wlan[0].radio bitErrorRate:histogram:min nan
scalar WiredAndWirelessHostsWithAP.wirelessHost1.wlan[0].radio bitErrorRate:histogram:max nan
scalar WiredAndWirelessHostsWithAP.wirelessHost1.wlan[0].radio bitErrorRate:histogram:numbins 1
scalar WiredAndWirelessHostsWithAP.wirelessHost1.wlan[0].radio bitErrorRate:histogram:rangemin 0
scalar WiredAndWirelessHostsWithAP.wirelessHost1.wlan[0].radio bitErrorRate:histogram:rangemax 1
scalar WiredAndWirelessHostsWithAP.wirelessHost1.wlan[0].radio bitErrorRate:histogram:underflows 0
[...]
scalar WiredAndWirelessHostsWithAP.accessPoint.eth[1].queue incomingPacketLengths:vector:stddev 73.75817075942355
scalar WiredAndWirelessHostsWithAP.accessPoint.eth[1].queue incomingPacketLengths:vector:min 368
scalar WiredAndWirelessHostsWithAP.accessPoint.eth[1].queue incomingPacketLengths:vector:max 1168
scalar WiredAndWirelessHostsWithAP.accessPoint.eth[1].queue incomingPacketLengths:vector:starttime 1.0000241500000002
scalar WiredAndWirelessHostsWithAP.accessPoint.eth[1].queue incomingPacketLengths:vector:endtime 299.00220229297304
scalar WiredAndWirelessHostsWithAP.accessPoint.eth[1].queue incomingDataRate:vector:count 4000
scalar WiredAndWirelessHostsWithAP.accessPoint.eth[1].queue incomingDataRate:vector:sum 14020640
scalar WiredAndWirelessHostsWithAP.accessPoint.eth[1].queue incomingDataRate:vector:sumweights 4000
scalar WiredAndWirelessHostsWithAP.accessPoint.eth[1].queue incomingDataRate:vector:mean 3505.1599999999999
scalar WiredAndWirelessHostsWithAP.accessPoint.eth[1].queue incomingDataRate:vector:stddev 12340.759026807849
scalar WiredAndWirelessHostsWithAP.accessPoint.eth[1].queue incomingDataRate:vector:min 0
scalar WiredAndWirelessHostsWithAP.accessPoint.eth[1].queue incomingDataRate:vector:max 68000
scalar WiredAndWirelessHostsWithAP.accessPoint.eth[1].queue incomingDataRate:vector:starttime 0.10000000000000001
scalar WiredAndWirelessHostsWithAP.accessPoint.eth[1].queue incomingDataRate:vector:endtime 400
scalar WiredAndWirelessHostsWithAP.accessPoint.eth[1].queue outgoingPacketLengths:vector:count 1208
scalar WiredAndWirelessHostsWithAP.accessPoint.eth[1].queue outgoingPacketLengths:vector:sum 1402064
scalar WiredAndWirelessHostsWithAP.accessPoint.eth[1].queue outgoingPacketLengths:vector:sumweights 1208
scalar WiredAndWirelessHostsWithAP.accessPoint.eth[1].queue outgoingPacketLengths:vector:mean 1160.6490066225165
scalar WiredAndWirelessHostsWithAP.accessPoint.eth[1].queue outgoingPacketLengths:vector:stddev 73.75817075942355
scalar WiredAndWirelessHostsWithAP.accessPoint.eth[1].queue outgoingPacketLengths:vector:min 368
scalar WiredAndWirelessHostsWithAP.accessPoint.eth[1].queue outgoingPacketLengths:vector:max 1168
scalar WiredAndWirelessHostsWithAP.accessPoint.eth[1].queue outgoingPacketLengths:vector:starttime 1.0000241500000002
scalar WiredAndWirelessHostsWithAP.accessPoint.eth[1].queue outgoingPacketLengths:vector:endtime 299.00220229297304
scalar WiredAndWirelessHostsWithAP.accessPoint.eth[1].queue outgoingDataRate:vector:count 4000
scalar WiredAndWirelessHostsWithAP.accessPoint.eth[1].queue outgoingDataRate:vector:sum 14020640
scalar WiredAndWirelessHostsWithAP.accessPoint.eth[1].queue outgoingDataRate:vector:sumweights 4000
scalar WiredAndWirelessHostsWithAP.accessPoint.eth[1].queue outgoingDataRate:vector:mean 3505.1599999999999
scalar WiredAndWirelessHostsWithAP.accessPoint.eth[1].queue outgoingDataRate:vector:stddev 12340.759026807849
scalar WiredAndWirelessHostsWithAP.accessPoint.eth[1].queue outgoingDataRate:vector:min 0
scalar WiredAndWirelessHostsWithAP.accessPoint.eth[1].queue outgoingDataRate:vector:max 68000
scalar WiredAndWirelessHostsWithAP.accessPoint.eth[1].queue outgoingDataRate:vector:starttime 0.10000000000000001
scalar WiredAndWirelessHostsWithAP.accessPoint.eth[1].queue outgoingDataRate:vector:endtime 400
scalar WiredAndWirelessHostsWithAP.accessPoint.eth[1].queue droppedPacketLengthsQueueOverflow:vector:count 0
scalar WiredAndWirelessHostsWithAP.accessPoint.eth[1].queue droppedPacketLengthsQueueOverflow:vector:sum 0
scalar WiredAndWirelessHostsWithAP.accessPoint.eth[1].queue droppedPacketLengthsQueueOverflow:vector:sumweights 0
scalar WiredAndWirelessHostsWithAP.accessPoint.eth[1].queue droppedPacketLengthsQueueOverflow:vector:mean -nan
scalar WiredAndWirelessHostsWithAP.accessPoint.eth[1].queue droppedPacketLengthsQueueOverflow:vector:stddev nan
scalar WiredAndWirelessHostsWithAP.accessPoint.eth[1].queue droppedPacketLengthsQueueOverflow:vector:min inf
scalar WiredAndWirelessHostsWithAP.accessPoint.eth[1].queue droppedPacketLengthsQueueOverflow:vector:max -inf
scalar WiredAndWirelessHostsWithAP.accessPoint.eth[1].queue droppedPacketLengthsQueueOverflow:vector:starttime nan
scalar WiredAndWirelessHostsWithAP.accessPoint.eth[1].queue droppedPacketLengthsQueueOverflow:vector:endtime nan
scalar WiredAndWirelessHostsWithAP.accessPoint.eth[1].queue flowQueueingTime:vector:count 0
scalar WiredAndWirelessHostsWithAP.accessPoint.eth[1].queue flowQueueingTime:vector:sum 0
scalar WiredAndWirelessHostsWithAP.accessPoint.eth[1].queue flowQueueingTime:vector:sumweights 0
scalar WiredAndWirelessHostsWithAP.accessPoint.eth[1].queue flowQueueingTime:vector:mean -nan
scalar WiredAndWirelessHostsWithAP.accessPoint.eth[1].queue flowQueueingTime:vector:stddev nan
scalar WiredAndWirelessHostsWithAP.accessPoint.eth[1].queue flowQueueingTime:vector:min inf
scalar WiredAndWirelessHostsWithAP.accessPoint.eth[1].queue flowQueueingTime:vector:max -inf
scalar WiredAndWirelessHostsWithAP.accessPoint.eth[1].queue flowQueueingTime:vector:starttime nan
scalar WiredAndWirelessHostsWithAP.accessPoint.eth[1].queue flowQueueingTime:vector:endtime nan
scalar WiredAndWirelessHostsWithAP.accessPoint.eth[1].queue flowIncomingDataRate:vector:count 4000
scalar WiredAndWirelessHostsWithAP.accessPoint.eth[1].queue flowIncomingDataRate:vector:sum 0
scalar WiredAndWirelessHostsWithAP.accessPoint.eth[1].queue flowIncomingDataRate:vector:sumweights 4000
scalar WiredAndWirelessHostsWithAP.accessPoint.eth[1].queue flowIncomingDataRate:vector:mean 0
scalar WiredAndWirelessHostsWithAP.accessPoint.eth[1].queue flowIncomingDataRate:vector:stddev 0
scalar WiredAndWirelessHostsWithAP.accessPoint.eth[1].queue flowIncomingDataRate:vector:min 0
scalar WiredAndWirelessHostsWithAP.accessPoint.eth[1].queue flowIncomingDataRate:vector:max 0
scalar WiredAndWirelessHostsWithAP.accessPoint.eth[1].queue flowIncomingDataRate:vector:starttime 0.10000000000000001
scalar WiredAndWirelessHostsWithAP.accessPoint.eth[1].queue flowIncomingDataRate:vector:endtime 400
scalar WiredAndWirelessHostsWithAP.accessPoint.eth[1].queue flowOutgoingDataRate:vector:count 4000
scalar WiredAndWirelessHostsWithAP.accessPoint.eth[1].queue flowOutgoingDataRate:vector:sum 0
scalar WiredAndWirelessHostsWithAP.accessPoint.eth[1].queue flowOutgoingDataRate:vector:sumweights 4000
scalar WiredAndWirelessHostsWithAP.accessPoint.eth[1].queue flowOutgoingDataRate:vector:mean 0
scalar WiredAndWirelessHostsWithAP.accessPoint.eth[1].queue flowOutgoingDataRate:vector:stddev 0
scalar WiredAndWirelessHostsWithAP.accessPoint.eth[1].queue flowOutgoingDataRate:vector:min 0
scalar WiredAndWirelessHostsWithAP.accessPoint.eth[1].queue flowOutgoingDataRate:vector:max 0
scalar WiredAndWirelessHostsWithAP.accessPoint.eth[1].queue flowOutgoingDataRate:vector:starttime 0.10000000000000001
scalar WiredAndWirelessHostsWithAP.accessPoint.eth[1].queue flowOutgoingDataRate:vector:endtime 400
scalar WiredAndWirelessHostsWithAP.accessPoint.eth[1].mac transmitting:vector:count 2418
scalar WiredAndWirelessHostsWithAP.accessPoint.eth[1].mac transmitting:vector:sum 1208
scalar WiredAndWirelessHostsWithAP.accessPoint.eth[1].mac transmitting:vector:sumweights 2418
scalar WiredAndWirelessHostsWithAP.accessPoint.eth[1].mac transmitting:vector:mean 0.49958643507030603
scalar WiredAndWirelessHostsWithAP.accessPoint.eth[1].mac transmitting:vector:stddev 0.50010325224136198
scalar WiredAndWirelessHostsWithAP.accessPoint.eth[1].mac transmitting:vector:min 0
scalar WiredAndWirelessHostsWithAP.accessPoint.eth[1].mac transmitting:vector:max 1
scalar WiredAndWirelessHostsWithAP.accessPoint.eth[1].mac transmitting:vector:starttime 0
scalar WiredAndWirelessHostsWithAP.accessPoint.eth[1].mac transmitting:vector:endtime 299.00221461297303
scalar WiredAndWirelessHostsWithAP.accessPoint.eth[1].mac throughput:vector:count 4000
scalar WiredAndWirelessHostsWithAP.accessPoint.eth[1].mac throughput:vector:sum 14803840
scalar WiredAndWirelessHostsWithAP.accessPoint.eth[1].mac throughput:vector:sumweights 4000
scalar WiredAndWirelessHostsWithAP.accessPoint.eth[1].mac throughput:vector:mean 3700.96
scalar WiredAndWirelessHostsWithAP.accessPoint.eth[1].mac throughput:vector:stddev 13035.030352188316
scalar WiredAndWirelessHostsWithAP.accessPoint.eth[1].mac throughput:vector:min 0
scalar WiredAndWirelessHostsWithAP.accessPoint.eth[1].mac throughput:vector:max 78080
scalar WiredAndWirelessHostsWithAP.accessPoint.eth[1].mac throughput:vector:starttime 0.10000000000000001
scalar WiredAndWirelessHostsWithAP.accessPoint.eth[1].mac throughput:vector:endtime 400
scalar WiredAndWirelessHostsWithAP.accessPoint.eth[1].mac utilization:vector:count 4000
scalar WiredAndWirelessHostsWithAP.accessPoint.eth[1].mac utilization:vector:sum 14.803839999999974
scalar WiredAndWirelessHostsWithAP.accessPoint.eth[1].mac utilization:vector:sumweights 4000
scalar WiredAndWirelessHostsWithAP.accessPoint.eth[1].mac utilization:vector:mean 0.0037009599999999936
scalar WiredAndWirelessHostsWithAP.accessPoint.eth[1].mac utilization:vector:stddev 0.013035030352188358
scalar WiredAndWirelessHostsWithAP.accessPoint.eth[1].mac utilization:vector:min 0
scalar WiredAndWirelessHostsWithAP.accessPoint.eth[1].mac utilization:vector:max 0.078079999999999997
scalar WiredAndWirelessHostsWithAP.accessPoint.eth[1].mac utilization:vector:starttime 0.10000000000000001
scalar WiredAndWirelessHostsWithAP.accessPoint.eth[1].mac utilization:vector:endtime 400
scalar WiredAndWirelessHostsWithAP.accessPoint.eth[1].mac txPk:vector(packetBytes):count 1208
scalar WiredAndWirelessHostsWithAP.accessPoint.eth[1].mac txPk:vector(packetBytes):sum 175384
scalar WiredAndWirelessHostsWithAP.accessPoint.eth[1].mac txPk:vector(packetBytes):sumweights 1208
scalar WiredAndWirelessHostsWithAP.accessPoint.eth[1].mac txPk:vector(packetBytes):mean 145.18543046357615
scalar WiredAndWirelessHostsWithAP.accessPoint.eth[1].mac txPk:vector(packetBytes):stddev 8.135475902848766
scalar WiredAndWirelessHostsWithAP.accessPoint.eth[1].mac txPk:vector(packetBytes):min 64
scalar WiredAndWirelessHostsWithAP.accessPoint.eth[1].mac txPk:vector(packetBytes):max 146
scalar WiredAndWirelessHostsWithAP.accessPoint.eth[1].mac txPk:vector(packetBytes):starttime 1.0000299100000001
scalar WiredAndWirelessHostsWithAP.accessPoint.eth[1].mac txPk:vector(packetBytes):endtime 299.00221461297303
scalar WiredAndWirelessHostsWithAP.accessPoint.eth[1].mac rxPkOk:vector(packetBytes):count 1204
scalar WiredAndWirelessHostsWithAP.accessPoint.eth[1].mac rxPkOk:vector(packetBytes):sum 175128
scalar WiredAndWirelessHostsWithAP.accessPoint.eth[1].mac rxPkOk:vector(packetBytes):sumweights 1204
scalar WiredAndWirelessHostsWithAP.accessPoint.eth[1].mac rxPkOk:vector(packetBytes):mean 145.45514950166114
scalar WiredAndWirelessHostsWithAP.accessPoint.eth[1].mac rxPkOk:vector(packetBytes):stddev 6.6646658306565474
scalar WiredAndWirelessHostsWithAP.accessPoint.eth[1].mac rxPkOk:vector(packetBytes):min 64
scalar WiredAndWirelessHostsWithAP.accessPoint.eth[1].mac rxPkOk:vector(packetBytes):max 146
scalar WiredAndWirelessHostsWithAP.accessPoint.eth[1].mac rxPkOk:vector(packetBytes):starttime 1.0000058100000002
scalar WiredAndWirelessHostsWithAP.accessPoint.eth[1].mac rxPkOk:vector(packetBytes):endtime 299.00011315000006
scalar WiredAndWirelessHostsWithAP.accessPoint.eth[1].mac passedUpPk:vector(packetBytes):count 1204
scalar WiredAndWirelessHostsWithAP.accessPoint.eth[1].mac passedUpPk:vector(packetBytes):sum 175128
scalar WiredAndWirelessHostsWithAP.accessPoint.eth[1].mac passedUpPk:vector(packetBytes):sumweights 1204
scalar WiredAndWirelessHostsWithAP.accessPoint.eth[1].mac passedUpPk:vector(packetBytes):mean 145.45514950166114
scalar WiredAndWirelessHostsWithAP.accessPoint.eth[1].mac passedUpPk:vector(packetBytes):stddev 6.6646658306565474
scalar WiredAndWirelessHostsWithAP.accessPoint.eth[1].mac passedUpPk:vector(packetBytes):min 64
scalar WiredAndWirelessHostsWithAP.accessPoint.eth[1].mac passedUpPk:vector(packetBytes):max 146
scalar WiredAndWirelessHostsWithAP.accessPoint.eth[1].mac passedUpPk:vector(packetBytes):starttime 1.0000058100000002
scalar WiredAndWirelessHostsWithAP.accessPoint.eth[1].mac passedUpPk:vector(packetBytes):endtime 299.00011315000006
scalar WiredAndWirelessHostsWithAP.accessPoint.eth[1].mac txPausePkUnits:vector:count 0
scalar WiredAndWirelessHostsWithAP.accessPoint.eth[1].mac txPausePkUnits:vector:sum 0
scalar WiredAndWirelessHostsWithAP.accessPoint.eth[1].mac txPausePkUnits:vector:sumweights 0
scalar WiredAndWirelessHostsWithAP.accessPoint.eth[1].mac txPausePkUnits:vector:mean -nan
scalar WiredAndWirelessHostsWithAP.accessPoint.eth[1].mac txPausePkUnits:vector:stddev nan
scalar WiredAndWirelessHostsWithAP.accessPoint.eth[1].mac txPausePkUnits:vector:min inf
scalar WiredAndWirelessHostsWithAP.accessPoint.eth[1].mac txPausePkUnits:vector:max -inf
scalar WiredAndWirelessHostsWithAP.accessPoint.eth[1].mac txPausePkUnits:vector:starttime nan
scalar WiredAndWirelessHostsWithAP.accessPoint.eth[1].mac txPausePkUnits:vector:endtime nan
scalar WiredAndWirelessHostsWithAP.accessPoint.eth[1].mac rxPausePkUnits:vector:count 0
scalar WiredAndWirelessHostsWithAP.accessPoint.eth[1].mac rxPausePkUnits:vector:sum 0
scalar WiredAndWirelessHostsWithAP.accessPoint.eth[1].mac rxPausePkUnits:vector:sumweights 0
scalar WiredAndWirelessHostsWithAP.accessPoint.eth[1].mac rxPausePkUnits:vector:mean -nan
scalar WiredAndWirelessHostsWithAP.accessPoint.eth[1].mac rxPausePkUnits:vector:stddev nan
scalar WiredAndWirelessHostsWithAP.accessPoint.eth[1].mac rxPausePkUnits:vector:min inf
scalar WiredAndWirelessHostsWithAP.accessPoint.eth[1].mac rxPausePkUnits:vector:max -inf
scalar WiredAndWirelessHostsWithAP.accessPoint.eth[1].mac rxPausePkUnits:vector:starttime nan
scalar WiredAndWirelessHostsWithAP.accessPoint.eth[1].mac rxPausePkUnits:vector:endtime nan
scalar WiredAndWirelessHostsWithAP.accessPoint.eth[1].mac packetReceivedFromUpper:vector(packetBytes):count 1208
scalar WiredAndWirelessHostsWithAP.accessPoint.eth[1].mac packetReceivedFromUpper:vector(packetBytes):sum 175258
scalar WiredAndWirelessHostsWithAP.accessPoint.eth[1].mac packetReceivedFromUpper:vector(packetBytes):sumweights 1208
scalar WiredAndWirelessHostsWithAP.accessPoint.eth[1].mac packetReceivedFromUpper:vector(packetBytes):mean 145.08112582781456
scalar WiredAndWirelessHostsWithAP.accessPoint.eth[1].mac packetReceivedFromUpper:vector(packetBytes):stddev 9.2197713449279437
scalar WiredAndWirelessHostsWithAP.accessPoint.eth[1].mac packetReceivedFromUpper:vector(packetBytes):min 46
scalar WiredAndWirelessHostsWithAP.accessPoint.eth[1].mac packetReceivedFromUpper:vector(packetBytes):max 146
scalar WiredAndWirelessHostsWithAP.accessPoint.eth[1].mac packetReceivedFromUpper:vector(packetBytes):starttime 1.0000241500000002
scalar WiredAndWirelessHostsWithAP.accessPoint.eth[1].mac packetReceivedFromUpper:vector(packetBytes):endtime 299.00220229297304
scalar WiredAndWirelessHostsWithAP.accessPoint.eth[1].mac packetDropIncorrectlyReceived:vector(packetBytes):count 0
scalar WiredAndWirelessHostsWithAP.accessPoint.eth[1].mac packetDropIncorrectlyReceived:vector(packetBytes):sum 0
scalar WiredAndWirelessHostsWithAP.accessPoint.eth[1].mac packetDropIncorrectlyReceived:vector(packetBytes):sumweights 0
scalar WiredAndWirelessHostsWithAP.accessPoint.eth[1].mac packetDropIncorrectlyReceived:vector(packetBytes):mean -nan
scalar WiredAndWirelessHostsWithAP.accessPoint.eth[1].mac packetDropIncorrectlyReceived:vector(packetBytes):stddev nan
scalar WiredAndWirelessHostsWithAP.accessPoint.eth[1].mac packetDropIncorrectlyReceived:vector(packetBytes):min inf
scalar WiredAndWirelessHostsWithAP.accessPoint.eth[1].mac packetDropIncorrectlyReceived:vector(packetBytes):max -inf
scalar WiredAndWirelessHostsWithAP.accessPoint.eth[1].mac packetDropIncorrectlyReceived:vector(packetBytes):starttime nan
scalar WiredAndWirelessHostsWithAP.accessPoint.eth[1].mac packetDropIncorrectlyReceived:vector(packetBytes):endtime nan
scalar WiredAndWirelessHostsWithAP.accessPoint.eth[1].mac packetDropInterfaceDown:vector(packetBytes):count 0
scalar WiredAndWirelessHostsWithAP.accessPoint.eth[1].mac packetDropInterfaceDown:vector(packetBytes):sum 0
scalar WiredAndWirelessHostsWithAP.accessPoint.eth[1].mac packetDropInterfaceDown:vector(packetBytes):sumweights 0
scalar WiredAndWirelessHostsWithAP.accessPoint.eth[1].mac packetDropInterfaceDown:vector(packetBytes):mean -nan
scalar WiredAndWirelessHostsWithAP.accessPoint.eth[1].mac packetDropInterfaceDown:vector(packetBytes):stddev nan
scalar WiredAndWirelessHostsWithAP.accessPoint.eth[1].mac packetDropInterfaceDown:vector(packetBytes):min inf
scalar WiredAndWirelessHostsWithAP.accessPoint.eth[1].mac packetDropInterfaceDown:vector(packetBytes):max -inf
scalar WiredAndWirelessHostsWithAP.accessPoint.eth[1].mac packetDropInterfaceDown:vector(packetBytes):starttime nan
scalar WiredAndWirelessHostsWithAP.accessPoint.eth[1].mac packetDropInterfaceDown:vector(packetBytes):endtime nan
scalar WiredAndWirelessHostsWithAP.accessPoint.eth[1].mac packetDropNotAddressedToUs:vector(packetBytes):count 0
scalar WiredAndWirelessHostsWithAP.accessPoint.eth[1].mac packetDropNotAddressedToUs:vector(packetBytes):sum 0
scalar WiredAndWirelessHostsWithAP.accessPoint.eth[1].mac packetDropNotAddressedToUs:vector(packetBytes):sumweights 0
scalar WiredAndWirelessHostsWithAP.accessPoint.eth[1].mac packetDropNotAddressedToUs:vector(packetBytes):mean -nan
scalar WiredAndWirelessHostsWithAP.accessPoint.eth[1].mac packetDropNotAddressedToUs:vector(packetBytes):stddev nan
scalar WiredAndWirelessHostsWithAP.accessPoint.eth[1].mac packetDropNotAddressedToUs:vector(packetBytes):min inf
scalar WiredAndWirelessHostsWithAP.accessPoint.eth[1].mac packetDropNotAddressedToUs:vector(packetBytes):max -inf
scalar WiredAndWirelessHostsWithAP.accessPoint.eth[1].mac packetDropNotAddressedToUs:vector(packetBytes):starttime nan
scalar WiredAndWirelessHostsWithAP.accessPoint.eth[1].mac packetDropNotAddressedToUs:vector(packetBytes):endtime nan
scalar WiredAndWirelessHostsWithAP.accessPoint.eth[1] packetDropInterfaceDown:vector(packetBytes):count 0
scalar WiredAndWirelessHostsWithAP.accessPoint.eth[1] packetDropInterfaceDown:vector(packetBytes):sum 0
scalar WiredAndWirelessHostsWithAP.accessPoint.eth[1] packetDropInterfaceDown:vector(packetBytes):sumweights 0
scalar WiredAndWirelessHostsWithAP.accessPoint.eth[1] packetDropInterfaceDown:vector(packetBytes):mean -nan
scalar WiredAndWirelessHostsWithAP.accessPoint.eth[1] packetDropInterfaceDown:vector(packetBytes):stddev nan
scalar WiredAndWirelessHostsWithAP.accessPoint.eth[1] packetDropInterfaceDown:vector(packetBytes):min inf
scalar WiredAndWirelessHostsWithAP.accessPoint.eth[1] packetDropInterfaceDown:vector(packetBytes):max -inf
scalar WiredAndWirelessHostsWithAP.accessPoint.eth[1] packetDropInterfaceDown:vector(packetBytes):starttime nan
scalar WiredAndWirelessHostsWithAP.accessPoint.eth[1] packetDropInterfaceDown:vector(packetBytes):endtime nan
scalar WiredAndWirelessHostsWithAP.accessPoint.eth[1] packetDropNoCarrier:vector(packetBytes):count 0
scalar WiredAndWirelessHostsWithAP.accessPoint.eth[1] packetDropNoCarrier:vector(packetBytes):sum 0
scalar WiredAndWirelessHostsWithAP.accessPoint.eth[1] packetDropNoCarrier:vector(packetBytes):sumweights 0
scalar WiredAndWirelessHostsWithAP.accessPoint.eth[1] packetDropNoCarrier:vector(packetBytes):mean -nan
scalar WiredAndWirelessHostsWithAP.accessPoint.eth[1] packetDropNoCarrier:vector(packetBytes):stddev nan
scalar WiredAndWirelessHostsWithAP.accessPoint.eth[1] packetDropNoCarrier:vector(packetBytes):min inf
scalar WiredAndWirelessHostsWithAP.accessPoint.eth[1] packetDropNoCarrier:vector(packetBytes):max -inf
scalar WiredAndWirelessHostsWithAP.accessPoint.eth[1] packetDropNoCarrier:vector(packetBytes):starttime nan
scalar WiredAndWirelessHostsWithAP.accessPoint.eth[1] packetDropNoCarrier:vector(packetBytes):endtime nan

