version 3
run Wireless11-0-20251118-12:02:05-115561
attr configname Wireless11
attr datetime 20251118-12:02:05
attr datetimef 20251118-120205
attr experiment Wireless11
attr inifile omnetpp.ini
attr iterationvars ""
attr iterationvarsd ""
attr iterationvarsf ""
attr measurement ""
attr network WirelessC
attr processid 115561
attr repetition 0
attr replication #0
attr resultdir results
attr runnumber 0
attr seedset 0
config **.param-recording false
config image-path /home/zoli/Projects/OMNET/inet/images
config output-scalar-file results/omnetpp.ini-Wireless11-#0.sca
config output-scalar-precision 17
config output-vector-file results/omnetpp.ini-Wireless11-#0.vec
config output-vector-precision 17
config record-eventlog false
config sim-time-limit 20s
config description "Adding obstacles to the environment"
config extends Wireless10
config network WirelessC
config *.host*.mobility.initialZ 1.7m
config *.physicalEnvironment.config "xmldoc(\"walls.xml\")"
config *.radioMedium.obstacleLoss.typename IdealObstacleLoss
config description "Configuring ad-hoc routing (AODV)"
config extends Wireless09
config *.configurator.addStaticRoutes false
config *.host*.typename AodvRouter
config *.hostB.wlan[0].radio.displayCommunicationRange true
config *.visualizer.dataLinkVisualizer.packetFilter "\"AODV*\""
config description "Configuring node movements"
config extends Wireless08
config *.hostR*.mobility.typename LinearMobility
config *.hostR*.mobility.speed 12mps
config *.hostR*.mobility.initialMovementHeading 270deg
config *.host*.wlan[0].queue.packetCapacity 10
config *.visualizer.mobilityVisualizer.displayVelocities true
config *.visualizer.mobilityVisualizer.displayMovementTrails true
config description "Modeling energy consumption"
config extends Wireless07
config *.host*.wlan[0].radio.energyConsumer.typename StateBasedEpEnergyConsumer
config *.host*.wlan[0].radio.energyConsumer.offPowerConsumption 0mW
config *.host*.wlan[0].radio.energyConsumer.sleepPowerConsumption 1mW
config *.host*.wlan[0].radio.energyConsumer.switchingPowerConsumption 1mW
config *.host*.wlan[0].radio.energyConsumer.receiverIdlePowerConsumption 2mW
config *.host*.wlan[0].radio.energyConsumer.receiverBusyPowerConsumption 5mW
config *.host*.wlan[0].radio.energyConsumer.receiverReceivingPowerConsumption 10mW
config *.host*.wlan[0].radio.energyConsumer.transmitterIdlePowerConsumption 2mW
config *.host*.wlan[0].radio.energyConsumer.transmitterTransmittingPowerConsumption 100mW
config *.host*.energyStorage.typename IdealEpEnergyStorage
config *.host*.wlan[0].radio.displayInterferenceRange false
config *.hostR1.wlan[0].radio.displayCommunicationRange false
config *.visualizer.mediumVisualizer.displaySignals false
config description "Turning on ACKs in CSMA"
config extends Wireless06
config *.host*.wlan[0].mac.useAck true
config description "Using CSMA to better utilize the medium"
config extends Wireless05
config *.host*.wlan[0].typename WirelessInterface
config *.host*.wlan[0].radio.typename GenericRadio
config *.host*.wlan[0].mac.typename CsmaCaMac
config *.host*.wlan[0].mac.ackTimeout 300us
config *.host*.wlan[0].queue.typename DropTailQueue
config *.host*.wlan[0].queue.packetCapacity -1
config description "Taking interference into account"
config extends Wireless04
config *.host*.wlan[0].radio.receiver.ignoreInterference false
config *.host*.wlan[0].radio.transmitter.analogModel.interferenceRange 500m
config *.hostA.wlan[0].radio.displayInterferenceRange true
config *.visualizer.dataLinkVisualizer.packetFilter "\"\""
config description "Setting up static routing"
config extends Wireless03
config *.host*.forwarding true
config *.configurator.config "xml(\"<config><interface hosts='**' address='10.0.0.x' netmask='255.255.255.0'/><autoroute metric='errorRate'/></config>\")"
config *.configurator.optimizeRoutes false
config *.host*.ipv4.routingTable.netmaskRoutes "\"\""
config *.visualizer.physicalLinkVisualizer.displayLinks true
config *.visualizer.dataLinkVisualizer.displayLinks true
config *.visualizer.networkRouteVisualizer.displayRoutes true
config *.visualizer.*LinkVisualizer.lineShift 0
config *.visualizer.networkRouteVisualizer.lineShift 0
config *.visualizer.networkRouteVisualizer.packetFilter "\"UDPData*\""
config description "Adding more nodes and decreasing the communication range"
config extends Wireless02
config network WirelessB
config *.host*.wlan[0].radio.transmitter.analogModel.communicationRange 250m
config *.hostR1.wlan[0].radio.displayCommunicationRange true
config description "Setting up some animations"
config extends Wireless01
config *.hostA.wlan[0].radio.displayCommunicationRange true
config *.visualizer.sceneVisualizer.descriptionFigure "\"title\""
config *.visualizer.mediumVisualizer.displaySignals true
config *.visualizer.physicalLinkVisualizer.displayLinks true
config *.visualizer.physicalLinkVisualizer.packetFilter "\"UDPData*\""
config description "Two hosts communicating wirelessly"
config network WirelessA
config sim-time-limit 20s
config *.radioMedium.signalAnalogRepresentation "\"unitDisk\""
config *.host*.ipv4.arp.typename GlobalArp
config *.hostA.numApps 1
config *.hostA.app[0].typename UdpBasicApp
config *.hostA.app[0].destAddresses "\"hostB\""
config *.hostA.app[0].destPort 5000
config *.hostA.app[0].messageLength 1000B
config *.hostA.app[0].sendInterval exponential(12ms)
config *.hostA.app[0].packetName "\"UDPData\""
config *.hostB.numApps 1
config *.hostB.app[0].typename UdpSink
config *.hostB.app[0].localPort 5000
config *.host*.wlan[0].typename AckingWirelessInterface
config *.host*.wlan[0].mac.useAck false
config *.host*.wlan[0].mac.fullDuplex false
config *.host*.wlan[0].radio.signalAnalogRepresentation "\"unitDisk\""
config *.host*.wlan[0].radio.transmitter.analogModel.communicationRange 500m
config *.host*.wlan[0].radio.receiver.ignoreInterference true
config *.host*.wlan[0].mac.headerLength 23B
config *.host*.**.bitrate 1Mbps

scalar WirelessC.radioMedium.propagation "Arrival computation count" 12936
scalar WirelessC.radioMedium "transmission count" 3234
scalar WirelessC.radioMedium "signal send count" 12936
scalar WirelessC.radioMedium "reception computation count" 12936
scalar WirelessC.radioMedium "interference computation count" 39595
scalar WirelessC.radioMedium "reception decision computation count" 7064
scalar WirelessC.radioMedium "listening decision computation count" 20078
scalar WirelessC.radioMedium "reception cache hit" 82.801760240371195
scalar WirelessC.radioMedium "interference cache hit" 66.666666666666671
scalar WirelessC.radioMedium "noise cache hit" 0
scalar WirelessC.radioMedium "snir cache hit" 50
scalar WirelessC.radioMedium "reception decision cache hit" 50
scalar WirelessC.radioMedium "reception result cache hit" 0
scalar WirelessC.hostA.energyStorage residualEnergyCapacity:last -0.97038090214655537
scalar WirelessC.hostA.lo[0].lo rcvdPkFromHl:count 0
scalar WirelessC.hostA.lo[0].lo rcvdPkFromHl:sum(packetBytes) 0
scalar WirelessC.hostA.lo[0].lo passedUpPk:count 0
scalar WirelessC.hostA.lo[0].lo passedUpPk:sum(packetBytes) 0
scalar WirelessC.hostA.lo[0] packetDropInterfaceDown:count 0
scalar WirelessC.hostA.lo[0] packetDropInterfaceDown:sum(packetBytes) 0
scalar WirelessC.hostA.lo[0] packetDropNoCarrier:count 0
scalar WirelessC.hostA.lo[0] packetDropNoCarrier:sum(packetBytes) 0
scalar WirelessC.hostA.wlan[0].queue queueLength:last 10
scalar WirelessC.hostA.wlan[0].queue queueLength:max 10
scalar WirelessC.hostA.wlan[0].queue queueLength:timeavg 5.8672303754732571
scalar WirelessC.hostA.wlan[0].queue queueBitLength:last 82240
scalar WirelessC.hostA.wlan[0].queue queueBitLength:max 82240
scalar WirelessC.hostA.wlan[0].queue queueBitLength:timeavg 45911.085312236297
scalar WirelessC.hostA.wlan[0].queue outgoingPackets:count 657
scalar WirelessC.hostA.wlan[0].queue outgoingPacketLengths:sum 5247168
scalar WirelessC.hostA.wlan[0].queue incomingPackets:count 1629
scalar WirelessC.hostA.wlan[0].queue incomingPacketLengths:sum 13201888
scalar WirelessC.hostA.wlan[0].queue droppedPacketsQueueOverflow:count 962
scalar WirelessC.hostA.wlan[0].queue droppedPacketLengthsQueueOverflow:sum 7872480
scalar WirelessC.hostA.wlan[0].mac numRetry 431
scalar WirelessC.hostA.wlan[0].mac numSentWithoutRetry 462
scalar WirelessC.hostA.wlan[0].mac numGivenUp 27
scalar WirelessC.hostA.wlan[0].mac numCollision 2
scalar WirelessC.hostA.wlan[0].mac numSent 609
scalar WirelessC.hostA.wlan[0].mac numReceived 7
scalar WirelessC.hostA.wlan[0].mac numSentBroadcast 20
scalar WirelessC.hostA.wlan[0].mac numReceivedBroadcast 10
scalar WirelessC.hostA.wlan[0].mac packetDropIncorrectlyReceived:count 2
scalar WirelessC.hostA.wlan[0].mac packetDropIncorrectlyReceived:sum(packetBytes) 2110
scalar WirelessC.hostA.wlan[0].mac packetDropNotAddressedToUs:count 488
scalar WirelessC.hostA.wlan[0].mac packetDropNotAddressedToUs:sum(packetBytes) 514840
scalar WirelessC.hostA.wlan[0].mac packetDropQueueOverflow:count 0
scalar WirelessC.hostA.wlan[0].mac packetDropQueueOverflow:sum(packetBytes) 0
scalar WirelessC.hostA.wlan[0].mac packetDropRetryLimitReached:count 27
scalar WirelessC.hostA.wlan[0].mac packetDropRetryLimitReached:sum(packetBytes) 28485
scalar WirelessC.hostA.wlan[0].mac linkBroken:count 27
scalar WirelessC.hostA.wlan[0].radio radioMode:count 2191
scalar WirelessC.hostA.wlan[0].radio receptionState:count 4711
scalar WirelessC.hostA.wlan[0].radio transmissionState:count 4376
scalar WirelessC.hostA.wlan[0] packetDropInterfaceDown:count 0
scalar WirelessC.hostA.wlan[0] packetDropInterfaceDown:sum(packetBytes) 0
scalar WirelessC.hostA.wlan[0] packetDropNoCarrier:count 0
scalar WirelessC.hostA.wlan[0] packetDropNoCarrier:sum(packetBytes) 0
scalar WirelessC.hostA.ipv4.ip packetDropAddressResolutionFailed:count 0
scalar WirelessC.hostA.ipv4.ip packetDropAddressResolutionFailed:sum(packetBytes) 0
scalar WirelessC.hostA.ipv4.ip packetDropHopLimitReached:count 0
scalar WirelessC.hostA.ipv4.ip packetDropHopLimitReached:sum(packetBytes) 0
scalar WirelessC.hostA.ipv4.ip packetDropForwardingDisabled:count 0
scalar WirelessC.hostA.ipv4.ip packetDropForwardingDisabled:sum(packetBytes) 0
scalar WirelessC.hostA.ipv4.ip packetDropLifetimeExpired:count 0
scalar WirelessC.hostA.ipv4.ip packetDropLifetimeExpired:sum(packetBytes) 0
scalar WirelessC.hostA.ipv4.ip packetDropNoInterfaceFound:count 0
scalar WirelessC.hostA.ipv4.ip packetDropNoInterfaceFound:sum(packetBytes) 0
scalar WirelessC.hostA.ipv4.ip packetDropNoRouteFound:count 0
scalar WirelessC.hostA.ipv4.ip packetDropNoRouteFound:sum(packetBytes) 0
scalar WirelessC.hostA.ipv4.ip packetDropUndefined:count 0
scalar WirelessC.hostA.ipv4.ip packetDropUndefined:sum(packetBytes) 0
scalar WirelessC.hostA.udp packetReceived:count 17
scalar WirelessC.hostA.udp packetReceived:sum(packetBytes) 516
scalar WirelessC.hostA.udp packetSent:count 1629
scalar WirelessC.hostA.udp packetSent:sum(packetBytes) 1617656
scalar WirelessC.hostA.udp passedUpPk:count 17
scalar WirelessC.hostA.udp droppedPkWrongPort:count 0
scalar WirelessC.hostA.udp droppedPkBadChecksum:count 0
scalar WirelessC.hostA.app[0] "packets sent" 1604
scalar WirelessC.hostA.app[0] "packets received" 0
scalar WirelessC.hostA.app[0] packetReceived:count 0
scalar WirelessC.hostA.app[0] packetReceived:sum(packetBytes) 0
scalar WirelessC.hostA.app[0] packetSent:count 1604
scalar WirelessC.hostA.app[0] packetSent:sum(packetBytes) 1604000
scalar WirelessC.hostB.energyStorage residualEnergyCapacity:last -0.092637635868092261
scalar WirelessC.hostB.lo[0].lo rcvdPkFromHl:count 0
scalar WirelessC.hostB.lo[0].lo rcvdPkFromHl:sum(packetBytes) 0
scalar WirelessC.hostB.lo[0].lo passedUpPk:count 0
scalar WirelessC.hostB.lo[0].lo passedUpPk:sum(packetBytes) 0
scalar WirelessC.hostB.lo[0] packetDropInterfaceDown:count 0
scalar WirelessC.hostB.lo[0] packetDropInterfaceDown:sum(packetBytes) 0
scalar WirelessC.hostB.lo[0] packetDropNoCarrier:count 0
scalar WirelessC.hostB.lo[0] packetDropNoCarrier:sum(packetBytes) 0
scalar WirelessC.hostB.wlan[0].queue queueLength:last 0
scalar WirelessC.hostB.wlan[0].queue queueLength:max 0
scalar WirelessC.hostB.wlan[0].queue queueLength:timeavg 0
scalar WirelessC.hostB.wlan[0].queue queueBitLength:last 0
scalar WirelessC.hostB.wlan[0].queue queueBitLength:max 0
scalar WirelessC.hostB.wlan[0].queue queueBitLength:timeavg 0
scalar WirelessC.hostB.wlan[0].queue outgoingPackets:count 7
scalar WirelessC.hostB.wlan[0].queue outgoingPacketLengths:sum 2688
scalar WirelessC.hostB.wlan[0].queue incomingPackets:count 7
scalar WirelessC.hostB.wlan[0].queue incomingPacketLengths:sum 2688
scalar WirelessC.hostB.wlan[0].queue droppedPacketsQueueOverflow:count 0
scalar WirelessC.hostB.wlan[0].queue droppedPacketLengthsQueueOverflow:sum 0
scalar WirelessC.hostB.wlan[0].mac numRetry 0
scalar WirelessC.hostB.wlan[0].mac numSentWithoutRetry 7
scalar WirelessC.hostB.wlan[0].mac numGivenUp 0
scalar WirelessC.hostB.wlan[0].mac numCollision 5
scalar WirelessC.hostB.wlan[0].mac numSent 7
scalar WirelessC.hostB.wlan[0].mac numReceived 475
scalar WirelessC.hostB.wlan[0].mac numSentBroadcast 0
scalar WirelessC.hostB.wlan[0].mac numReceivedBroadcast 9
scalar WirelessC.hostB.wlan[0].mac packetDropIncorrectlyReceived:count 5
scalar WirelessC.hostB.wlan[0].mac packetDropIncorrectlyReceived:sum(packetBytes) 4299
scalar WirelessC.hostB.wlan[0].mac packetDropNotAddressedToUs:count 7
scalar WirelessC.hostB.wlan[0].mac packetDropNotAddressedToUs:sum(packetBytes) 525
scalar WirelessC.hostB.wlan[0].mac packetDropQueueOverflow:count 0
scalar WirelessC.hostB.wlan[0].mac packetDropQueueOverflow:sum(packetBytes) 0
scalar WirelessC.hostB.wlan[0].mac packetDropRetryLimitReached:count 0
scalar WirelessC.hostB.wlan[0].mac packetDropRetryLimitReached:sum(packetBytes) 0
scalar WirelessC.hostB.wlan[0].mac linkBroken:count 0
scalar WirelessC.hostB.wlan[0].radio radioMode:count 967
scalar WirelessC.hostB.wlan[0].radio receptionState:count 4275
scalar WirelessC.hostB.wlan[0].radio transmissionState:count 1928
scalar WirelessC.hostB.wlan[0] packetDropInterfaceDown:count 0
scalar WirelessC.hostB.wlan[0] packetDropInterfaceDown:sum(packetBytes) 0
scalar WirelessC.hostB.wlan[0] packetDropNoCarrier:count 0
scalar WirelessC.hostB.wlan[0] packetDropNoCarrier:sum(packetBytes) 0
scalar WirelessC.hostB.ipv4.ip packetDropAddressResolutionFailed:count 0
scalar WirelessC.hostB.ipv4.ip packetDropAddressResolutionFailed:sum(packetBytes) 0
scalar WirelessC.hostB.ipv4.ip packetDropHopLimitReached:count 0
scalar WirelessC.hostB.ipv4.ip packetDropHopLimitReached:sum(packetBytes) 0
scalar WirelessC.hostB.ipv4.ip packetDropForwardingDisabled:count 0
scalar WirelessC.hostB.ipv4.ip packetDropForwardingDisabled:sum(packetBytes) 0
scalar WirelessC.hostB.ipv4.ip packetDropLifetimeExpired:count 0
scalar WirelessC.hostB.ipv4.ip packetDropLifetimeExpired:sum(packetBytes) 0
scalar WirelessC.hostB.ipv4.ip packetDropNoInterfaceFound:count 0
scalar WirelessC.hostB.ipv4.ip packetDropNoInterfaceFound:sum(packetBytes) 0
scalar WirelessC.hostB.ipv4.ip packetDropNoRouteFound:count 0
scalar WirelessC.hostB.ipv4.ip packetDropNoRouteFound:sum(packetBytes) 0
scalar WirelessC.hostB.ipv4.ip packetDropUndefined:count 0
scalar WirelessC.hostB.ipv4.ip packetDropUndefined:sum(packetBytes) 0
scalar WirelessC.hostB.udp packetReceived:count 484
scalar WirelessC.hostB.udp packetReceived:sum(packetBytes) 479088
scalar WirelessC.hostB.udp packetSent:count 7
scalar WirelessC.hostB.udp packetSent:sum(packetBytes) 196
scalar WirelessC.hostB.udp passedUpPk:count 484
scalar WirelessC.hostB.udp droppedPkWrongPort:count 0
scalar WirelessC.hostB.udp droppedPkBadChecksum:count 0
scalar WirelessC.hostB.app[0] packetReceived:count 475
scalar WirelessC.hostB.app[0] packetReceived:sum(packetBytes) 475000
scalar WirelessC.hostR1.energyStorage residualEnergyCapacity:last -0.37536993061310925
scalar WirelessC.hostR1.lo[0].lo rcvdPkFromHl:count 0
scalar WirelessC.hostR1.lo[0].lo rcvdPkFromHl:sum(packetBytes) 0
scalar WirelessC.hostR1.lo[0].lo passedUpPk:count 0
scalar WirelessC.hostR1.lo[0].lo passedUpPk:sum(packetBytes) 0
scalar WirelessC.hostR1.lo[0] packetDropInterfaceDown:count 0
scalar WirelessC.hostR1.lo[0] packetDropInterfaceDown:sum(packetBytes) 0
scalar WirelessC.hostR1.lo[0] packetDropNoCarrier:count 0
scalar WirelessC.hostR1.lo[0] packetDropNoCarrier:sum(packetBytes) 0
scalar WirelessC.hostR1.wlan[0].queue queueLength:last 0
scalar WirelessC.hostR1.wlan[0].queue queueLength:max 10
scalar WirelessC.hostR1.wlan[0].queue queueLength:timeavg 2.5109886426296009
scalar WirelessC.hostR1.wlan[0].queue queueBitLength:last 0
scalar WirelessC.hostR1.wlan[0].queue queueBitLength:max 82240
scalar WirelessC.hostR1.wlan[0].queue queueBitLength:timeavg 20580.753764519053
scalar WirelessC.hostR1.wlan[0].queue outgoingPackets:count 203
scalar WirelessC.hostR1.wlan[0].queue outgoingPacketLengths:sum 1583488
scalar WirelessC.hostR1.wlan[0].queue incomingPackets:count 429
scalar WirelessC.hostR1.wlan[0].queue incomingPacketLengths:sum 3442112
scalar WirelessC.hostR1.wlan[0].queue droppedPacketsQueueOverflow:count 226
scalar WirelessC.hostR1.wlan[0].queue droppedPacketLengthsQueueOverflow:sum 1858624
scalar WirelessC.hostR1.wlan[0].mac numRetry 111
scalar WirelessC.hostR1.wlan[0].mac numSentWithoutRetry 131
scalar WirelessC.hostR1.wlan[0].mac numGivenUp 2
scalar WirelessC.hostR1.wlan[0].mac numCollision 137
scalar WirelessC.hostR1.wlan[0].mac numSent 192
scalar WirelessC.hostR1.wlan[0].mac numReceived 420
scalar WirelessC.hostR1.wlan[0].mac numSentBroadcast 9
scalar WirelessC.hostR1.wlan[0].mac numReceivedBroadcast 18
scalar WirelessC.hostR1.wlan[0].mac packetDropIncorrectlyReceived:count 137
scalar WirelessC.hostR1.wlan[0].mac packetDropIncorrectlyReceived:sum(packetBytes) 114462
scalar WirelessC.hostR1.wlan[0].mac packetDropNotAddressedToUs:count 358
scalar WirelessC.hostR1.wlan[0].mac packetDropNotAddressedToUs:sum(packetBytes) 365930
scalar WirelessC.hostR1.wlan[0].mac packetDropQueueOverflow:count 0
scalar WirelessC.hostR1.wlan[0].mac packetDropQueueOverflow:sum(packetBytes) 0
scalar WirelessC.hostR1.wlan[0].mac packetDropRetryLimitReached:count 2
scalar WirelessC.hostR1.wlan[0].mac packetDropRetryLimitReached:sum(packetBytes) 2110
scalar WirelessC.hostR1.wlan[0].mac linkBroken:count 2
scalar WirelessC.hostR1.wlan[0].radio radioMode:count 1471
scalar WirelessC.hostR1.wlan[0].radio receptionState:count 5743
scalar WirelessC.hostR1.wlan[0].radio transmissionState:count 2936
scalar WirelessC.hostR1.wlan[0] packetDropInterfaceDown:count 0
scalar WirelessC.hostR1.wlan[0] packetDropInterfaceDown:sum(packetBytes) 0
scalar WirelessC.hostR1.wlan[0] packetDropNoCarrier:count 0
scalar WirelessC.hostR1.wlan[0] packetDropNoCarrier:sum(packetBytes) 0
scalar WirelessC.hostR1.ipv4.ip packetDropAddressResolutionFailed:count 0
scalar WirelessC.hostR1.ipv4.ip packetDropAddressResolutionFailed:sum(packetBytes) 0
scalar WirelessC.hostR1.ipv4.ip packetDropHopLimitReached:count 0
scalar WirelessC.hostR1.ipv4.ip packetDropHopLimitReached:sum(packetBytes) 0
scalar WirelessC.hostR1.ipv4.ip packetDropForwardingDisabled:count 0
scalar WirelessC.hostR1.ipv4.ip packetDropForwardingDisabled:sum(packetBytes) 0
scalar WirelessC.hostR1.ipv4.ip packetDropLifetimeExpired:count 0
scalar WirelessC.hostR1.ipv4.ip packetDropLifetimeExpired:sum(packetBytes) 0
scalar WirelessC.hostR1.ipv4.ip packetDropNoInterfaceFound:count 0
scalar WirelessC.hostR1.ipv4.ip packetDropNoInterfaceFound:sum(packetBytes) 0
scalar WirelessC.hostR1.ipv4.ip packetDropNoRouteFound:count 0
scalar WirelessC.hostR1.ipv4.ip packetDropNoRouteFound:sum(packetBytes) 0
scalar WirelessC.hostR1.ipv4.ip packetDropUndefined:count 0
scalar WirelessC.hostR1.ipv4.ip packetDropUndefined:sum(packetBytes) 0
scalar WirelessC.hostR1.udp packetReceived:count 20
scalar WirelessC.hostR1.udp packetReceived:sum(packetBytes) 636
scalar WirelessC.hostR1.udp packetSent:count 11
scalar WirelessC.hostR1.udp packetSent:sum(packetBytes) 340
scalar WirelessC.hostR1.udp passedUpPk:count 20
scalar WirelessC.hostR1.udp droppedPkWrongPort:count 0
scalar WirelessC.hostR1.udp droppedPkBadChecksum:count 0
scalar WirelessC.hostR2.energyStorage residualEnergyCapacity:last -0.31184549802151457
scalar WirelessC.hostR2.lo[0].lo rcvdPkFromHl:count 0
scalar WirelessC.hostR2.lo[0].lo rcvdPkFromHl:sum(packetBytes) 0
scalar WirelessC.hostR2.lo[0].lo passedUpPk:count 0
scalar WirelessC.hostR2.lo[0].lo passedUpPk:sum(packetBytes) 0
scalar WirelessC.hostR2.lo[0] packetDropInterfaceDown:count 0
scalar WirelessC.hostR2.lo[0] packetDropInterfaceDown:sum(packetBytes) 0
scalar WirelessC.hostR2.lo[0] packetDropNoCarrier:count 0
scalar WirelessC.hostR2.lo[0] packetDropNoCarrier:sum(packetBytes) 0
scalar WirelessC.hostR2.wlan[0].queue queueLength:last 1
scalar WirelessC.hostR2.wlan[0].queue queueLength:max 10
scalar WirelessC.hostR2.wlan[0].queue queueLength:timeavg 0.83285122878184925
scalar WirelessC.hostR2.wlan[0].queue queueBitLength:last 8224
scalar WirelessC.hostR2.wlan[0].queue queueBitLength:max 82240
scalar WirelessC.hostR2.wlan[0].queue queueBitLength:timeavg 6806.4952525828194
scalar WirelessC.hostR2.wlan[0].queue outgoingPackets:count 218
scalar WirelessC.hostR2.wlan[0].queue outgoingPacketLengths:sum 1675520
scalar WirelessC.hostR2.wlan[0].queue incomingPackets:count 243
scalar WirelessC.hostR2.wlan[0].queue incomingPacketLengths:sum 1881120
scalar WirelessC.hostR2.wlan[0].queue droppedPacketsQueueOverflow:count 24
scalar WirelessC.hostR2.wlan[0].queue droppedPacketLengthsQueueOverflow:sum 197376
scalar WirelessC.hostR2.wlan[0].mac numRetry 52
scalar WirelessC.hostR2.wlan[0].mac numSentWithoutRetry 171
scalar WirelessC.hostR2.wlan[0].mac numGivenUp 0
scalar WirelessC.hostR2.wlan[0].mac numCollision 185
scalar WirelessC.hostR2.wlan[0].mac numSent 208
scalar WirelessC.hostR2.wlan[0].mac numReceived 234
scalar WirelessC.hostR2.wlan[0].mac numSentBroadcast 9
scalar WirelessC.hostR2.wlan[0].mac numReceivedBroadcast 24
scalar WirelessC.hostR2.wlan[0].mac packetDropIncorrectlyReceived:count 185
scalar WirelessC.hostR2.wlan[0].mac packetDropIncorrectlyReceived:sum(packetBytes) 194199
scalar WirelessC.hostR2.wlan[0].mac packetDropNotAddressedToUs:count 328
scalar WirelessC.hostR2.wlan[0].mac packetDropNotAddressedToUs:sum(packetBytes) 345060
scalar WirelessC.hostR2.wlan[0].mac packetDropQueueOverflow:count 0
scalar WirelessC.hostR2.wlan[0].mac packetDropQueueOverflow:sum(packetBytes) 0
scalar WirelessC.hostR2.wlan[0].mac packetDropRetryLimitReached:count 0
scalar WirelessC.hostR2.wlan[0].mac packetDropRetryLimitReached:sum(packetBytes) 0
scalar WirelessC.hostR2.wlan[0].mac linkBroken:count 0
scalar WirelessC.hostR2.wlan[0].radio radioMode:count 1009
scalar WirelessC.hostR2.wlan[0].radio receptionState:count 4706
scalar WirelessC.hostR2.wlan[0].radio transmissionState:count 2012
scalar WirelessC.hostR2.wlan[0] packetDropInterfaceDown:count 0
scalar WirelessC.hostR2.wlan[0] packetDropInterfaceDown:sum(packetBytes) 0
scalar WirelessC.hostR2.wlan[0] packetDropNoCarrier:count 0
scalar WirelessC.hostR2.wlan[0] packetDropNoCarrier:sum(packetBytes) 0
scalar WirelessC.hostR2.ipv4.ip packetDropAddressResolutionFailed:count 0
scalar WirelessC.hostR2.ipv4.ip packetDropAddressResolutionFailed:sum(packetBytes) 0
scalar WirelessC.hostR2.ipv4.ip packetDropHopLimitReached:count 0
scalar WirelessC.hostR2.ipv4.ip packetDropHopLimitReached:sum(packetBytes) 0
scalar WirelessC.hostR2.ipv4.ip packetDropForwardingDisabled:count 0
scalar WirelessC.hostR2.ipv4.ip packetDropForwardingDisabled:sum(packetBytes) 0
scalar WirelessC.hostR2.ipv4.ip packetDropLifetimeExpired:count 0
scalar WirelessC.hostR2.ipv4.ip packetDropLifetimeExpired:sum(packetBytes) 0
scalar WirelessC.hostR2.ipv4.ip packetDropNoInterfaceFound:count 0
scalar WirelessC.hostR2.ipv4.ip packetDropNoInterfaceFound:sum(packetBytes) 0
scalar WirelessC.hostR2.ipv4.ip packetDropNoRouteFound:count 0
scalar WirelessC.hostR2.ipv4.ip packetDropNoRouteFound:sum(packetBytes) 0
scalar WirelessC.hostR2.ipv4.ip packetDropUndefined:count 0
scalar WirelessC.hostR2.ipv4.ip packetDropUndefined:sum(packetBytes) 0
scalar WirelessC.hostR2.udp packetReceived:count 30
scalar WirelessC.hostR2.udp packetReceived:sum(packetBytes) 940
scalar WirelessC.hostR2.udp packetSent:count 15
scalar WirelessC.hostR2.udp packetSent:sum(packetBytes) 456
scalar WirelessC.hostR2.udp passedUpPk:count 30
scalar WirelessC.hostR2.udp droppedPkWrongPort:count 0
scalar WirelessC.hostR2.udp droppedPkBadChecksum:count 0
scalar WirelessC.hostR3.energyStorage residualEnergyCapacity:last -0.24708259716646924
scalar WirelessC.hostR3.lo[0].lo rcvdPkFromHl:count 0
scalar WirelessC.hostR3.lo[0].lo rcvdPkFromHl:sum(packetBytes) 0
scalar WirelessC.hostR3.lo[0].lo passedUpPk:count 0
scalar WirelessC.hostR3.lo[0].lo passedUpPk:sum(packetBytes) 0
scalar WirelessC.hostR3.lo[0] packetDropInterfaceDown:count 0
scalar WirelessC.hostR3.lo[0] packetDropInterfaceDown:sum(packetBytes) 0
scalar WirelessC.hostR3.lo[0] packetDropNoCarrier:count 0
scalar WirelessC.hostR3.lo[0] packetDropNoCarrier:sum(packetBytes) 0
scalar WirelessC.hostR3.wlan[0].queue queueLength:last 10
scalar WirelessC.hostR3.wlan[0].queue queueLength:max 10
scalar WirelessC.hostR3.wlan[0].queue queueLength:timeavg 0.44113753124014998
scalar WirelessC.hostR3.wlan[0].queue queueBitLength:last 82240
scalar WirelessC.hostR3.wlan[0].queue queueBitLength:max 82240
scalar WirelessC.hostR3.wlan[0].queue queueBitLength:timeavg 3622.5036446798695
scalar WirelessC.hostR3.wlan[0].queue outgoingPackets:count 187
scalar WirelessC.hostR3.wlan[0].queue outgoingPacketLengths:sum 1444032
scalar WirelessC.hostR3.wlan[0].queue incomingPackets:count 225
scalar WirelessC.hostR3.wlan[0].queue incomingPacketLengths:sum 1756544
scalar WirelessC.hostR3.wlan[0].queue droppedPacketsQueueOverflow:count 28
scalar WirelessC.hostR3.wlan[0].queue droppedPacketLengthsQueueOverflow:sum 230272
scalar WirelessC.hostR3.wlan[0].mac numRetry 16
scalar WirelessC.hostR3.wlan[0].mac numSentWithoutRetry 168
scalar WirelessC.hostR3.wlan[0].mac numGivenUp 0
scalar WirelessC.hostR3.wlan[0].mac numCollision 2
scalar WirelessC.hostR3.wlan[0].mac numSent 179
scalar WirelessC.hostR3.wlan[0].mac numReceived 218
scalar WirelessC.hostR3.wlan[0].mac numSentBroadcast 7
scalar WirelessC.hostR3.wlan[0].mac numReceivedBroadcast 17
scalar WirelessC.hostR3.wlan[0].mac packetDropIncorrectlyReceived:count 2
scalar WirelessC.hostR3.wlan[0].mac packetDropIncorrectlyReceived:sum(packetBytes) 2110
scalar WirelessC.hostR3.wlan[0].mac packetDropNotAddressedToUs:count 348
scalar WirelessC.hostR3.wlan[0].mac packetDropNotAddressedToUs:sum(packetBytes) 357340
scalar WirelessC.hostR3.wlan[0].mac packetDropQueueOverflow:count 0
scalar WirelessC.hostR3.wlan[0].mac packetDropQueueOverflow:sum(packetBytes) 0
scalar WirelessC.hostR3.wlan[0].mac packetDropRetryLimitReached:count 0
scalar WirelessC.hostR3.wlan[0].mac packetDropRetryLimitReached:sum(packetBytes) 0
scalar WirelessC.hostR3.wlan[0].mac linkBroken:count 0
scalar WirelessC.hostR3.wlan[0].radio radioMode:count 844
scalar WirelessC.hostR3.wlan[0].radio receptionState:count 4431
scalar WirelessC.hostR3.wlan[0].radio transmissionState:count 1682
scalar WirelessC.hostR3.wlan[0] packetDropInterfaceDown:count 0
scalar WirelessC.hostR3.wlan[0] packetDropInterfaceDown:sum(packetBytes) 0
scalar WirelessC.hostR3.wlan[0] packetDropNoCarrier:count 0
scalar WirelessC.hostR3.wlan[0] packetDropNoCarrier:sum(packetBytes) 0
scalar WirelessC.hostR3.ipv4.ip packetDropAddressResolutionFailed:count 0
scalar WirelessC.hostR3.ipv4.ip packetDropAddressResolutionFailed:sum(packetBytes) 0
scalar WirelessC.hostR3.ipv4.ip packetDropHopLimitReached:count 0
scalar WirelessC.hostR3.ipv4.ip packetDropHopLimitReached:sum(packetBytes) 0
scalar WirelessC.hostR3.ipv4.ip packetDropForwardingDisabled:count 0
scalar WirelessC.hostR3.ipv4.ip packetDropForwardingDisabled:sum(packetBytes) 0
scalar WirelessC.hostR3.ipv4.ip packetDropLifetimeExpired:count 0
scalar WirelessC.hostR3.ipv4.ip packetDropLifetimeExpired:sum(packetBytes) 0
scalar WirelessC.hostR3.ipv4.ip packetDropNoInterfaceFound:count 0
scalar WirelessC.hostR3.ipv4.ip packetDropNoInterfaceFound:sum(packetBytes) 0
scalar WirelessC.hostR3.ipv4.ip packetDropNoRouteFound:count 0
scalar WirelessC.hostR3.ipv4.ip packetDropNoRouteFound:sum(packetBytes) 0
scalar WirelessC.hostR3.ipv4.ip packetDropUndefined:count 0
scalar WirelessC.hostR3.ipv4.ip packetDropUndefined:sum(packetBytes) 0
scalar WirelessC.hostR3.udp packetReceived:count 22
scalar WirelessC.hostR3.udp packetReceived:sum(packetBytes) 680
scalar WirelessC.hostR3.udp packetSent:count 12
scalar WirelessC.hostR3.udp packetSent:sum(packetBytes) 364
scalar WirelessC.hostR3.udp passedUpPk:count 22
scalar WirelessC.hostR3.udp droppedPkWrongPort:count 0
scalar WirelessC.hostR3.udp droppedPkBadChecksum:count 0
scalar WirelessC.hostA.app[0] rcvdPkLifetime:stats:count 0
scalar WirelessC.hostA.app[0] rcvdPkLifetime:stats:sumweights 0
scalar WirelessC.hostA.app[0] rcvdPkLifetime:stats:mean -nan
scalar WirelessC.hostA.app[0] rcvdPkLifetime:stats:stddev nan
scalar WirelessC.hostA.app[0] rcvdPkLifetime:stats:min nan
scalar WirelessC.hostA.app[0] rcvdPkLifetime:stats:max nan
scalar WirelessC.hostA.app[0] rcvdPkLifetime:stats:numbins 0
scalar WirelessC.hostA.wlan[0].queue queueingTime:histogram:count 657
scalar WirelessC.hostA.wlan[0].queue queueingTime:histogram:sumweights 657
scalar WirelessC.hostA.wlan[0].queue queueingTime:histogram:mean 0.17749215419924946
scalar WirelessC.hostA.wlan[0].queue queueingTime:histogram:stddev 0.17521468312882157
scalar WirelessC.hostA.wlan[0].queue queueingTime:histogram:min 0
scalar WirelessC.hostA.wlan[0].queue queueingTime:histogram:max 1.257036086294
scalar WirelessC.hostA.wlan[0].queue queueingTime:histogram:numbins 68
scalar WirelessC.hostA.wlan[0].queue queueingTime:histogram:rangemin 0
scalar WirelessC.hostA.wlan[0].queue queueingTime:histogram:rangemax 1.3600000000000001
scalar WirelessC.hostA.wlan[0].queue queueingTime:histogram:underflows 0
scalar WirelessC.hostA.wlan[0].queue queueingTime:histogram:overflows 0
scalar WirelessC.hostA.wlan[0].queue outgoingPacketLengths:histogram:count 657
scalar WirelessC.hostA.wlan[0].queue outgoingPacketLengths:histogram:sumweights 657
scalar WirelessC.hostA.wlan[0].queue outgoingPacketLengths:histogram:mean 7986.5570776255709
scalar WirelessC.hostA.wlan[0].queue outgoingPacketLengths:histogram:stddev 1341.0513850111138
scalar WirelessC.hostA.wlan[0].queue outgoingPacketLengths:histogram:min 416
scalar WirelessC.hostA.wlan[0].queue outgoingPacketLengths:histogram:max 8224
scalar WirelessC.hostA.wlan[0].queue outgoingPacketLengths:histogram:numbins 51
scalar WirelessC.hostA.wlan[0].queue outgoingPacketLengths:histogram:rangemin 0
scalar WirelessC.hostA.wlan[0].queue outgoingPacketLengths:histogram:rangemax 10200
scalar WirelessC.hostA.wlan[0].queue outgoingPacketLengths:histogram:underflows 0
scalar WirelessC.hostA.wlan[0].queue outgoingPacketLengths:histogram:overflows 0
scalar WirelessC.hostA.wlan[0].queue flowQueueingTime:histogram:count 0
scalar WirelessC.hostA.wlan[0].queue flowQueueingTime:histogram:sumweights 0
scalar WirelessC.hostA.wlan[0].queue flowQueueingTime:histogram:mean -nan
scalar WirelessC.hostA.wlan[0].queue flowQueueingTime:histogram:stddev nan
scalar WirelessC.hostA.wlan[0].queue flowQueueingTime:histogram:min nan
scalar WirelessC.hostA.wlan[0].queue flowQueueingTime:histogram:max nan
scalar WirelessC.hostA.wlan[0].queue flowQueueingTime:histogram:numbins 1
scalar WirelessC.hostA.wlan[0].queue flowQueueingTime:histogram:rangemin 0
scalar WirelessC.hostA.wlan[0].queue flowQueueingTime:histogram:rangemax 1
scalar WirelessC.hostA.wlan[0].queue flowQueueingTime:histogram:underflows 0
scalar WirelessC.hostA.wlan[0].queue flowQueueingTime:histogram:overflows 0
scalar WirelessC.hostA.wlan[0].queue incomingPacketLengths:histogram:count 1629
scalar WirelessC.hostA.wlan[0].queue incomingPacketLengths:histogram:sumweights 1629
scalar WirelessC.hostA.wlan[0].queue incomingPacketLengths:histogram:mean 8104.2897483118477
scalar WirelessC.hostA.wlan[0].queue incomingPacketLengths:histogram:stddev 959.17431451524942
scalar WirelessC.hostA.wlan[0].queue incomingPacketLengths:histogram:min 416
scalar WirelessC.hostA.wlan[0].queue incomingPacketLengths:histogram:max 8224
scalar WirelessC.hostA.wlan[0].queue incomingPacketLengths:histogram:numbins 51
scalar WirelessC.hostA.wlan[0].queue incomingPacketLengths:histogram:rangemin 0
scalar WirelessC.hostA.wlan[0].queue incomingPacketLengths:histogram:rangemax 10200
scalar WirelessC.hostA.wlan[0].queue incomingPacketLengths:histogram:underflows 0
scalar WirelessC.hostA.wlan[0].queue incomingPacketLengths:histogram:overflows 0
scalar WirelessC.hostA.wlan[0].radio minSnir:histogram:count 1123
scalar WirelessC.hostA.wlan[0].radio minSnir:histogram:sumweights 1123
scalar WirelessC.hostA.wlan[0].radio minSnir:histogram:mean inf
scalar WirelessC.hostA.wlan[0].radio minSnir:histogram:stddev -nan
scalar WirelessC.hostA.wlan[0].radio minSnir:histogram:min 0
scalar WirelessC.hostA.wlan[0].radio minSnir:histogram:max inf
scalar WirelessC.hostA.wlan[0].radio minSnir:histogram:numbins 50
scalar WirelessC.hostA.wlan[0].radio minSnir:histogram:rangemin -0.5
scalar WirelessC.hostA.wlan[0].radio minSnir:histogram:rangemax 0.5
scalar WirelessC.hostA.wlan[0].radio minSnir:histogram:underflows 0
scalar WirelessC.hostA.wlan[0].radio minSnir:histogram:overflows 1121
scalar WirelessC.hostA.wlan[0].radio packetErrorRate:histogram:count 1123
scalar WirelessC.hostA.wlan[0].radio packetErrorRate:histogram:sumweights 1123
scalar WirelessC.hostA.wlan[0].radio packetErrorRate:histogram:mean 0.0017809439002671415
scalar WirelessC.hostA.wlan[0].radio packetErrorRate:histogram:stddev 0.04218242058296777
scalar WirelessC.hostA.wlan[0].radio packetErrorRate:histogram:min 0
scalar WirelessC.hostA.wlan[0].radio packetErrorRate:histogram:max 1
scalar WirelessC.hostA.wlan[0].radio packetErrorRate:histogram:numbins 76
scalar WirelessC.hostA.wlan[0].radio packetErrorRate:histogram:rangemin -0.5
scalar WirelessC.hostA.wlan[0].radio packetErrorRate:histogram:rangemax 1.02
scalar WirelessC.hostA.wlan[0].radio packetErrorRate:histogram:underflows 0
scalar WirelessC.hostA.wlan[0].radio packetErrorRate:histogram:overflows 0
scalar WirelessC.hostA.wlan[0].radio bitErrorRate:histogram:count 1123
scalar WirelessC.hostA.wlan[0].radio bitErrorRate:histogram:sumweights 1123
scalar WirelessC.hostA.wlan[0].radio bitErrorRate:histogram:mean 0.0017809439002671415
scalar WirelessC.hostA.wlan[0].radio bitErrorRate:histogram:stddev 0.04218242058296777
scalar WirelessC.hostA.wlan[0].radio bitErrorRate:histogram:min 0
scalar WirelessC.hostA.wlan[0].radio bitErrorRate:histogram:max 1
scalar WirelessC.hostA.wlan[0].radio bitErrorRate:histogram:numbins 76
scalar WirelessC.hostA.wlan[0].radio bitErrorRate:histogram:rangemin -0.5
scalar WirelessC.hostA.wlan[0].radio bitErrorRate:histogram:rangemax 1.02
scalar WirelessC.hostA.wlan[0].radio bitErrorRate:histogram:underflows 0
scalar WirelessC.hostA.wlan[0].radio bitErrorRate:histogram:overflows 0
scalar WirelessC.hostA.wlan[0].radio symbolErrorRate:histogram:count 1123
scalar WirelessC.hostA.wlan[0].radio symbolErrorRate:histogram:sumweights 1123
scalar WirelessC.hostA.wlan[0].radio symbolErrorRate:histogram:mean 0.0017809439002671415
scalar WirelessC.hostA.wlan[0].radio symbolErrorRate:histogram:stddev 0.04218242058296777
scalar WirelessC.hostA.wlan[0].radio symbolErrorRate:histogram:min 0
scalar WirelessC.hostA.wlan[0].radio symbolErrorRate:histogram:max 1
scalar WirelessC.hostA.wlan[0].radio symbolErrorRate:histogram:numbins 76
scalar WirelessC.hostA.wlan[0].radio symbolErrorRate:histogram:rangemin -0.5
scalar WirelessC.hostA.wlan[0].radio symbolErrorRate:histogram:rangemax 1.02
scalar WirelessC.hostA.wlan[0].radio symbolErrorRate:histogram:underflows 0
scalar WirelessC.hostA.wlan[0].radio symbolErrorRate:histogram:overflows 0
scalar WirelessC.hostB.wlan[0].queue queueingTime:histogram:count 7
scalar WirelessC.hostB.wlan[0].queue queueingTime:histogram:sumweights 7
scalar WirelessC.hostB.wlan[0].queue queueingTime:histogram:mean 0
scalar WirelessC.hostB.wlan[0].queue queueingTime:histogram:stddev 0
scalar WirelessC.hostB.wlan[0].queue queueingTime:histogram:min 0
scalar WirelessC.hostB.wlan[0].queue queueingTime:histogram:max 0
scalar WirelessC.hostB.wlan[0].queue queueingTime:histogram:numbins 50
scalar WirelessC.hostB.wlan[0].queue queueingTime:histogram:rangemin -0.5
scalar WirelessC.hostB.wlan[0].queue queueingTime:histogram:rangemax 0.5
scalar WirelessC.hostB.wlan[0].queue queueingTime:histogram:underflows 0
scalar WirelessC.hostB.wlan[0].queue queueingTime:histogram:overflows 0
scalar WirelessC.hostB.wlan[0].queue outgoingPacketLengths:histogram:count 7
scalar WirelessC.hostB.wlan[0].queue outgoingPacketLengths:histogram:sumweights 7
scalar WirelessC.hostB.wlan[0].queue outgoingPacketLengths:histogram:mean 384
scalar WirelessC.hostB.wlan[0].queue outgoingPacketLengths:histogram:stddev 0
scalar WirelessC.hostB.wlan[0].queue outgoingPacketLengths:histogram:min 384
scalar WirelessC.hostB.wlan[0].queue outgoingPacketLengths:histogram:max 384
scalar WirelessC.hostB.wlan[0].queue outgoingPacketLengths:histogram:numbins 2
scalar WirelessC.hostB.wlan[0].queue outgoingPacketLengths:histogram:rangemin 383
scalar WirelessC.hostB.wlan[0].queue outgoingPacketLengths:histogram:rangemax 385
scalar WirelessC.hostB.wlan[0].queue outgoingPacketLengths:histogram:underflows 0
scalar WirelessC.hostB.wlan[0].queue outgoingPacketLengths:histogram:overflows 0
scalar WirelessC.hostB.wlan[0].queue flowQueueingTime:histogram:count 0
scalar WirelessC.hostB.wlan[0].queue flowQueueingTime:histogram:sumweights 0
scalar WirelessC.hostB.wlan[0].queue flowQueueingTime:histogram:mean -nan
scalar WirelessC.hostB.wlan[0].queue flowQueueingTime:histogram:stddev nan
scalar WirelessC.hostB.wlan[0].queue flowQueueingTime:histogram:min nan
scalar WirelessC.hostB.wlan[0].queue flowQueueingTime:histogram:max nan
scalar WirelessC.hostB.wlan[0].queue flowQueueingTime:histogram:numbins 1
scalar WirelessC.hostB.wlan[0].queue flowQueueingTime:histogram:rangemin 0
scalar WirelessC.hostB.wlan[0].queue flowQueueingTime:histogram:rangemax 1
scalar WirelessC.hostB.wlan[0].queue flowQueueingTime:histogram:underflows 0
scalar WirelessC.hostB.wlan[0].queue flowQueueingTime:histogram:overflows 0
scalar WirelessC.hostB.wlan[0].queue incomingPacketLengths:histogram:count 7
scalar WirelessC.hostB.wlan[0].queue incomingPacketLengths:histogram:sumweights 7
scalar WirelessC.hostB.wlan[0].queue incomingPacketLengths:histogram:mean 384
scalar WirelessC.hostB.wlan[0].queue incomingPacketLengths:histogram:stddev 0
scalar WirelessC.hostB.wlan[0].queue incomingPacketLengths:histogram:min 384
scalar WirelessC.hostB.wlan[0].queue incomingPacketLengths:histogram:max 384
scalar WirelessC.hostB.wlan[0].queue incomingPacketLengths:histogram:numbins 2
scalar WirelessC.hostB.wlan[0].queue incomingPacketLengths:histogram:rangemin 383
scalar WirelessC.hostB.wlan[0].queue incomingPacketLengths:histogram:rangemax 385
scalar WirelessC.hostB.wlan[0].queue incomingPacketLengths:histogram:underflows 0
scalar WirelessC.hostB.wlan[0].queue incomingPacketLengths:histogram:overflows 0
scalar WirelessC.hostB.wlan[0].radio minSnir:histogram:count 1134
scalar WirelessC.hostB.wlan[0].radio minSnir:histogram:sumweights 1134
scalar WirelessC.hostB.wlan[0].radio minSnir:histogram:mean inf
scalar WirelessC.hostB.wlan[0].radio minSnir:histogram:stddev -nan
scalar WirelessC.hostB.wlan[0].radio minSnir:histogram:min 0
scalar WirelessC.hostB.wlan[0].radio minSnir:histogram:max inf
scalar WirelessC.hostB.wlan[0].radio minSnir:histogram:numbins 50
scalar WirelessC.hostB.wlan[0].radio minSnir:histogram:rangemin -0.5
scalar WirelessC.hostB.wlan[0].radio minSnir:histogram:rangemax 0.5
scalar WirelessC.hostB.wlan[0].radio minSnir:histogram:underflows 0
scalar WirelessC.hostB.wlan[0].radio minSnir:histogram:overflows 1129
scalar WirelessC.hostB.wlan[0].radio packetErrorRate:histogram:count 1134
scalar WirelessC.hostB.wlan[0].radio packetErrorRate:histogram:sumweights 1134
scalar WirelessC.hostB.wlan[0].radio packetErrorRate:histogram:mean 0.0044091710758377423
scalar WirelessC.hostB.wlan[0].radio packetErrorRate:histogram:stddev 0.066284272020060028
scalar WirelessC.hostB.wlan[0].radio packetErrorRate:histogram:min 0
scalar WirelessC.hostB.wlan[0].radio packetErrorRate:histogram:max 1
scalar WirelessC.hostB.wlan[0].radio packetErrorRate:histogram:numbins 2
scalar WirelessC.hostB.wlan[0].radio packetErrorRate:histogram:rangemin 0
scalar WirelessC.hostB.wlan[0].radio packetErrorRate:histogram:rangemax 2
scalar WirelessC.hostB.wlan[0].radio packetErrorRate:histogram:underflows 0
scalar WirelessC.hostB.wlan[0].radio packetErrorRate:histogram:overflows 0
scalar WirelessC.hostB.wlan[0].radio bitErrorRate:histogram:count 1134
scalar WirelessC.hostB.wlan[0].radio bitErrorRate:histogram:sumweights 1134
scalar WirelessC.hostB.wlan[0].radio bitErrorRate:histogram:mean 0.0044091710758377423
scalar WirelessC.hostB.wlan[0].radio bitErrorRate:histogram:stddev 0.066284272020060028
scalar WirelessC.hostB.wlan[0].radio bitErrorRate:histogram:min 0
scalar WirelessC.hostB.wlan[0].radio bitErrorRate:histogram:max 1
scalar WirelessC.hostB.wlan[0].radio bitErrorRate:histogram:numbins 2
scalar WirelessC.hostB.wlan[0].radio bitErrorRate:histogram:rangemin 0
scalar WirelessC.hostB.wlan[0].radio bitErrorRate:histogram:rangemax 2
scalar WirelessC.hostB.wlan[0].radio bitErrorRate:histogram:underflows 0
scalar WirelessC.hostB.wlan[0].radio bitErrorRate:histogram:overflows 0
scalar WirelessC.hostB.wlan[0].radio symbolErrorRate:histogram:count 1134
scalar WirelessC.hostB.wlan[0].radio symbolErrorRate:histogram:sumweights 1134
scalar WirelessC.hostB.wlan[0].radio symbolErrorRate:histogram:mean 0.0044091710758377423
scalar WirelessC.hostB.wlan[0].radio symbolErrorRate:histogram:stddev 0.066284272020060028
scalar WirelessC.hostB.wlan[0].radio symbolErrorRate:histogram:min 0
scalar WirelessC.hostB.wlan[0].radio symbolErrorRate:histogram:max 1
scalar WirelessC.hostB.wlan[0].radio symbolErrorRate:histogram:numbins 2
scalar WirelessC.hostB.wlan[0].radio symbolErrorRate:histogram:rangemin 0
scalar WirelessC.hostB.wlan[0].radio symbolErrorRate:histogram:rangemax 2
scalar WirelessC.hostB.wlan[0].radio symbolErrorRate:histogram:underflows 0
scalar WirelessC.hostB.wlan[0].radio symbolErrorRate:histogram:overflows 0
scalar WirelessC.hostB.app[0] endToEndDelay:histogram:count 475
scalar WirelessC.hostB.app[0] endToEndDelay:histogram:sumweights 475
scalar WirelessC.hostB.app[0] endToEndDelay:histogram:mean 0.70008190246138113
scalar WirelessC.hostB.app[0] endToEndDelay:histogram:stddev 0.7429269859116665
scalar WirelessC.hostB.app[0] endToEndDelay:histogram:min 0.21353758332
scalar WirelessC.hostB.app[0] endToEndDelay:histogram:max 4.7556302439740001
scalar WirelessC.hostB.app[0] endToEndDelay:histogram:numbins 60
scalar WirelessC.hostB.app[0] endToEndDelay:histogram:rangemin 0
scalar WirelessC.hostB.app[0] endToEndDelay:histogram:rangemax 4.7999999999999998
scalar WirelessC.hostB.app[0] endToEndDelay:histogram:underflows 0
scalar WirelessC.hostB.app[0] endToEndDelay:histogram:overflows 0
scalar WirelessC.hostR1.wlan[0].queue queueingTime:histogram:count 203
scalar WirelessC.hostR1.wlan[0].queue queueingTime:histogram:sumweights 203
scalar WirelessC.hostR1.wlan[0].queue queueingTime:histogram:mean 0.2473880436088276
scalar WirelessC.hostR1.wlan[0].queue queueingTime:histogram:stddev 0.29223483131987982
scalar WirelessC.hostR1.wlan[0].queue queueingTime:histogram:min 0
scalar WirelessC.hostR1.wlan[0].queue queueingTime:histogram:max 1.043887839725
scalar WirelessC.hostR1.wlan[0].queue queueingTime:histogram:numbins 55
scalar WirelessC.hostR1.wlan[0].queue queueingTime:histogram:rangemin 0
scalar WirelessC.hostR1.wlan[0].queue queueingTime:histogram:rangemax 1.1000000000000001
scalar WirelessC.hostR1.wlan[0].queue queueingTime:histogram:underflows 0
scalar WirelessC.hostR1.wlan[0].queue queueingTime:histogram:overflows 0
scalar WirelessC.hostR1.wlan[0].queue outgoingPacketLengths:histogram:count 203
scalar WirelessC.hostR1.wlan[0].queue outgoingPacketLengths:histogram:sumweights 203
scalar WirelessC.hostR1.wlan[0].queue outgoingPacketLengths:histogram:mean 7800.4334975369457
scalar WirelessC.hostR1.wlan[0].queue outgoingPacketLengths:histogram:stddev 1773.98104884033
scalar WirelessC.hostR1.wlan[0].queue outgoingPacketLengths:histogram:min 384
scalar WirelessC.hostR1.wlan[0].queue outgoingPacketLengths:histogram:max 8224
scalar WirelessC.hostR1.wlan[0].queue outgoingPacketLengths:histogram:numbins 51
scalar WirelessC.hostR1.wlan[0].queue outgoingPacketLengths:histogram:rangemin 0
scalar WirelessC.hostR1.wlan[0].queue outgoingPacketLengths:histogram:rangemax 10200
scalar WirelessC.hostR1.wlan[0].queue outgoingPacketLengths:histogram:underflows 0
scalar WirelessC.hostR1.wlan[0].queue outgoingPacketLengths:histogram:overflows 0
scalar WirelessC.hostR1.wlan[0].queue flowQueueingTime:histogram:count 0
scalar WirelessC.hostR1.wlan[0].queue flowQueueingTime:histogram:sumweights 0
scalar WirelessC.hostR1.wlan[0].queue flowQueueingTime:histogram:mean -nan
scalar WirelessC.hostR1.wlan[0].queue flowQueueingTime:histogram:stddev nan
scalar WirelessC.hostR1.wlan[0].queue flowQueueingTime:histogram:min nan
scalar WirelessC.hostR1.wlan[0].queue flowQueueingTime:histogram:max nan
scalar WirelessC.hostR1.wlan[0].queue flowQueueingTime:histogram:numbins 1
scalar WirelessC.hostR1.wlan[0].queue flowQueueingTime:histogram:rangemin 0
scalar WirelessC.hostR1.wlan[0].queue flowQueueingTime:histogram:rangemax 1
scalar WirelessC.hostR1.wlan[0].queue flowQueueingTime:histogram:underflows 0
scalar WirelessC.hostR1.wlan[0].queue flowQueueingTime:histogram:overflows 0
scalar WirelessC.hostR1.wlan[0].queue incomingPacketLengths:histogram:count 429
scalar WirelessC.hostR1.wlan[0].queue incomingPacketLengths:histogram:sumweights 429
scalar WirelessC.hostR1.wlan[0].queue incomingPacketLengths:histogram:mean 8023.5710955710956
scalar WirelessC.hostR1.wlan[0].queue incomingPacketLengths:histogram:stddev 1236.9713853337694
scalar WirelessC.hostR1.wlan[0].queue incomingPacketLengths:histogram:min 384
scalar WirelessC.hostR1.wlan[0].queue incomingPacketLengths:histogram:max 8224
scalar WirelessC.hostR1.wlan[0].queue incomingPacketLengths:histogram:numbins 51
scalar WirelessC.hostR1.wlan[0].queue incomingPacketLengths:histogram:rangemin 0
scalar WirelessC.hostR1.wlan[0].queue incomingPacketLengths:histogram:rangemax 10200
scalar WirelessC.hostR1.wlan[0].queue incomingPacketLengths:histogram:underflows 0
scalar WirelessC.hostR1.wlan[0].queue incomingPacketLengths:histogram:overflows 0
scalar WirelessC.hostR1.wlan[0].radio minSnir:histogram:count 1678
scalar WirelessC.hostR1.wlan[0].radio minSnir:histogram:sumweights 1678
scalar WirelessC.hostR1.wlan[0].radio minSnir:histogram:mean inf
scalar WirelessC.hostR1.wlan[0].radio minSnir:histogram:stddev -nan
scalar WirelessC.hostR1.wlan[0].radio minSnir:histogram:min 0
scalar WirelessC.hostR1.wlan[0].radio minSnir:histogram:max inf
scalar WirelessC.hostR1.wlan[0].radio minSnir:histogram:numbins 50
scalar WirelessC.hostR1.wlan[0].radio minSnir:histogram:rangemin -0.5
scalar WirelessC.hostR1.wlan[0].radio minSnir:histogram:rangemax 0.5
scalar WirelessC.hostR1.wlan[0].radio minSnir:histogram:underflows 0
scalar WirelessC.hostR1.wlan[0].radio minSnir:histogram:overflows 1444
scalar WirelessC.hostR1.wlan[0].radio packetErrorRate:histogram:count 1678
scalar WirelessC.hostR1.wlan[0].radio packetErrorRate:histogram:sumweights 1678
scalar WirelessC.hostR1.wlan[0].radio packetErrorRate:histogram:mean 0.13945172824791419
scalar WirelessC.hostR1.wlan[0].radio packetErrorRate:histogram:stddev 0.34652056653995988
scalar WirelessC.hostR1.wlan[0].radio packetErrorRate:histogram:min 0
scalar WirelessC.hostR1.wlan[0].radio packetErrorRate:histogram:max 1
scalar WirelessC.hostR1.wlan[0].radio packetErrorRate:histogram:numbins 76
scalar WirelessC.hostR1.wlan[0].radio packetErrorRate:histogram:rangemin -0.5
scalar WirelessC.hostR1.wlan[0].radio packetErrorRate:histogram:rangemax 1.02
scalar WirelessC.hostR1.wlan[0].radio packetErrorRate:histogram:underflows 0
scalar WirelessC.hostR1.wlan[0].radio packetErrorRate:histogram:overflows 0
scalar WirelessC.hostR1.wlan[0].radio bitErrorRate:histogram:count 1678
scalar WirelessC.hostR1.wlan[0].radio bitErrorRate:histogram:sumweights 1678
scalar WirelessC.hostR1.wlan[0].radio bitErrorRate:histogram:mean 0.13945172824791419
scalar WirelessC.hostR1.wlan[0].radio bitErrorRate:histogram:stddev 0.34652056653995988
scalar WirelessC.hostR1.wlan[0].radio bitErrorRate:histogram:min 0
scalar WirelessC.hostR1.wlan[0].radio bitErrorRate:histogram:max 1
scalar WirelessC.hostR1.wlan[0].radio bitErrorRate:histogram:numbins 76
scalar WirelessC.hostR1.wlan[0].radio bitErrorRate:histogram:rangemin -0.5
scalar WirelessC.hostR1.wlan[0].radio bitErrorRate:histogram:rangemax 1.02
scalar WirelessC.hostR1.wlan[0].radio bitErrorRate:histogram:underflows 0
scalar WirelessC.hostR1.wlan[0].radio bitErrorRate:histogram:overflows 0
scalar WirelessC.hostR1.wlan[0].radio symbolErrorRate:histogram:count 1678
scalar WirelessC.hostR1.wlan[0].radio symbolErrorRate:histogram:sumweights 1678
scalar WirelessC.hostR1.wlan[0].radio symbolErrorRate:histogram:mean 0.13945172824791419
scalar WirelessC.hostR1.wlan[0].radio symbolErrorRate:histogram:stddev 0.34652056653995988
scalar WirelessC.hostR1.wlan[0].radio symbolErrorRate:histogram:min 0
scalar WirelessC.hostR1.wlan[0].radio symbolErrorRate:histogram:max 1
scalar WirelessC.hostR1.wlan[0].radio symbolErrorRate:histogram:numbins 76
scalar WirelessC.hostR1.wlan[0].radio symbolErrorRate:histogram:rangemin -0.5
scalar WirelessC.hostR1.wlan[0].radio symbolErrorRate:histogram:rangemax 1.02
scalar WirelessC.hostR1.wlan[0].radio symbolErrorRate:histogram:underflows 0
scalar WirelessC.hostR1.wlan[0].radio symbolErrorRate:histogram:overflows 0
scalar WirelessC.hostR2.wlan[0].queue queueingTime:histogram:count 218
scalar WirelessC.hostR2.wlan[0].queue queueingTime:histogram:sumweights 218
scalar WirelessC.hostR2.wlan[0].queue queueingTime:histogram:mean 0.076328659455706382
scalar WirelessC.hostR2.wlan[0].queue queueingTime:histogram:stddev 0.084633061829565759
scalar WirelessC.hostR2.wlan[0].queue queueingTime:histogram:min 0
scalar WirelessC.hostR2.wlan[0].queue queueingTime:histogram:max 0.32561850896200001
scalar WirelessC.hostR2.wlan[0].queue queueingTime:histogram:numbins 67
scalar WirelessC.hostR2.wlan[0].queue queueingTime:histogram:rangemin 0
scalar WirelessC.hostR2.wlan[0].queue queueingTime:histogram:rangemax 0.33500000000000002
scalar WirelessC.hostR2.wlan[0].queue queueingTime:histogram:underflows 0
scalar WirelessC.hostR2.wlan[0].queue queueingTime:histogram:overflows 0
scalar WirelessC.hostR2.wlan[0].queue outgoingPacketLengths:histogram:count 218
scalar WirelessC.hostR2.wlan[0].queue outgoingPacketLengths:histogram:sumweights 218
scalar WirelessC.hostR2.wlan[0].queue outgoingPacketLengths:histogram:mean 7685.8715596330276
scalar WirelessC.hostR2.wlan[0].queue outgoingPacketLengths:histogram:stddev 1984.2100802115745
scalar WirelessC.hostR2.wlan[0].queue outgoingPacketLengths:histogram:min 384
scalar WirelessC.hostR2.wlan[0].queue outgoingPacketLengths:histogram:max 8224
scalar WirelessC.hostR2.wlan[0].queue outgoingPacketLengths:histogram:numbins 51
scalar WirelessC.hostR2.wlan[0].queue outgoingPacketLengths:histogram:rangemin 0
scalar WirelessC.hostR2.wlan[0].queue outgoingPacketLengths:histogram:rangemax 10200
scalar WirelessC.hostR2.wlan[0].queue outgoingPacketLengths:histogram:underflows 0
scalar WirelessC.hostR2.wlan[0].queue outgoingPacketLengths:histogram:overflows 0
scalar WirelessC.hostR2.wlan[0].queue flowQueueingTime:histogram:count 0
scalar WirelessC.hostR2.wlan[0].queue flowQueueingTime:histogram:sumweights 0
scalar WirelessC.hostR2.wlan[0].queue flowQueueingTime:histogram:mean -nan
scalar WirelessC.hostR2.wlan[0].queue flowQueueingTime:histogram:stddev nan
scalar WirelessC.hostR2.wlan[0].queue flowQueueingTime:histogram:min nan
scalar WirelessC.hostR2.wlan[0].queue flowQueueingTime:histogram:max nan
scalar WirelessC.hostR2.wlan[0].queue flowQueueingTime:histogram:numbins 1
scalar WirelessC.hostR2.wlan[0].queue flowQueueingTime:histogram:rangemin 0
scalar WirelessC.hostR2.wlan[0].queue flowQueueingTime:histogram:rangemax 1
scalar WirelessC.hostR2.wlan[0].queue flowQueueingTime:histogram:underflows 0
scalar WirelessC.hostR2.wlan[0].queue flowQueueingTime:histogram:overflows 0
scalar WirelessC.hostR2.wlan[0].queue incomingPacketLengths:histogram:count 243
scalar WirelessC.hostR2.wlan[0].queue incomingPacketLengths:histogram:sumweights 243
scalar WirelessC.hostR2.wlan[0].queue incomingPacketLengths:histogram:mean 7741.2345679012342
scalar WirelessC.hostR2.wlan[0].queue incomingPacketLengths:histogram:stddev 1886.0549557184709
scalar WirelessC.hostR2.wlan[0].queue incomingPacketLengths:histogram:min 384
scalar WirelessC.hostR2.wlan[0].queue incomingPacketLengths:histogram:max 8224
scalar WirelessC.hostR2.wlan[0].queue incomingPacketLengths:histogram:numbins 51
scalar WirelessC.hostR2.wlan[0].queue incomingPacketLengths:histogram:rangemin 0
scalar WirelessC.hostR2.wlan[0].queue incomingPacketLengths:histogram:rangemax 10200
scalar WirelessC.hostR2.wlan[0].queue incomingPacketLengths:histogram:underflows 0
scalar WirelessC.hostR2.wlan[0].queue incomingPacketLengths:histogram:overflows 0
scalar WirelessC.hostR2.wlan[0].radio minSnir:histogram:count 1415
scalar WirelessC.hostR2.wlan[0].radio minSnir:histogram:sumweights 1415
scalar WirelessC.hostR2.wlan[0].radio minSnir:histogram:mean inf
scalar WirelessC.hostR2.wlan[0].radio minSnir:histogram:stddev -nan
scalar WirelessC.hostR2.wlan[0].radio minSnir:histogram:min 0
scalar WirelessC.hostR2.wlan[0].radio minSnir:histogram:max inf
scalar WirelessC.hostR2.wlan[0].radio minSnir:histogram:numbins 50
scalar WirelessC.hostR2.wlan[0].radio minSnir:histogram:rangemin -0.5
scalar WirelessC.hostR2.wlan[0].radio minSnir:histogram:rangemax 0.5
scalar WirelessC.hostR2.wlan[0].radio minSnir:histogram:underflows 0
scalar WirelessC.hostR2.wlan[0].radio minSnir:histogram:overflows 1183
scalar WirelessC.hostR2.wlan[0].radio packetErrorRate:histogram:count 1415
scalar WirelessC.hostR2.wlan[0].radio packetErrorRate:histogram:sumweights 1415
scalar WirelessC.hostR2.wlan[0].radio packetErrorRate:histogram:mean 0.16395759717314487
scalar WirelessC.hostR2.wlan[0].radio packetErrorRate:histogram:stddev 0.37036798614312
scalar WirelessC.hostR2.wlan[0].radio packetErrorRate:histogram:min 0
scalar WirelessC.hostR2.wlan[0].radio packetErrorRate:histogram:max 1
scalar WirelessC.hostR2.wlan[0].radio packetErrorRate:histogram:numbins 2
scalar WirelessC.hostR2.wlan[0].radio packetErrorRate:histogram:rangemin 0
scalar WirelessC.hostR2.wlan[0].radio packetErrorRate:histogram:rangemax 2
scalar WirelessC.hostR2.wlan[0].radio packetErrorRate:histogram:underflows 0
scalar WirelessC.hostR2.wlan[0].radio packetErrorRate:histogram:overflows 0
scalar WirelessC.hostR2.wlan[0].radio bitErrorRate:histogram:count 1415
scalar WirelessC.hostR2.wlan[0].radio bitErrorRate:histogram:sumweights 1415
scalar WirelessC.hostR2.wlan[0].radio bitErrorRate:histogram:mean 0.16395759717314487
scalar WirelessC.hostR2.wlan[0].radio bitErrorRate:histogram:stddev 0.37036798614312
scalar WirelessC.hostR2.wlan[0].radio bitErrorRate:histogram:min 0
scalar WirelessC.hostR2.wlan[0].radio bitErrorRate:histogram:max 1
scalar WirelessC.hostR2.wlan[0].radio bitErrorRate:histogram:numbins 2
scalar WirelessC.hostR2.wlan[0].radio bitErrorRate:histogram:rangemin 0
scalar WirelessC.hostR2.wlan[0].radio bitErrorRate:histogram:rangemax 2
scalar WirelessC.hostR2.wlan[0].radio bitErrorRate:histogram:underflows 0
scalar WirelessC.hostR2.wlan[0].radio bitErrorRate:histogram:overflows 0
scalar WirelessC.hostR2.wlan[0].radio symbolErrorRate:histogram:count 1415
scalar WirelessC.hostR2.wlan[0].radio symbolErrorRate:histogram:sumweights 1415
scalar WirelessC.hostR2.wlan[0].radio symbolErrorRate:histogram:mean 0.16395759717314487
scalar WirelessC.hostR2.wlan[0].radio symbolErrorRate:histogram:stddev 0.37036798614312
scalar WirelessC.hostR2.wlan[0].radio symbolErrorRate:histogram:min 0
scalar WirelessC.hostR2.wlan[0].radio symbolErrorRate:histogram:max 1
scalar WirelessC.hostR2.wlan[0].radio symbolErrorRate:histogram:numbins 2
scalar WirelessC.hostR2.wlan[0].radio symbolErrorRate:histogram:rangemin 0
scalar WirelessC.hostR2.wlan[0].radio symbolErrorRate:histogram:rangemax 2
scalar WirelessC.hostR2.wlan[0].radio symbolErrorRate:histogram:underflows 0
scalar WirelessC.hostR2.wlan[0].radio symbolErrorRate:histogram:overflows 0
scalar WirelessC.hostR3.wlan[0].queue queueingTime:histogram:count 187
scalar WirelessC.hostR3.wlan[0].queue queueingTime:histogram:sumweights 187
scalar WirelessC.hostR3.wlan[0].queue queueingTime:histogram:mean 0.011006086741951871
scalar WirelessC.hostR3.wlan[0].queue queueingTime:histogram:stddev 0.029164077808968559
scalar WirelessC.hostR3.wlan[0].queue queueingTime:histogram:min 0
scalar WirelessC.hostR3.wlan[0].queue queueingTime:histogram:max 0.19700219377299999
scalar WirelessC.hostR3.wlan[0].queue queueingTime:histogram:numbins 50
scalar WirelessC.hostR3.wlan[0].queue queueingTime:histogram:rangemin 0
scalar WirelessC.hostR3.wlan[0].queue queueingTime:histogram:rangemax 0.20000000000000001
scalar WirelessC.hostR3.wlan[0].queue queueingTime:histogram:underflows 0
scalar WirelessC.hostR3.wlan[0].queue queueingTime:histogram:overflows 0
scalar WirelessC.hostR3.wlan[0].queue outgoingPacketLengths:histogram:count 187
scalar WirelessC.hostR3.wlan[0].queue outgoingPacketLengths:histogram:sumweights 187
scalar WirelessC.hostR3.wlan[0].queue outgoingPacketLengths:histogram:mean 7722.0962566844919
scalar WirelessC.hostR3.wlan[0].queue outgoingPacketLengths:histogram:stddev 1921.8262068094141
scalar WirelessC.hostR3.wlan[0].queue outgoingPacketLengths:histogram:min 384
scalar WirelessC.hostR3.wlan[0].queue outgoingPacketLengths:histogram:max 8224
scalar WirelessC.hostR3.wlan[0].queue outgoingPacketLengths:histogram:numbins 51
scalar WirelessC.hostR3.wlan[0].queue outgoingPacketLengths:histogram:rangemin 0
scalar WirelessC.hostR3.wlan[0].queue outgoingPacketLengths:histogram:rangemax 10200
scalar WirelessC.hostR3.wlan[0].queue outgoingPacketLengths:histogram:underflows 0
scalar WirelessC.hostR3.wlan[0].queue outgoingPacketLengths:histogram:overflows 0
scalar WirelessC.hostR3.wlan[0].queue flowQueueingTime:histogram:count 0
scalar WirelessC.hostR3.wlan[0].queue flowQueueingTime:histogram:sumweights 0
scalar WirelessC.hostR3.wlan[0].queue flowQueueingTime:histogram:mean -nan
scalar WirelessC.hostR3.wlan[0].queue flowQueueingTime:histogram:stddev nan
scalar WirelessC.hostR3.wlan[0].queue flowQueueingTime:histogram:min nan
scalar WirelessC.hostR3.wlan[0].queue flowQueueingTime:histogram:max nan
scalar WirelessC.hostR3.wlan[0].queue flowQueueingTime:histogram:numbins 1
scalar WirelessC.hostR3.wlan[0].queue flowQueueingTime:histogram:rangemin 0
scalar WirelessC.hostR3.wlan[0].queue flowQueueingTime:histogram:rangemax 1
scalar WirelessC.hostR3.wlan[0].queue flowQueueingTime:histogram:underflows 0
scalar WirelessC.hostR3.wlan[0].queue flowQueueingTime:histogram:overflows 0
scalar WirelessC.hostR3.wlan[0].queue incomingPacketLengths:histogram:count 225
scalar WirelessC.hostR3.wlan[0].queue incomingPacketLengths:histogram:sumweights 225
scalar WirelessC.hostR3.wlan[0].queue incomingPacketLengths:histogram:mean 7806.862222222222
scalar WirelessC.hostR3.wlan[0].queue incomingPacketLengths:histogram:stddev 1761.3549531855053
scalar WirelessC.hostR3.wlan[0].queue incomingPacketLengths:histogram:min 384
scalar WirelessC.hostR3.wlan[0].queue incomingPacketLengths:histogram:max 8224
scalar WirelessC.hostR3.wlan[0].queue incomingPacketLengths:histogram:numbins 51
scalar WirelessC.hostR3.wlan[0].queue incomingPacketLengths:histogram:rangemin 0
scalar WirelessC.hostR3.wlan[0].queue incomingPacketLengths:histogram:rangemax 10200
scalar WirelessC.hostR3.wlan[0].queue incomingPacketLengths:histogram:underflows 0
scalar WirelessC.hostR3.wlan[0].queue incomingPacketLengths:histogram:overflows 0
scalar WirelessC.hostR3.wlan[0].radio minSnir:histogram:count 1714
scalar WirelessC.hostR3.wlan[0].radio minSnir:histogram:sumweights 1714
scalar WirelessC.hostR3.wlan[0].radio minSnir:histogram:mean inf
scalar WirelessC.hostR3.wlan[0].radio minSnir:histogram:stddev -nan
scalar WirelessC.hostR3.wlan[0].radio minSnir:histogram:min 0
scalar WirelessC.hostR3.wlan[0].radio minSnir:histogram:max inf
scalar WirelessC.hostR3.wlan[0].radio minSnir:histogram:numbins 50
scalar WirelessC.hostR3.wlan[0].radio minSnir:histogram:rangemin -0.5
scalar WirelessC.hostR3.wlan[0].radio minSnir:histogram:rangemax 0.5
scalar WirelessC.hostR3.wlan[0].radio minSnir:histogram:underflows 0
scalar WirelessC.hostR3.wlan[0].radio minSnir:histogram:overflows 1699
scalar WirelessC.hostR3.wlan[0].radio packetErrorRate:histogram:count 1714
scalar WirelessC.hostR3.wlan[0].radio packetErrorRate:histogram:sumweights 1714
scalar WirelessC.hostR3.wlan[0].radio packetErrorRate:histogram:mean 0.0087514585764294044
scalar WirelessC.hostR3.wlan[0].radio packetErrorRate:histogram:stddev 0.093166167080505125
scalar WirelessC.hostR3.wlan[0].radio packetErrorRate:histogram:min 0
scalar WirelessC.hostR3.wlan[0].radio packetErrorRate:histogram:max 1
scalar WirelessC.hostR3.wlan[0].radio packetErrorRate:histogram:numbins 76
scalar WirelessC.hostR3.wlan[0].radio packetErrorRate:histogram:rangemin -0.5
scalar WirelessC.hostR3.wlan[0].radio packetErrorRate:histogram:rangemax 1.02
scalar WirelessC.hostR3.wlan[0].radio packetErrorRate:histogram:underflows 0
scalar WirelessC.hostR3.wlan[0].radio packetErrorRate:histogram:overflows 0
scalar WirelessC.hostR3.wlan[0].radio bitErrorRate:histogram:count 1714
scalar WirelessC.hostR3.wlan[0].radio bitErrorRate:histogram:sumweights 1714
scalar WirelessC.hostR3.wlan[0].radio bitErrorRate:histogram:mean 0.0087514585764294044
scalar WirelessC.hostR3.wlan[0].radio bitErrorRate:histogram:stddev 0.093166167080505125
scalar WirelessC.hostR3.wlan[0].radio bitErrorRate:histogram:min 0
scalar WirelessC.hostR3.wlan[0].radio bitErrorRate:histogram:max 1
scalar WirelessC.hostR3.wlan[0].radio bitErrorRate:histogram:numbins 76
scalar WirelessC.hostR3.wlan[0].radio bitErrorRate:histogram:rangemin -0.5
scalar WirelessC.hostR3.wlan[0].radio bitErrorRate:histogram:rangemax 1.02
scalar WirelessC.hostR3.wlan[0].radio bitErrorRate:histogram:underflows 0
scalar WirelessC.hostR3.wlan[0].radio bitErrorRate:histogram:overflows 0
scalar WirelessC.hostR3.wlan[0].radio symbolErrorRate:histogram:count 1714
scalar WirelessC.hostR3.wlan[0].radio symbolErrorRate:histogram:sumweights 1714
scalar WirelessC.hostR3.wlan[0].radio symbolErrorRate:histogram:mean 0.0087514585764294044
scalar WirelessC.hostR3.wlan[0].radio symbolErrorRate:histogram:stddev 0.093166167080505125
scalar WirelessC.hostR3.wlan[0].radio symbolErrorRate:histogram:min 0
scalar WirelessC.hostR3.wlan[0].radio symbolErrorRate:histogram:max 1
scalar WirelessC.hostR3.wlan[0].radio symbolErrorRate:histogram:numbins 76
scalar WirelessC.hostR3.wlan[0].radio symbolErrorRate:histogram:rangemin -0.5
scalar WirelessC.hostR3.wlan[0].radio symbolErrorRate:histogram:rangemax 1.02
scalar WirelessC.hostR3.wlan[0].radio symbolErrorRate:histogram:underflows 0
scalar WirelessC.hostR3.wlan[0].radio symbolErrorRate:histogram:overflows 0
statistic WirelessC.hostA.app[0] rcvdPkLifetime:stats
field count 0
field mean -nan
field stddev nan
field min nan
field max nan
field sum 0
field sqrsum 0
statistic WirelessC.hostA.wlan[0].queue queueingTime:histogram
field count 657
field mean 0.17749215419924946
field stddev 0.17521468312882157
field min 0
field max 1.257036086294
field sum 116.6123453089069
field sqrsum 40.83709785576491
bin	-inf	0
bin	0	69
bin	0.02	36
bin	0.040000000000000001	45
bin	0.059999999999999998	64
bin	0.080000000000000002	41
bin	0.10000000000000001	40
bin	0.12	35
bin	0.14000000000000001	36
bin	0.16	40
bin	0.17999999999999999	40
bin	0.20000000000000001	21
bin	0.22	20
bin	0.23999999999999999	25
bin	0.26000000000000001	15
bin	0.28000000000000003	20
bin	0.29999999999999999	17
bin	0.32000000000000001	19
bin	0.34000000000000002	19
bin	0.35999999999999999	7
bin	0.38	9
bin	0.40000000000000002	3
bin	0.41999999999999998	4
bin	0.44	5
bin	0.46000000000000002	2
bin	0.47999999999999998	3
bin	0.5	0
bin	0.52000000000000002	1
bin	0.54000000000000004	1
bin	0.56000000000000005	0
bin	0.57999999999999996	0
bin	0.59999999999999998	1
bin	0.62	1
bin	0.64000000000000001	0
bin	0.66000000000000003	0
bin	0.68000000000000005	2
bin	0.70000000000000007	0
bin	0.71999999999999997	2
bin	0.73999999999999999	0
bin	0.76000000000000001	0
bin	0.78000000000000003	1
bin	0.80000000000000004	1
bin	0.82000000000000006	1
bin	0.83999999999999997	0
bin	0.85999999999999999	1
bin	0.88	1
bin	0.90000000000000002	0
bin	0.92000000000000004	0
bin	0.94000000000000006	0
bin	0.95999999999999996	2
bin	0.97999999999999998	0
bin	1	0
bin	1.02	0
bin	1.04	1
bin	1.0600000000000001	1
bin	1.0800000000000001	2
bin	1.1000000000000001	0
bin	1.1200000000000001	0
bin	1.1400000000000001	1
bin	1.1599999999999999	1
bin	1.1799999999999999	0
bin	1.2	0
bin	1.22	0
bin	1.24	1
bin	1.26	0
bin	1.28	0
bin	1.3	0
bin	1.3200000000000001	0
bin	1.3400000000000001	0
bin	1.3600000000000001	0
statistic WirelessC.hostA.wlan[0].queue outgoingPacketLengths:histogram
field count 657
field mean 7986.5570776255709
field stddev 1341.0513850111138
field min 416
field max 8224
field sum 5247168
field sqrsum 43086569472
bin	-inf	0
bin	0	0
bin	200	0
bin	400	20
bin	600	0
bin	800	0
bin	1000	0
bin	1200	0
bin	1400	0
bin	1600	0
bin	1800	0
bin	2000	0
bin	2200	0
bin	2400	0
bin	2600	0
bin	2800	0
bin	3000	0
bin	3200	0
bin	3400	0
bin	3600	0
bin	3800	0
bin	4000	0
bin	4200	0
bin	4400	0
bin	4600	0
bin	4800	0
bin	5000	0
bin	5200	0
bin	5400	0
bin	5600	0
bin	5800	0
bin	6000	0
bin	6200	0
bin	6400	0
bin	6600	0
bin	6800	0
bin	7000	0
bin	7200	0
bin	7400	0
bin	7600	0
bin	7800	0
bin	8000	0
bin	8200	637
bin	8400	0
bin	8600	0
bin	8800	0
bin	9000	0
bin	9200	0
bin	9400	0
bin	9600	0
bin	9800	0
bin	10000	0
bin	10200	0
statistic WirelessC.hostA.wlan[0].queue flowQueueingTime:histogram
field count 0
field mean -nan
field stddev nan
field min nan
field max nan
field sum 0
field sqrsum 0
bin	-inf	0
bin	0	0
bin	1	0
statistic WirelessC.hostA.wlan[0].queue incomingPacketLengths:histogram
field count 1629
field mean 8104.2897483118477
field stddev 959.17431451524942
field min 416
field max 8224
field sum 13201888
field sqrsum 108489710592
bin	-inf	0
bin	0	0
bin	200	0
bin	400	25
bin	600	0
bin	800	0
bin	1000	0
bin	1200	0
bin	1400	0
bin	1600	0
bin	1800	0
bin	2000	0
bin	2200	0
bin	2400	0
bin	2600	0
bin	2800	0
bin	3000	0
bin	3200	0
bin	3400	0
bin	3600	0
bin	3800	0
bin	4000	0
bin	4200	0
bin	4400	0
bin	4600	0
bin	4800	0
bin	5000	0
bin	5200	0
bin	5400	0
bin	5600	0
bin	5800	0
bin	6000	0
bin	6200	0
bin	6400	0
bin	6600	0
bin	6800	0
bin	7000	0
bin	7200	0
bin	7400	0
bin	7600	0
bin	7800	0
bin	8000	0
bin	8200	1604
bin	8400	0
bin	8600	0
bin	8800	0
bin	9000	0
bin	9200	0
bin	9400	0
bin	9600	0
bin	9800	0
bin	10000	0
bin	10200	0
statistic WirelessC.hostA.wlan[0].radio minSnir:histogram
field count 1123
field mean inf
field stddev -nan
field min 0
field max inf
field sum inf
field sqrsum inf
bin	-inf	0
bin	-0.5	0
bin	-0.47999999999999998	0
bin	-0.46000000000000002	0
bin	-0.44	0
bin	-0.41999999999999998	0
bin	-0.40000000000000002	0
bin	-0.38	0
bin	-0.35999999999999999	0
bin	-0.33999999999999997	0
bin	-0.32000000000000001	0
bin	-0.29999999999999999	0
bin	-0.28000000000000003	0
bin	-0.26000000000000001	0
bin	-0.23999999999999999	0
bin	-0.21999999999999997	0
bin	-0.20000000000000001	0
bin	-0.17999999999999999	0
bin	-0.15999999999999998	0
bin	-0.14000000000000001	0
bin	-0.12	0
bin	-0.099999999999999978	0
bin	-0.080000000000000016	0
bin	-0.059999999999999998	0
bin	-0.03999999999999998	0
bin	-0.020000000000000018	0
bin	0	2
bin	0.020000000000000018	0
bin	0.040000000000000036	0
bin	0.060000000000000053	0
bin	0.07999999999999996	0
bin	0.099999999999999978	0
bin	0.12	0
bin	0.14000000000000001	0
bin	0.16000000000000003	0
bin	0.18000000000000005	0
bin	0.20000000000000007	0
bin	0.21999999999999997	0
bin	0.23999999999999999	0
bin	0.26000000000000001	0
bin	0.28000000000000003	0
bin	0.30000000000000004	0
bin	0.32000000000000006	0
bin	0.33999999999999997	0
bin	0.35999999999999999	0
bin	0.38	0
bin	0.40000000000000002	0
bin	0.42000000000000004	0
bin	0.44000000000000006	0
bin	0.45999999999999996	0
bin	0.47999999999999998	0
bin	0.5	1121
statistic WirelessC.hostA.wlan[0].radio packetErrorRate:histogram
field count 1123
field mean 0.0017809439002671415
field stddev 0.04218242058296777
field min 0
field max 1
field sum 2
field sqrsum 2
bin	-inf	0
bin	-0.5	0
bin	-0.47999999999999998	0
bin	-0.46000000000000002	0
bin	-0.44	0
bin	-0.41999999999999998	0
bin	-0.40000000000000002	0
bin	-0.38	0
bin	-0.35999999999999999	0
bin	-0.33999999999999997	0
bin	-0.32000000000000001	0
bin	-0.29999999999999999	0
bin	-0.28000000000000003	0
bin	-0.26000000000000001	0
bin	-0.23999999999999999	0
bin	-0.21999999999999997	0
bin	-0.20000000000000001	0
bin	-0.17999999999999999	0
bin	-0.15999999999999998	0
bin	-0.14000000000000001	0
bin	-0.12	0
bin	-0.099999999999999978	0
bin	-0.080000000000000016	0
bin	-0.059999999999999998	0
bin	-0.03999999999999998	0
bin	-0.020000000000000018	0
bin	0	1121
bin	0.020000000000000018	0
bin	0.040000000000000036	0
bin	0.060000000000000053	0
bin	0.07999999999999996	0
bin	0.099999999999999978	0
bin	0.12	0
bin	0.14000000000000001	0
bin	0.16000000000000003	0
bin	0.18000000000000005	0
bin	0.20000000000000007	0
bin	0.21999999999999997	0
bin	0.23999999999999999	0
bin	0.26000000000000001	0
bin	0.28000000000000003	0
bin	0.30000000000000004	0
bin	0.32000000000000006	0
bin	0.33999999999999997	0
bin	0.35999999999999999	0
bin	0.38	0
bin	0.40000000000000002	0
bin	0.42000000000000004	0
bin	0.44000000000000006	0
bin	0.45999999999999996	0
bin	0.47999999999999998	0
bin	0.5	0
bin	0.52000000000000002	0
bin	0.54000000000000004	0
bin	0.56000000000000005	0
bin	0.57999999999999996	0
bin	0.59999999999999998	0
bin	0.62	0
bin	0.64000000000000001	0
bin	0.66000000000000003	0
bin	0.67999999999999994	0
bin	0.69999999999999996	0
bin	0.71999999999999997	0
bin	0.73999999999999999	0
bin	0.76000000000000001	0
bin	0.78000000000000003	0
bin	0.80000000000000004	0
bin	0.82000000000000006	0
bin	0.84000000000000008	0
bin	0.85999999999999999	0
bin	0.88	0
bin	0.90000000000000002	0
bin	0.91999999999999993	0
bin	0.93999999999999995	0
bin	0.95999999999999996	0
bin	0.97999999999999998	0
bin	1	2
bin	1.02	0
statistic WirelessC.hostA.wlan[0].radio bitErrorRate:histogram
field count 1123
field mean 0.0017809439002671415
field stddev 0.04218242058296777
field min 0
field max 1
field sum 2
field sqrsum 2
bin	-inf	0
bin	-0.5	0
bin	-0.47999999999999998	0
bin	-0.46000000000000002	0
bin	-0.44	0
bin	-0.41999999999999998	0
bin	-0.40000000000000002	0
bin	-0.38	0
bin	-0.35999999999999999	0
bin	-0.33999999999999997	0
bin	-0.32000000000000001	0
bin	-0.29999999999999999	0
bin	-0.28000000000000003	0
bin	-0.26000000000000001	0
bin	-0.23999999999999999	0
bin	-0.21999999999999997	0
bin	-0.20000000000000001	0
bin	-0.17999999999999999	0
bin	-0.15999999999999998	0
bin	-0.14000000000000001	0
bin	-0.12	0
bin	-0.099999999999999978	0
bin	-0.080000000000000016	0
bin	-0.059999999999999998	0
bin	-0.03999999999999998	0
bin	-0.020000000000000018	0
bin	0	1121
bin	0.020000000000000018	0
bin	0.040000000000000036	0
bin	0.060000000000000053	0
bin	0.07999999999999996	0
bin	0.099999999999999978	0
bin	0.12	0
bin	0.14000000000000001	0
bin	0.16000000000000003	0
bin	0.18000000000000005	0
bin	0.20000000000000007	0
bin	0.21999999999999997	0
bin	0.23999999999999999	0
bin	0.26000000000000001	0
bin	0.28000000000000003	0
bin	0.30000000000000004	0
bin	0.32000000000000006	0
bin	0.33999999999999997	0
bin	0.35999999999999999	0
bin	0.38	0
bin	0.40000000000000002	0
bin	0.42000000000000004	0
bin	0.44000000000000006	0
bin	0.45999999999999996	0
bin	0.47999999999999998	0
bin	0.5	0
bin	0.52000000000000002	0
bin	0.54000000000000004	0
bin	0.56000000000000005	0
bin	0.57999999999999996	0
bin	0.59999999999999998	0
bin	0.62	0
bin	0.64000000000000001	0
bin	0.66000000000000003	0
bin	0.67999999999999994	0
bin	0.69999999999999996	0
bin	0.71999999999999997	0
bin	0.73999999999999999	0
bin	0.76000000000000001	0
bin	0.78000000000000003	0
bin	0.80000000000000004	0
bin	0.82000000000000006	0
bin	0.84000000000000008	0
bin	0.85999999999999999	0
bin	0.88	0
bin	0.90000000000000002	0
bin	0.91999999999999993	0
bin	0.93999999999999995	0
bin	0.95999999999999996	0
bin	0.97999999999999998	0
bin	1	2
bin	1.02	0
statistic WirelessC.hostA.wlan[0].radio symbolErrorRate:histogram
field count 1123
field mean 0.0017809439002671415
field stddev 0.04218242058296777
field min 0
field max 1
field sum 2
field sqrsum 2
bin	-inf	0
bin	-0.5	0
bin	-0.47999999999999998	0
bin	-0.46000000000000002	0
bin	-0.44	0
bin	-0.41999999999999998	0
bin	-0.40000000000000002	0
bin	-0.38	0
bin	-0.35999999999999999	0
bin	-0.33999999999999997	0
bin	-0.32000000000000001	0
bin	-0.29999999999999999	0
bin	-0.28000000000000003	0
bin	-0.26000000000000001	0
bin	-0.23999999999999999	0
bin	-0.21999999999999997	0
bin	-0.20000000000000001	0
bin	-0.17999999999999999	0
bin	-0.15999999999999998	0
bin	-0.14000000000000001	0
bin	-0.12	0
bin	-0.099999999999999978	0
bin	-0.080000000000000016	0
bin	-0.059999999999999998	0
bin	-0.03999999999999998	0
bin	-0.020000000000000018	0
bin	0	1121
bin	0.020000000000000018	0
bin	0.040000000000000036	0
bin	0.060000000000000053	0
bin	0.07999999999999996	0
bin	0.099999999999999978	0
bin	0.12	0
bin	0.14000000000000001	0
bin	0.16000000000000003	0
bin	0.18000000000000005	0
bin	0.20000000000000007	0
bin	0.21999999999999997	0
bin	0.23999999999999999	0
bin	0.26000000000000001	0
bin	0.28000000000000003	0
bin	0.30000000000000004	0
bin	0.32000000000000006	0
bin	0.33999999999999997	0
bin	0.35999999999999999	0
bin	0.38	0
bin	0.40000000000000002	0
bin	0.42000000000000004	0
bin	0.44000000000000006	0
bin	0.45999999999999996	0
bin	0.47999999999999998	0
bin	0.5	0
bin	0.52000000000000002	0
bin	0.54000000000000004	0
bin	0.56000000000000005	0
bin	0.57999999999999996	0
bin	0.59999999999999998	0
bin	0.62	0
bin	0.64000000000000001	0
bin	0.66000000000000003	0
bin	0.67999999999999994	0
bin	0.69999999999999996	0
bin	0.71999999999999997	0
bin	0.73999999999999999	0
bin	0.76000000000000001	0
bin	0.78000000000000003	0
bin	0.80000000000000004	0
bin	0.82000000000000006	0
bin	0.84000000000000008	0
bin	0.85999999999999999	0
bin	0.88	0
bin	0.90000000000000002	0
bin	0.91999999999999993	0
bin	0.93999999999999995	0
bin	0.95999999999999996	0
bin	0.97999999999999998	0
bin	1	2
bin	1.02	0
statistic WirelessC.hostB.wlan[0].queue queueingTime:histogram
field count 7
field mean 0
field stddev 0
field min 0
field max 0
field sum 0
field sqrsum 0
bin	-inf	0
bin	-0.5	0
bin	-0.47999999999999998	0
bin	-0.46000000000000002	0
bin	-0.44	0
bin	-0.41999999999999998	0
bin	-0.40000000000000002	0
bin	-0.38	0
bin	-0.35999999999999999	0
bin	-0.33999999999999997	0
bin	-0.32000000000000001	0
bin	-0.29999999999999999	0
bin	-0.28000000000000003	0
bin	-0.26000000000000001	0
bin	-0.23999999999999999	0
bin	-0.21999999999999997	0
bin	-0.20000000000000001	0
bin	-0.17999999999999999	0
bin	-0.15999999999999998	0
bin	-0.14000000000000001	0
bin	-0.12	0
bin	-0.099999999999999978	0
bin	-0.080000000000000016	0
bin	-0.059999999999999998	0
bin	-0.03999999999999998	0
bin	-0.020000000000000018	0
bin	0	7
bin	0.020000000000000018	0
bin	0.040000000000000036	0
bin	0.060000000000000053	0
bin	0.07999999999999996	0
bin	0.099999999999999978	0
bin	0.12	0
bin	0.14000000000000001	0
bin	0.16000000000000003	0
bin	0.18000000000000005	0
bin	0.20000000000000007	0
bin	0.21999999999999997	0
bin	0.23999999999999999	0
bin	0.26000000000000001	0
bin	0.28000000000000003	0
bin	0.30000000000000004	0
bin	0.32000000000000006	0
bin	0.33999999999999997	0
bin	0.35999999999999999	0
bin	0.38	0
bin	0.40000000000000002	0
bin	0.42000000000000004	0
bin	0.44000000000000006	0
bin	0.45999999999999996	0
bin	0.47999999999999998	0
bin	0.5	0
statistic WirelessC.hostB.wlan[0].queue outgoingPacketLengths:histogram
field count 7
field mean 384
field stddev 0
field min 384
field max 384
field sum 2688
field sqrsum 1032192
bin	-inf	0
bin	383	0
bin	384	7
bin	385	0
statistic WirelessC.hostB.wlan[0].queue flowQueueingTime:histogram
field count 0
field mean -nan
field stddev nan
field min nan
field max nan
field sum 0
field sqrsum 0
bin	-inf	0
bin	0	0
bin	1	0
statistic WirelessC.hostB.wlan[0].queue incomingPacketLengths:histogram
field count 7
field mean 384
field stddev 0
field min 384
field max 384
field sum 2688
field sqrsum 1032192
bin	-inf	0
bin	383	0
bin	384	7
bin	385	0
statistic WirelessC.hostB.wlan[0].radio minSnir:histogram
field count 1134
field mean inf
field stddev -nan
field min 0
field max inf
field sum inf
field sqrsum inf
bin	-inf	0
bin	-0.5	0
bin	-0.47999999999999998	0
bin	-0.46000000000000002	0
bin	-0.44	0
bin	-0.41999999999999998	0
bin	-0.40000000000000002	0
bin	-0.38	0
bin	-0.35999999999999999	0
bin	-0.33999999999999997	0
bin	-0.32000000000000001	0
bin	-0.29999999999999999	0
bin	-0.28000000000000003	0
bin	-0.26000000000000001	0
bin	-0.23999999999999999	0
bin	-0.21999999999999997	0
bin	-0.20000000000000001	0
bin	-0.17999999999999999	0
bin	-0.15999999999999998	0
bin	-0.14000000000000001	0
bin	-0.12	0
bin	-0.099999999999999978	0
bin	-0.080000000000000016	0
bin	-0.059999999999999998	0
bin	-0.03999999999999998	0
bin	-0.020000000000000018	0
bin	0	5
bin	0.020000000000000018	0
bin	0.040000000000000036	0
bin	0.060000000000000053	0
bin	0.07999999999999996	0
bin	0.099999999999999978	0
bin	0.12	0
bin	0.14000000000000001	0
bin	0.16000000000000003	0
bin	0.18000000000000005	0
bin	0.20000000000000007	0
bin	0.21999999999999997	0
bin	0.23999999999999999	0
bin	0.26000000000000001	0
bin	0.28000000000000003	0
bin	0.30000000000000004	0
bin	0.32000000000000006	0
bin	0.33999999999999997	0
bin	0.35999999999999999	0
bin	0.38	0
bin	0.40000000000000002	0
bin	0.42000000000000004	0
bin	0.44000000000000006	0
bin	0.45999999999999996	0
bin	0.47999999999999998	0
bin	0.5	1129
statistic WirelessC.hostB.wlan[0].radio packetErrorRate:histogram
field count 1134
field mean 0.0044091710758377423
field stddev 0.066284272020060028
field min 0
field max 1
field sum 5
field sqrsum 5
bin	-inf	0
bin	0	1129
bin	1	5
bin	2	0
statistic WirelessC.hostB.wlan[0].radio bitErrorRate:histogram
field count 1134
field mean 0.0044091710758377423
field stddev 0.066284272020060028
field min 0
field max 1
field sum 5
field sqrsum 5
bin	-inf	0
bin	0	1129
bin	1	5
bin	2	0
statistic WirelessC.hostB.wlan[0].radio symbolErrorRate:histogram
field count 1134
field mean 0.0044091710758377423
field stddev 0.066284272020060028
field min 0
field max 1
field sum 5
field sqrsum 5
bin	-inf	0
bin	0	1129
bin	1	5
bin	2	0
statistic WirelessC.hostB.app[0] endToEndDelay:histogram
field count 475
field mean 0.70008190246138113
field stddev 0.7429269859116665
field min 0.21353758332
field max 4.7556302439740001
field sum 332.53890366915601
field sqrsum 494.42426835473077
bin	-inf	0
bin	0	0
bin	0.080000000000000002	0
bin	0.16	7
bin	0.23999999999999999	34
bin	0.32000000000000001	59
bin	0.40000000000000002	97
bin	0.47999999999999998	80
bin	0.56000000000000005	57
bin	0.64000000000000001	19
bin	0.71999999999999997	23
bin	0.80000000000000004	22
bin	0.88	16
bin	0.95999999999999996	15
bin	1.04	20
bin	1.1200000000000001	11
bin	1.2	0
bin	1.28	0
bin	1.3600000000000001	0
bin	1.4400000000000002	0
bin	1.52	0
[...]
scalar WirelessC.hostR3.wlan[0].queue outgoingDataRate:vector:min 0
scalar WirelessC.hostR3.wlan[0].queue outgoingDataRate:vector:max 493440.00000000006
scalar WirelessC.hostR3.wlan[0].queue outgoingDataRate:vector:starttime 0.10000000000000001
scalar WirelessC.hostR3.wlan[0].queue outgoingDataRate:vector:endtime 20
scalar WirelessC.hostR3.wlan[0].queue droppedPacketLengthsQueueOverflow:vector:count 28
scalar WirelessC.hostR3.wlan[0].queue droppedPacketLengthsQueueOverflow:vector:sum 230272
scalar WirelessC.hostR3.wlan[0].queue droppedPacketLengthsQueueOverflow:vector:sumweights 28
scalar WirelessC.hostR3.wlan[0].queue droppedPacketLengthsQueueOverflow:vector:mean 8224
scalar WirelessC.hostR3.wlan[0].queue droppedPacketLengthsQueueOverflow:vector:stddev 0
scalar WirelessC.hostR3.wlan[0].queue droppedPacketLengthsQueueOverflow:vector:min 8224
scalar WirelessC.hostR3.wlan[0].queue droppedPacketLengthsQueueOverflow:vector:max 8224
scalar WirelessC.hostR3.wlan[0].queue droppedPacketLengthsQueueOverflow:vector:starttime 19.469567814994004
scalar WirelessC.hostR3.wlan[0].queue droppedPacketLengthsQueueOverflow:vector:endtime 19.991559852835003
scalar WirelessC.hostR3.wlan[0].queue flowQueueingTime:vector:count 0
scalar WirelessC.hostR3.wlan[0].queue flowQueueingTime:vector:sum 0
scalar WirelessC.hostR3.wlan[0].queue flowQueueingTime:vector:sumweights 0
scalar WirelessC.hostR3.wlan[0].queue flowQueueingTime:vector:mean -nan
scalar WirelessC.hostR3.wlan[0].queue flowQueueingTime:vector:stddev nan
scalar WirelessC.hostR3.wlan[0].queue flowQueueingTime:vector:min inf
scalar WirelessC.hostR3.wlan[0].queue flowQueueingTime:vector:max -inf
scalar WirelessC.hostR3.wlan[0].queue flowQueueingTime:vector:starttime nan
scalar WirelessC.hostR3.wlan[0].queue flowQueueingTime:vector:endtime nan
scalar WirelessC.hostR3.wlan[0].queue flowIncomingDataRate:vector:count 200
scalar WirelessC.hostR3.wlan[0].queue flowIncomingDataRate:vector:sum 0
scalar WirelessC.hostR3.wlan[0].queue flowIncomingDataRate:vector:sumweights 200
scalar WirelessC.hostR3.wlan[0].queue flowIncomingDataRate:vector:mean 0
scalar WirelessC.hostR3.wlan[0].queue flowIncomingDataRate:vector:stddev 0
scalar WirelessC.hostR3.wlan[0].queue flowIncomingDataRate:vector:min 0
scalar WirelessC.hostR3.wlan[0].queue flowIncomingDataRate:vector:max 0
scalar WirelessC.hostR3.wlan[0].queue flowIncomingDataRate:vector:starttime 0.10000000000000001
scalar WirelessC.hostR3.wlan[0].queue flowIncomingDataRate:vector:endtime 20
scalar WirelessC.hostR3.wlan[0].queue flowOutgoingDataRate:vector:count 200
scalar WirelessC.hostR3.wlan[0].queue flowOutgoingDataRate:vector:sum 0
scalar WirelessC.hostR3.wlan[0].queue flowOutgoingDataRate:vector:sumweights 200
scalar WirelessC.hostR3.wlan[0].queue flowOutgoingDataRate:vector:mean 0
scalar WirelessC.hostR3.wlan[0].queue flowOutgoingDataRate:vector:stddev 0
scalar WirelessC.hostR3.wlan[0].queue flowOutgoingDataRate:vector:min 0
scalar WirelessC.hostR3.wlan[0].queue flowOutgoingDataRate:vector:max 0
scalar WirelessC.hostR3.wlan[0].queue flowOutgoingDataRate:vector:starttime 0.10000000000000001
scalar WirelessC.hostR3.wlan[0].queue flowOutgoingDataRate:vector:endtime 20
scalar WirelessC.hostR3.wlan[0].mac packetDropIncorrectlyReceived:vector(packetBytes):count 2
scalar WirelessC.hostR3.wlan[0].mac packetDropIncorrectlyReceived:vector(packetBytes):sum 2110
scalar WirelessC.hostR3.wlan[0].mac packetDropIncorrectlyReceived:vector(packetBytes):sumweights 2
scalar WirelessC.hostR3.wlan[0].mac packetDropIncorrectlyReceived:vector(packetBytes):mean 1055
scalar WirelessC.hostR3.wlan[0].mac packetDropIncorrectlyReceived:vector(packetBytes):stddev 0
scalar WirelessC.hostR3.wlan[0].mac packetDropIncorrectlyReceived:vector(packetBytes):min 1055
scalar WirelessC.hostR3.wlan[0].mac packetDropIncorrectlyReceived:vector(packetBytes):max 1055
scalar WirelessC.hostR3.wlan[0].mac packetDropIncorrectlyReceived:vector(packetBytes):starttime 0.91548581067800017
scalar WirelessC.hostR3.wlan[0].mac packetDropIncorrectlyReceived:vector(packetBytes):endtime 18.736344910313004
scalar WirelessC.hostR3.wlan[0].mac packetDropNotAddressedToUs:vector(packetBytes):count 348
scalar WirelessC.hostR3.wlan[0].mac packetDropNotAddressedToUs:vector(packetBytes):sum 357340
scalar WirelessC.hostR3.wlan[0].mac packetDropNotAddressedToUs:vector(packetBytes):sumweights 348
scalar WirelessC.hostR3.wlan[0].mac packetDropNotAddressedToUs:vector(packetBytes):mean 1026.83908045977
scalar WirelessC.hostR3.wlan[0].mac packetDropNotAddressedToUs:vector(packetBytes):stddev 163.95703897576183
scalar WirelessC.hostR3.wlan[0].mac packetDropNotAddressedToUs:vector(packetBytes):min 75
scalar WirelessC.hostR3.wlan[0].mac packetDropNotAddressedToUs:vector(packetBytes):max 1055
scalar WirelessC.hostR3.wlan[0].mac packetDropNotAddressedToUs:vector(packetBytes):starttime 0.34472920830000009
scalar WirelessC.hostR3.wlan[0].mac packetDropNotAddressedToUs:vector(packetBytes):endtime 18.574749152039004
scalar WirelessC.hostR3.wlan[0].mac packetDropQueueOverflow:vector(packetBytes):count 0
scalar WirelessC.hostR3.wlan[0].mac packetDropQueueOverflow:vector(packetBytes):sum 0
scalar WirelessC.hostR3.wlan[0].mac packetDropQueueOverflow:vector(packetBytes):sumweights 0
scalar WirelessC.hostR3.wlan[0].mac packetDropQueueOverflow:vector(packetBytes):mean -nan
scalar WirelessC.hostR3.wlan[0].mac packetDropQueueOverflow:vector(packetBytes):stddev nan
scalar WirelessC.hostR3.wlan[0].mac packetDropQueueOverflow:vector(packetBytes):min inf
scalar WirelessC.hostR3.wlan[0].mac packetDropQueueOverflow:vector(packetBytes):max -inf
scalar WirelessC.hostR3.wlan[0].mac packetDropQueueOverflow:vector(packetBytes):starttime nan
scalar WirelessC.hostR3.wlan[0].mac packetDropQueueOverflow:vector(packetBytes):endtime nan
scalar WirelessC.hostR3.wlan[0].mac packetDropRetryLimitReached:vector(packetBytes):count 0
scalar WirelessC.hostR3.wlan[0].mac packetDropRetryLimitReached:vector(packetBytes):sum 0
scalar WirelessC.hostR3.wlan[0].mac packetDropRetryLimitReached:vector(packetBytes):sumweights 0
scalar WirelessC.hostR3.wlan[0].mac packetDropRetryLimitReached:vector(packetBytes):mean -nan
scalar WirelessC.hostR3.wlan[0].mac packetDropRetryLimitReached:vector(packetBytes):stddev nan
scalar WirelessC.hostR3.wlan[0].mac packetDropRetryLimitReached:vector(packetBytes):min inf
scalar WirelessC.hostR3.wlan[0].mac packetDropRetryLimitReached:vector(packetBytes):max -inf
scalar WirelessC.hostR3.wlan[0].mac packetDropRetryLimitReached:vector(packetBytes):starttime nan
scalar WirelessC.hostR3.wlan[0].mac packetDropRetryLimitReached:vector(packetBytes):endtime nan
scalar WirelessC.hostR3.wlan[0].radio.energyConsumer powerConsumption:vector:count 9762
scalar WirelessC.hostR3.wlan[0].radio.energyConsumer powerConsumption:vector:sum 69.566000000002703
scalar WirelessC.hostR3.wlan[0].radio.energyConsumer powerConsumption:vector:sumweights 9762
scalar WirelessC.hostR3.wlan[0].radio.energyConsumer powerConsumption:vector:mean 0.0071262036467939667
scalar WirelessC.hostR3.wlan[0].radio.energyConsumer powerConsumption:vector:stddev 0.020010115557621097
scalar WirelessC.hostR3.wlan[0].radio.energyConsumer powerConsumption:vector:min 0
scalar WirelessC.hostR3.wlan[0].radio.energyConsumer powerConsumption:vector:max 0.10000000000000001
scalar WirelessC.hostR3.wlan[0].radio.energyConsumer powerConsumption:vector:starttime 0
scalar WirelessC.hostR3.wlan[0].radio.energyConsumer powerConsumption:vector:endtime 19.992019852835003
scalar WirelessC.hostR3.wlan[0].radio radioMode:vector:count 844
scalar WirelessC.hostR3.wlan[0].radio radioMode:vector:sum 2105
scalar WirelessC.hostR3.wlan[0].radio radioMode:vector:sumweights 844
scalar WirelessC.hostR3.wlan[0].radio radioMode:vector:mean 2.4940758293838861
scalar WirelessC.hostR3.wlan[0].radio radioMode:vector:stddev 0.51429203563775516
scalar WirelessC.hostR3.wlan[0].radio radioMode:vector:min 0
scalar WirelessC.hostR3.wlan[0].radio radioMode:vector:max 3
scalar WirelessC.hostR3.wlan[0].radio radioMode:vector:starttime 0
scalar WirelessC.hostR3.wlan[0].radio radioMode:vector:endtime 19.992019852835003
scalar WirelessC.hostR3.wlan[0].radio receptionState:vector:count 4431
scalar WirelessC.hostR3.wlan[0].radio receptionState:vector:sum 7528
scalar WirelessC.hostR3.wlan[0].radio receptionState:vector:sumweights 4431
scalar WirelessC.hostR3.wlan[0].radio receptionState:vector:mean 1.698939291356353
scalar WirelessC.hostR3.wlan[0].radio receptionState:vector:stddev 1.0836758170454246
scalar WirelessC.hostR3.wlan[0].radio receptionState:vector:min 0
scalar WirelessC.hostR3.wlan[0].radio receptionState:vector:max 3
scalar WirelessC.hostR3.wlan[0].radio receptionState:vector:starttime 0
scalar WirelessC.hostR3.wlan[0].radio receptionState:vector:endtime 19.992019852835003
scalar WirelessC.hostR3.wlan[0].radio transmissionState:vector:count 1682
scalar WirelessC.hostR3.wlan[0].radio transmissionState:vector:sum 1683
scalar WirelessC.hostR3.wlan[0].radio transmissionState:vector:sumweights 1682
scalar WirelessC.hostR3.wlan[0].radio transmissionState:vector:mean 1.0005945303210464
scalar WirelessC.hostR3.wlan[0].radio transmissionState:vector:stddev 0.70731682315793687
scalar WirelessC.hostR3.wlan[0].radio transmissionState:vector:min 0
scalar WirelessC.hostR3.wlan[0].radio transmissionState:vector:max 2
scalar WirelessC.hostR3.wlan[0].radio transmissionState:vector:starttime 0.34532996052600007
scalar WirelessC.hostR3.wlan[0].radio transmissionState:vector:endtime 19.992019852835003
scalar WirelessC.hostR3.wlan[0] packetDropInterfaceDown:vector(packetBytes):count 0
scalar WirelessC.hostR3.wlan[0] packetDropInterfaceDown:vector(packetBytes):sum 0
scalar WirelessC.hostR3.wlan[0] packetDropInterfaceDown:vector(packetBytes):sumweights 0
scalar WirelessC.hostR3.wlan[0] packetDropInterfaceDown:vector(packetBytes):mean -nan
scalar WirelessC.hostR3.wlan[0] packetDropInterfaceDown:vector(packetBytes):stddev nan
scalar WirelessC.hostR3.wlan[0] packetDropInterfaceDown:vector(packetBytes):min inf
scalar WirelessC.hostR3.wlan[0] packetDropInterfaceDown:vector(packetBytes):max -inf
scalar WirelessC.hostR3.wlan[0] packetDropInterfaceDown:vector(packetBytes):starttime nan
scalar WirelessC.hostR3.wlan[0] packetDropInterfaceDown:vector(packetBytes):endtime nan
scalar WirelessC.hostR3.wlan[0] packetDropNoCarrier:vector(packetBytes):count 0
scalar WirelessC.hostR3.wlan[0] packetDropNoCarrier:vector(packetBytes):sum 0
scalar WirelessC.hostR3.wlan[0] packetDropNoCarrier:vector(packetBytes):sumweights 0
scalar WirelessC.hostR3.wlan[0] packetDropNoCarrier:vector(packetBytes):mean -nan
scalar WirelessC.hostR3.wlan[0] packetDropNoCarrier:vector(packetBytes):stddev nan
scalar WirelessC.hostR3.wlan[0] packetDropNoCarrier:vector(packetBytes):min inf
scalar WirelessC.hostR3.wlan[0] packetDropNoCarrier:vector(packetBytes):max -inf
scalar WirelessC.hostR3.wlan[0] packetDropNoCarrier:vector(packetBytes):starttime nan
scalar WirelessC.hostR3.wlan[0] packetDropNoCarrier:vector(packetBytes):endtime nan
scalar WirelessC.hostR3.ipv4.ip packetDropAddressResolutionFailed:vector(packetBytes):count 0
scalar WirelessC.hostR3.ipv4.ip packetDropAddressResolutionFailed:vector(packetBytes):sum 0
scalar WirelessC.hostR3.ipv4.ip packetDropAddressResolutionFailed:vector(packetBytes):sumweights 0
scalar WirelessC.hostR3.ipv4.ip packetDropAddressResolutionFailed:vector(packetBytes):mean -nan
scalar WirelessC.hostR3.ipv4.ip packetDropAddressResolutionFailed:vector(packetBytes):stddev nan
scalar WirelessC.hostR3.ipv4.ip packetDropAddressResolutionFailed:vector(packetBytes):min inf
scalar WirelessC.hostR3.ipv4.ip packetDropAddressResolutionFailed:vector(packetBytes):max -inf
scalar WirelessC.hostR3.ipv4.ip packetDropAddressResolutionFailed:vector(packetBytes):starttime nan
scalar WirelessC.hostR3.ipv4.ip packetDropAddressResolutionFailed:vector(packetBytes):endtime nan
scalar WirelessC.hostR3.ipv4.ip packetDropHopLimitReached:vector(packetBytes):count 0
scalar WirelessC.hostR3.ipv4.ip packetDropHopLimitReached:vector(packetBytes):sum 0
scalar WirelessC.hostR3.ipv4.ip packetDropHopLimitReached:vector(packetBytes):sumweights 0
scalar WirelessC.hostR3.ipv4.ip packetDropHopLimitReached:vector(packetBytes):mean -nan
scalar WirelessC.hostR3.ipv4.ip packetDropHopLimitReached:vector(packetBytes):stddev nan
scalar WirelessC.hostR3.ipv4.ip packetDropHopLimitReached:vector(packetBytes):min inf
scalar WirelessC.hostR3.ipv4.ip packetDropHopLimitReached:vector(packetBytes):max -inf
scalar WirelessC.hostR3.ipv4.ip packetDropHopLimitReached:vector(packetBytes):starttime nan
scalar WirelessC.hostR3.ipv4.ip packetDropHopLimitReached:vector(packetBytes):endtime nan
scalar WirelessC.hostR3.ipv4.ip packetDropForwardingDisabled:vector(packetBytes):count 0
scalar WirelessC.hostR3.ipv4.ip packetDropForwardingDisabled:vector(packetBytes):sum 0
scalar WirelessC.hostR3.ipv4.ip packetDropForwardingDisabled:vector(packetBytes):sumweights 0
scalar WirelessC.hostR3.ipv4.ip packetDropForwardingDisabled:vector(packetBytes):mean -nan
scalar WirelessC.hostR3.ipv4.ip packetDropForwardingDisabled:vector(packetBytes):stddev nan
scalar WirelessC.hostR3.ipv4.ip packetDropForwardingDisabled:vector(packetBytes):min inf
scalar WirelessC.hostR3.ipv4.ip packetDropForwardingDisabled:vector(packetBytes):max -inf
scalar WirelessC.hostR3.ipv4.ip packetDropForwardingDisabled:vector(packetBytes):starttime nan
scalar WirelessC.hostR3.ipv4.ip packetDropForwardingDisabled:vector(packetBytes):endtime nan
scalar WirelessC.hostR3.ipv4.ip packetDropLifetimeExpired:vector(packetBytes):count 0
scalar WirelessC.hostR3.ipv4.ip packetDropLifetimeExpired:vector(packetBytes):sum 0
scalar WirelessC.hostR3.ipv4.ip packetDropLifetimeExpired:vector(packetBytes):sumweights 0
scalar WirelessC.hostR3.ipv4.ip packetDropLifetimeExpired:vector(packetBytes):mean -nan
scalar WirelessC.hostR3.ipv4.ip packetDropLifetimeExpired:vector(packetBytes):stddev nan
scalar WirelessC.hostR3.ipv4.ip packetDropLifetimeExpired:vector(packetBytes):min inf
scalar WirelessC.hostR3.ipv4.ip packetDropLifetimeExpired:vector(packetBytes):max -inf
scalar WirelessC.hostR3.ipv4.ip packetDropLifetimeExpired:vector(packetBytes):starttime nan
scalar WirelessC.hostR3.ipv4.ip packetDropLifetimeExpired:vector(packetBytes):endtime nan
scalar WirelessC.hostR3.ipv4.ip packetDropNoInterfaceFound:vector(packetBytes):count 0
scalar WirelessC.hostR3.ipv4.ip packetDropNoInterfaceFound:vector(packetBytes):sum 0
scalar WirelessC.hostR3.ipv4.ip packetDropNoInterfaceFound:vector(packetBytes):sumweights 0
scalar WirelessC.hostR3.ipv4.ip packetDropNoInterfaceFound:vector(packetBytes):mean -nan
scalar WirelessC.hostR3.ipv4.ip packetDropNoInterfaceFound:vector(packetBytes):stddev nan
scalar WirelessC.hostR3.ipv4.ip packetDropNoInterfaceFound:vector(packetBytes):min inf
scalar WirelessC.hostR3.ipv4.ip packetDropNoInterfaceFound:vector(packetBytes):max -inf
scalar WirelessC.hostR3.ipv4.ip packetDropNoInterfaceFound:vector(packetBytes):starttime nan
scalar WirelessC.hostR3.ipv4.ip packetDropNoInterfaceFound:vector(packetBytes):endtime nan
scalar WirelessC.hostR3.ipv4.ip packetDropNoRouteFound:vector(packetBytes):count 0
scalar WirelessC.hostR3.ipv4.ip packetDropNoRouteFound:vector(packetBytes):sum 0
scalar WirelessC.hostR3.ipv4.ip packetDropNoRouteFound:vector(packetBytes):sumweights 0
scalar WirelessC.hostR3.ipv4.ip packetDropNoRouteFound:vector(packetBytes):mean -nan
scalar WirelessC.hostR3.ipv4.ip packetDropNoRouteFound:vector(packetBytes):stddev nan
scalar WirelessC.hostR3.ipv4.ip packetDropNoRouteFound:vector(packetBytes):min inf
scalar WirelessC.hostR3.ipv4.ip packetDropNoRouteFound:vector(packetBytes):max -inf
scalar WirelessC.hostR3.ipv4.ip packetDropNoRouteFound:vector(packetBytes):starttime nan
scalar WirelessC.hostR3.ipv4.ip packetDropNoRouteFound:vector(packetBytes):endtime nan
scalar WirelessC.hostR3.ipv4.ip packetDropUndefined:vector(packetBytes):count 0
scalar WirelessC.hostR3.ipv4.ip packetDropUndefined:vector(packetBytes):sum 0
scalar WirelessC.hostR3.ipv4.ip packetDropUndefined:vector(packetBytes):sumweights 0
scalar WirelessC.hostR3.ipv4.ip packetDropUndefined:vector(packetBytes):mean -nan
scalar WirelessC.hostR3.ipv4.ip packetDropUndefined:vector(packetBytes):stddev nan
scalar WirelessC.hostR3.ipv4.ip packetDropUndefined:vector(packetBytes):min inf
scalar WirelessC.hostR3.ipv4.ip packetDropUndefined:vector(packetBytes):max -inf
scalar WirelessC.hostR3.ipv4.ip packetDropUndefined:vector(packetBytes):starttime nan
scalar WirelessC.hostR3.ipv4.ip packetDropUndefined:vector(packetBytes):endtime nan
scalar WirelessC.hostR3.udp packetSent:vector(packetBytes):count 12
scalar WirelessC.hostR3.udp packetSent:vector(packetBytes):sum 364
scalar WirelessC.hostR3.udp packetSent:vector(packetBytes):sumweights 12
scalar WirelessC.hostR3.udp packetSent:vector(packetBytes):mean 30.333333333333332
scalar WirelessC.hostR3.udp packetSent:vector(packetBytes):stddev 2.0597146021777353
scalar WirelessC.hostR3.udp packetSent:vector(packetBytes):min 28
scalar WirelessC.hostR3.udp packetSent:vector(packetBytes):max 32
scalar WirelessC.hostR3.udp packetSent:vector(packetBytes):starttime 0.34495618093900005
scalar WirelessC.hostR3.udp packetSent:vector(packetBytes):endtime 18.569295305055004
scalar WirelessC.hostR3.udp packetReceived:vector(packetBytes):count 22
scalar WirelessC.hostR3.udp packetReceived:vector(packetBytes):sum 680
scalar WirelessC.hostR3.udp packetReceived:vector(packetBytes):sumweights 22
scalar WirelessC.hostR3.udp packetReceived:vector(packetBytes):mean 30.90909090909091
scalar WirelessC.hostR3.udp packetReceived:vector(packetBytes):stddev 1.8233692233541856
scalar WirelessC.hostR3.udp packetReceived:vector(packetBytes):min 28
scalar WirelessC.hostR3.udp packetReceived:vector(packetBytes):max 32
scalar WirelessC.hostR3.udp packetReceived:vector(packetBytes):starttime 0.018999607570000004
scalar WirelessC.hostR3.udp packetReceived:vector(packetBytes):endtime 18.566463087566003
scalar WirelessC.hostR3.udp passedUpPk:vector(count):count 23
scalar WirelessC.hostR3.udp passedUpPk:vector(count):sum 253
scalar WirelessC.hostR3.udp passedUpPk:vector(count):sumweights 23
scalar WirelessC.hostR3.udp passedUpPk:vector(count):mean 11
scalar WirelessC.hostR3.udp passedUpPk:vector(count):stddev 6.7823299831252681
scalar WirelessC.hostR3.udp passedUpPk:vector(count):min 0
scalar WirelessC.hostR3.udp passedUpPk:vector(count):max 22
scalar WirelessC.hostR3.udp passedUpPk:vector(count):starttime 0
scalar WirelessC.hostR3.udp passedUpPk:vector(count):endtime 18.566463087566003
scalar WirelessC.hostR3.udp droppedPkWrongPort:vector(count):count 1
scalar WirelessC.hostR3.udp droppedPkWrongPort:vector(count):sum 0
scalar WirelessC.hostR3.udp droppedPkWrongPort:vector(count):sumweights 1
scalar WirelessC.hostR3.udp droppedPkWrongPort:vector(count):mean 0
scalar WirelessC.hostR3.udp droppedPkWrongPort:vector(count):stddev nan
scalar WirelessC.hostR3.udp droppedPkWrongPort:vector(count):min 0
scalar WirelessC.hostR3.udp droppedPkWrongPort:vector(count):max 0
scalar WirelessC.hostR3.udp droppedPkWrongPort:vector(count):starttime 0
scalar WirelessC.hostR3.udp droppedPkWrongPort:vector(count):endtime 0
scalar WirelessC.hostR3.udp droppedPkBadChecksum:vector(count):count 1
scalar WirelessC.hostR3.udp droppedPkBadChecksum:vector(count):sum 0
scalar WirelessC.hostR3.udp droppedPkBadChecksum:vector(count):sumweights 1
scalar WirelessC.hostR3.udp droppedPkBadChecksum:vector(count):mean 0
scalar WirelessC.hostR3.udp droppedPkBadChecksum:vector(count):stddev nan
scalar WirelessC.hostR3.udp droppedPkBadChecksum:vector(count):min 0
scalar WirelessC.hostR3.udp droppedPkBadChecksum:vector(count):max 0
scalar WirelessC.hostR3.udp droppedPkBadChecksum:vector(count):starttime 0
scalar WirelessC.hostR3.udp droppedPkBadChecksum:vector(count):endtime 0

