version 3
run MultiIPv6-0-20251118-11:51:31-111521
attr configname MultiIPv6
attr datetime 20251118-11:51:31
attr datetimef 20251118-115131
attr experiment MultiIPv6
attr inifile omnetpp.ini
attr iterationvars ""
attr iterationvarsd ""
attr iterationvarsf ""
attr measurement ""
attr network GPSRNetworkRandom
attr processid 111521
attr repetition 0
attr replication #0
attr resultdir results
attr runnumber 0
attr seedset 0
config **.param-recording false
config image-path /home/zoli/Projects/OMNET/inet/images
config output-scalar-file results/omnetpp.ini-MultiIPv6-#0.sca
config output-scalar-precision 17
config output-vector-file results/omnetpp.ini-MultiIPv6-#0.vec
config output-vector-precision 17
config record-eventlog false
config sim-time-limit 20s
config sim-time-limit 20s
config extends "Random, _Multi, _IPv6"
config network GPSRNetworkRandom
config *.numHosts 20
config **.host[*].mobility.typename StationaryMobility
config *.host[*].numApps 1
config *.host[*].app[0].typename PingApp
config *.host[*].app[0].startTime uniform(1s,5s)
config *.host[*].app[0].printPing true
config description "network layer for multiple network protocols"
config **.hasIpv4 true
config **.hasIpv6 true
config **.hasGn true
config **.generic.typename NextHopNetworkLayer
config description "base config for Ipv6"
config **.gpsr.networkProtocolModule "\"^.ipv6.ipv6\""
config **.gpsr.routingTableModule "\"^.ipv6.routingTable\""
config *.host[0].app[0].destAddr "\"host[1](ipv6)\""
config num-rngs 3
config **.mobility.rng-0 1
config **.wlan[*].mac.rng-0 2
config **.mobility.constraintAreaMinZ 0m
config **.mobility.constraintAreaMaxZ 0m
config **.mobility.constraintAreaMinX 0m
config **.mobility.constraintAreaMinY 0m
config **.mobility.constraintAreaMaxX 1000m
config **.mobility.constraintAreaMaxY 1000m
config **.wlan[*].bitrate 2Mbps
config **.wlan[*].mac.dcf.channelAccess.cwMin 7
config **.wlan[*].radio.transmitter.power 2mW

scalar GPSRNetworkRandom.radioMedium.propagation "Arrival computation count" 152665
scalar GPSRNetworkRandom.radioMedium "transmission count" 8035
scalar GPSRNetworkRandom.radioMedium "signal send count" 152665
scalar GPSRNetworkRandom.radioMedium "reception computation count" 152665
scalar GPSRNetworkRandom.radioMedium "interference computation count" 452433
scalar GPSRNetworkRandom.radioMedium "reception decision computation count" 24497
scalar GPSRNetworkRandom.radioMedium "listening decision computation count" 276847
scalar GPSRNetworkRandom.radioMedium "reception cache hit" 79.800231814717591
scalar GPSRNetworkRandom.radioMedium "interference cache hit" 66.666666666666671
scalar GPSRNetworkRandom.radioMedium "noise cache hit" 0
scalar GPSRNetworkRandom.radioMedium "snir cache hit" 50
scalar GPSRNetworkRandom.radioMedium "reception decision cache hit" 50
scalar GPSRNetworkRandom.radioMedium "reception result cache hit" 0
scalar GPSRNetworkRandom.host[0].lo[0].lo rcvdPkFromHl:count 0
scalar GPSRNetworkRandom.host[0].lo[0].lo rcvdPkFromHl:sum(packetBytes) 0
scalar GPSRNetworkRandom.host[0].lo[0].lo passedUpPk:count 0
scalar GPSRNetworkRandom.host[0].lo[0].lo passedUpPk:sum(packetBytes) 0
scalar GPSRNetworkRandom.host[0].lo[0] packetDropInterfaceDown:count 0
scalar GPSRNetworkRandom.host[0].lo[0] packetDropInterfaceDown:sum(packetBytes) 0
scalar GPSRNetworkRandom.host[0].lo[0] packetDropNoCarrier:count 0
scalar GPSRNetworkRandom.host[0].lo[0] packetDropNoCarrier:sum(packetBytes) 0
scalar GPSRNetworkRandom.host[0].wlan[0].mac.dcf.channelAccess.pendingQueue queueLength:last 0
scalar GPSRNetworkRandom.host[0].wlan[0].mac.dcf.channelAccess.pendingQueue queueLength:max 1
scalar GPSRNetworkRandom.host[0].wlan[0].mac.dcf.channelAccess.pendingQueue queueLength:timeavg 0.00017775536295000001
scalar GPSRNetworkRandom.host[0].wlan[0].mac.dcf.channelAccess.pendingQueue queueBitLength:last 0
scalar GPSRNetworkRandom.host[0].wlan[0].mac.dcf.channelAccess.pendingQueue queueBitLength:max 864
scalar GPSRNetworkRandom.host[0].wlan[0].mac.dcf.channelAccess.pendingQueue queueBitLength:timeavg 0.1535806335888
scalar GPSRNetworkRandom.host[0].wlan[0].mac.dcf.channelAccess.pendingQueue outgoingPackets:count 399
scalar GPSRNetworkRandom.host[0].wlan[0].mac.dcf.channelAccess.pendingQueue outgoingPacketLengths:sum 344672
scalar GPSRNetworkRandom.host[0].wlan[0].mac.dcf.channelAccess.pendingQueue incomingPackets:count 399
scalar GPSRNetworkRandom.host[0].wlan[0].mac.dcf.channelAccess.pendingQueue incomingPacketLengths:sum 344672
scalar GPSRNetworkRandom.host[0].wlan[0].mac.dcf.channelAccess.pendingQueue droppedPacketsQueueOverflow:count 0
scalar GPSRNetworkRandom.host[0].wlan[0].mac.dcf.channelAccess.pendingQueue droppedPacketLengthsQueueOverflow:sum 0
scalar GPSRNetworkRandom.host[0].wlan[0].mac.dcf.channelAccess.inProgressFrames queueLength:max 1
scalar GPSRNetworkRandom.host[0].wlan[0].mac.dcf.channelAccess.inProgressFrames queueLength:timeavg 0.012447200000000129
scalar GPSRNetworkRandom.host[0].wlan[0].mac.dcf.channelAccess.contention channelAccessGranted:count 399
scalar GPSRNetworkRandom.host[0].wlan[0].mac.dcf.channelAccess.contention stateChanged:count 6918
scalar GPSRNetworkRandom.host[0].wlan[0].mac.dcf.channelAccess channelOwnershipChanged:count 798
scalar GPSRNetworkRandom.host[0].wlan[0].mac.dcf.originatorMacDataService packetAggregated:count 0
scalar GPSRNetworkRandom.host[0].wlan[0].mac.dcf.originatorMacDataService packetFragmented:count 0
scalar GPSRNetworkRandom.host[0].wlan[0].mac.dcf.recipientMacDataService packetDeaggregated:count 0
scalar GPSRNetworkRandom.host[0].wlan[0].mac.dcf.recipientMacDataService packetDefragmented:count 608
scalar GPSRNetworkRandom.host[0].wlan[0].mac.dcf.recipientMacDataService packetDropDuplicateDetected:count 0
scalar GPSRNetworkRandom.host[0].wlan[0].mac.dcf.recipientMacDataService packetDropDuplicateDetected:sum(packetBytes) 0
scalar GPSRNetworkRandom.host[0].wlan[0].mac.dcf.recoveryProcedure retryLimitReached:count 0
scalar GPSRNetworkRandom.host[0].wlan[0].mac.dcf frameSequenceFinished:count 399
scalar GPSRNetworkRandom.host[0].wlan[0].mac.dcf packetReceivedFromPeer:count 608
scalar GPSRNetworkRandom.host[0].wlan[0].mac.dcf packetReceivedFromPeer:sum(packetBytes) 65648
scalar GPSRNetworkRandom.host[0].wlan[0].mac.dcf packetReceivedFromPeerUnicast:count 0
scalar GPSRNetworkRandom.host[0].wlan[0].mac.dcf packetReceivedFromPeerUnicast:sum(packetBytes) 0
scalar GPSRNetworkRandom.host[0].wlan[0].mac.dcf packetReceivedFromPeerMulticast:count 608
scalar GPSRNetworkRandom.host[0].wlan[0].mac.dcf packetReceivedFromPeerMulticast:sum(packetBytes) 65648
scalar GPSRNetworkRandom.host[0].wlan[0].mac.dcf packetReceivedFromPeerBroadcast:count 608
scalar GPSRNetworkRandom.host[0].wlan[0].mac.dcf packetReceivedFromPeerBroadcast:sum(packetBytes) 65648
scalar GPSRNetworkRandom.host[0].wlan[0].mac.dcf packetReceivedFromPeerWithRetry:count 0
scalar GPSRNetworkRandom.host[0].wlan[0].mac.dcf packetReceivedFromPeerWithRetry:sum(packetBytes) 0
scalar GPSRNetworkRandom.host[0].wlan[0].mac.dcf packetReceivedFromPeerWithoutRetry:count 608
scalar GPSRNetworkRandom.host[0].wlan[0].mac.dcf packetReceivedFromPeerWithoutRetry:sum(packetBytes) 65648
scalar GPSRNetworkRandom.host[0].wlan[0].mac.dcf packetSentToPeer:count 399
scalar GPSRNetworkRandom.host[0].wlan[0].mac.dcf packetSentToPeer:sum(packetBytes) 43084
scalar GPSRNetworkRandom.host[0].wlan[0].mac.dcf packetSentToPeerUnicast:count 0
scalar GPSRNetworkRandom.host[0].wlan[0].mac.dcf packetSentToPeerUnicast:sum(packetBytes) 0
scalar GPSRNetworkRandom.host[0].wlan[0].mac.dcf packetSentToPeerMulticast:count 399
scalar GPSRNetworkRandom.host[0].wlan[0].mac.dcf packetSentToPeerMulticast:sum(packetBytes) 43084
scalar GPSRNetworkRandom.host[0].wlan[0].mac.dcf packetSentToPeerBroadcast:count 399
scalar GPSRNetworkRandom.host[0].wlan[0].mac.dcf packetSentToPeerBroadcast:sum(packetBytes) 43084
scalar GPSRNetworkRandom.host[0].wlan[0].mac.dcf packetSentToPeerWithRetry:count 0
scalar GPSRNetworkRandom.host[0].wlan[0].mac.dcf packetSentToPeerWithRetry:sum(packetBytes) 0
scalar GPSRNetworkRandom.host[0].wlan[0].mac.dcf packetSentToPeerWithoutRetry:count 399
scalar GPSRNetworkRandom.host[0].wlan[0].mac.dcf packetSentToPeerWithoutRetry:sum(packetBytes) 43084
scalar GPSRNetworkRandom.host[0].wlan[0].mac.dcf packetDrop:count 0
scalar GPSRNetworkRandom.host[0].wlan[0].mac.dcf packetDrop:sum(packetBytes) 0
scalar GPSRNetworkRandom.host[0].wlan[0].mac.dcf packetDropNotAddressedToUs:count 0
scalar GPSRNetworkRandom.host[0].wlan[0].mac.dcf packetDropNotAddressedToUs:sum(packetBytes) 0
scalar GPSRNetworkRandom.host[0].wlan[0].mac.dcf packetDropQueueOverflow:count 0
scalar GPSRNetworkRandom.host[0].wlan[0].mac.dcf packetDropQueueOverflow:sum(packetBytes) 0
scalar GPSRNetworkRandom.host[0].wlan[0].mac.dcf packetDropRetryLimitReached:count 0
scalar GPSRNetworkRandom.host[0].wlan[0].mac.dcf packetDropRetryLimitReached:sum(packetBytes) 0
scalar GPSRNetworkRandom.host[0].wlan[0].mac.dcf linkBroken:count 0
scalar GPSRNetworkRandom.host[0].wlan[0].mac packetReceivedFromLower:count 794
scalar GPSRNetworkRandom.host[0].wlan[0].mac packetReceivedFromLower:sum(packetBytes) 85736
scalar GPSRNetworkRandom.host[0].wlan[0].mac packetSentToLower:count 399
scalar GPSRNetworkRandom.host[0].wlan[0].mac packetSentToLower:sum(packetBytes) 43084
scalar GPSRNetworkRandom.host[0].wlan[0].mac packetReceivedFromUpper:count 399
scalar GPSRNetworkRandom.host[0].wlan[0].mac packetReceivedFromUpper:sum(packetBytes) 31912
scalar GPSRNetworkRandom.host[0].wlan[0].mac packetSentToUpper:count 608
scalar GPSRNetworkRandom.host[0].wlan[0].mac packetSentToUpper:sum(packetBytes) 48624
scalar GPSRNetworkRandom.host[0].wlan[0].mac packetDrop:count 186
scalar GPSRNetworkRandom.host[0].wlan[0].mac packetDrop:sum(packetBytes) 20088
scalar GPSRNetworkRandom.host[0].wlan[0].mac packetDropIncorrectlyReceived:count 186
scalar GPSRNetworkRandom.host[0].wlan[0].mac packetDropIncorrectlyReceived:sum(packetBytes) 20088
scalar GPSRNetworkRandom.host[0].wlan[0].mac packetDropNotAddressedToUs:count 0
scalar GPSRNetworkRandom.host[0].wlan[0].mac packetDropNotAddressedToUs:sum(packetBytes) 0
scalar GPSRNetworkRandom.host[0].wlan[0].mac packetDropQueueOverflow:count 0
scalar GPSRNetworkRandom.host[0].wlan[0].mac packetDropQueueOverflow:sum(packetBytes) 0
scalar GPSRNetworkRandom.host[0].wlan[0].mac packetDropRetryLimitReached:count 0
scalar GPSRNetworkRandom.host[0].wlan[0].mac packetDropRetryLimitReached:sum(packetBytes) 0
scalar GPSRNetworkRandom.host[0].wlan[0].mac packetDropDuplicateDetected:count 0
scalar GPSRNetworkRandom.host[0].wlan[0].mac packetDropDuplicateDetected:sum(packetBytes) 0
scalar GPSRNetworkRandom.host[0].wlan[0].mac packetDropOther:count 0
scalar GPSRNetworkRandom.host[0].wlan[0].mac packetDropOther:sum(packetBytes) 0
scalar GPSRNetworkRandom.host[0].wlan[0].mac linkBroken:count 0
scalar GPSRNetworkRandom.host[0].wlan[0].radio radioMode:count 801
scalar GPSRNetworkRandom.host[0].wlan[0].radio receptionState:count 2485
scalar GPSRNetworkRandom.host[0].wlan[0].radio transmissionState:count 1596
scalar GPSRNetworkRandom.host[0].wlan[0] packetDropInterfaceDown:count 0
scalar GPSRNetworkRandom.host[0].wlan[0] packetDropInterfaceDown:sum(packetBytes) 0
scalar GPSRNetworkRandom.host[0].wlan[0] packetDropNoCarrier:count 0
scalar GPSRNetworkRandom.host[0].wlan[0] packetDropNoCarrier:sum(packetBytes) 0
scalar GPSRNetworkRandom.host[0].ipv4.ip packetDropAddressResolutionFailed:count 0
scalar GPSRNetworkRandom.host[0].ipv4.ip packetDropAddressResolutionFailed:sum(packetBytes) 0
scalar GPSRNetworkRandom.host[0].ipv4.ip packetDropHopLimitReached:count 0
scalar GPSRNetworkRandom.host[0].ipv4.ip packetDropHopLimitReached:sum(packetBytes) 0
scalar GPSRNetworkRandom.host[0].ipv4.ip packetDropForwardingDisabled:count 0
scalar GPSRNetworkRandom.host[0].ipv4.ip packetDropForwardingDisabled:sum(packetBytes) 0
scalar GPSRNetworkRandom.host[0].ipv4.ip packetDropLifetimeExpired:count 0
scalar GPSRNetworkRandom.host[0].ipv4.ip packetDropLifetimeExpired:sum(packetBytes) 0
scalar GPSRNetworkRandom.host[0].ipv4.ip packetDropNoInterfaceFound:count 0
scalar GPSRNetworkRandom.host[0].ipv4.ip packetDropNoInterfaceFound:sum(packetBytes) 0
scalar GPSRNetworkRandom.host[0].ipv4.ip packetDropNoRouteFound:count 0
scalar GPSRNetworkRandom.host[0].ipv4.ip packetDropNoRouteFound:sum(packetBytes) 0
scalar GPSRNetworkRandom.host[0].ipv4.ip packetDropUndefined:count 0
scalar GPSRNetworkRandom.host[0].ipv4.ip packetDropUndefined:sum(packetBytes) 0
scalar GPSRNetworkRandom.host[0].ipv4.arp arpResolutionFailed:count 0
scalar GPSRNetworkRandom.host[0].ipv4.arp arpResolutionCompleted:count 0
scalar GPSRNetworkRandom.host[0].ipv4.arp arpResolutionInitiated:count 0
scalar GPSRNetworkRandom.host[0].ipv4.arp arpReplySent:count 0
scalar GPSRNetworkRandom.host[0].ipv4.arp arpReplySent:sum(packetBytes) 0
scalar GPSRNetworkRandom.host[0].ipv4.arp arpRequestSent:count 0
scalar GPSRNetworkRandom.host[0].ipv4.arp arpRequestSent:sum(packetBytes) 0
scalar GPSRNetworkRandom.host[0].ipv6.neighbourDiscovery startDad:count 1
scalar GPSRNetworkRandom.host[0].udp packetReceived:count 0
scalar GPSRNetworkRandom.host[0].udp packetReceived:sum(packetBytes) 0
scalar GPSRNetworkRandom.host[0].udp packetSent:count 0
scalar GPSRNetworkRandom.host[0].udp packetSent:sum(packetBytes) 0
scalar GPSRNetworkRandom.host[0].udp passedUpPk:count 0
scalar GPSRNetworkRandom.host[0].udp droppedPkWrongPort:count 0
scalar GPSRNetworkRandom.host[0].udp droppedPkBadChecksum:count 0
scalar GPSRNetworkRandom.host[0].app[0] "Pings sent" 17
scalar GPSRNetworkRandom.host[0].app[0] "ping loss rate (%)" 100
scalar GPSRNetworkRandom.host[0].app[0] "ping out-of-order rate (%)" 0
scalar GPSRNetworkRandom.host[0].app[0] pingRxSeq:count 0
scalar GPSRNetworkRandom.host[0].app[0] pingTxSeq:count 17
scalar GPSRNetworkRandom.host[0].app[0] numOutOfOrderArrivals:last nan
scalar GPSRNetworkRandom.host[0].app[0] numLost:last nan
scalar GPSRNetworkRandom.host[1].lo[0].lo rcvdPkFromHl:count 0
scalar GPSRNetworkRandom.host[1].lo[0].lo rcvdPkFromHl:sum(packetBytes) 0
scalar GPSRNetworkRandom.host[1].lo[0].lo passedUpPk:count 0
scalar GPSRNetworkRandom.host[1].lo[0].lo passedUpPk:sum(packetBytes) 0
scalar GPSRNetworkRandom.host[1].lo[0] packetDropInterfaceDown:count 0
scalar GPSRNetworkRandom.host[1].lo[0] packetDropInterfaceDown:sum(packetBytes) 0
scalar GPSRNetworkRandom.host[1].lo[0] packetDropNoCarrier:count 0
scalar GPSRNetworkRandom.host[1].lo[0] packetDropNoCarrier:sum(packetBytes) 0
scalar GPSRNetworkRandom.host[1].wlan[0].mac.dcf.channelAccess.pendingQueue queueLength:last 0
scalar GPSRNetworkRandom.host[1].wlan[0].mac.dcf.channelAccess.pendingQueue queueLength:max 1
scalar GPSRNetworkRandom.host[1].wlan[0].mac.dcf.channelAccess.pendingQueue queueLength:timeavg 0.00032539855934999998
scalar GPSRNetworkRandom.host[1].wlan[0].mac.dcf.channelAccess.pendingQueue queueBitLength:last 0
scalar GPSRNetworkRandom.host[1].wlan[0].mac.dcf.channelAccess.pendingQueue queueBitLength:max 864
scalar GPSRNetworkRandom.host[1].wlan[0].mac.dcf.channelAccess.pendingQueue queueBitLength:timeavg 0.28114435527839998
scalar GPSRNetworkRandom.host[1].wlan[0].mac.dcf.channelAccess.pendingQueue outgoingPackets:count 408
scalar GPSRNetworkRandom.host[1].wlan[0].mac.dcf.channelAccess.pendingQueue outgoingPacketLengths:sum 352448
scalar GPSRNetworkRandom.host[1].wlan[0].mac.dcf.channelAccess.pendingQueue incomingPackets:count 408
scalar GPSRNetworkRandom.host[1].wlan[0].mac.dcf.channelAccess.pendingQueue incomingPacketLengths:sum 352448
scalar GPSRNetworkRandom.host[1].wlan[0].mac.dcf.channelAccess.pendingQueue droppedPacketsQueueOverflow:count 0
scalar GPSRNetworkRandom.host[1].wlan[0].mac.dcf.channelAccess.pendingQueue droppedPacketLengthsQueueOverflow:sum 0
scalar GPSRNetworkRandom.host[1].wlan[0].mac.dcf.channelAccess.inProgressFrames queueLength:max 1
scalar GPSRNetworkRandom.host[1].wlan[0].mac.dcf.channelAccess.inProgressFrames queueLength:timeavg 0.012728000000000133
scalar GPSRNetworkRandom.host[1].wlan[0].mac.dcf.channelAccess.contention channelAccessGranted:count 408
scalar GPSRNetworkRandom.host[1].wlan[0].mac.dcf.channelAccess.contention stateChanged:count 8270
scalar GPSRNetworkRandom.host[1].wlan[0].mac.dcf.channelAccess channelOwnershipChanged:count 816
scalar GPSRNetworkRandom.host[1].wlan[0].mac.dcf.originatorMacDataService packetAggregated:count 0
scalar GPSRNetworkRandom.host[1].wlan[0].mac.dcf.originatorMacDataService packetFragmented:count 0
scalar GPSRNetworkRandom.host[1].wlan[0].mac.dcf.recipientMacDataService packetDeaggregated:count 0
scalar GPSRNetworkRandom.host[1].wlan[0].mac.dcf.recipientMacDataService packetDefragmented:count 1137
scalar GPSRNetworkRandom.host[1].wlan[0].mac.dcf.recipientMacDataService packetDropDuplicateDetected:count 0
scalar GPSRNetworkRandom.host[1].wlan[0].mac.dcf.recipientMacDataService packetDropDuplicateDetected:sum(packetBytes) 0
scalar GPSRNetworkRandom.host[1].wlan[0].mac.dcf.recoveryProcedure retryLimitReached:count 0
scalar GPSRNetworkRandom.host[1].wlan[0].mac.dcf frameSequenceFinished:count 408
scalar GPSRNetworkRandom.host[1].wlan[0].mac.dcf packetReceivedFromPeer:count 1137
scalar GPSRNetworkRandom.host[1].wlan[0].mac.dcf packetReceivedFromPeer:sum(packetBytes) 122780
scalar GPSRNetworkRandom.host[1].wlan[0].mac.dcf packetReceivedFromPeerUnicast:count 0
scalar GPSRNetworkRandom.host[1].wlan[0].mac.dcf packetReceivedFromPeerUnicast:sum(packetBytes) 0
scalar GPSRNetworkRandom.host[1].wlan[0].mac.dcf packetReceivedFromPeerMulticast:count 1137
scalar GPSRNetworkRandom.host[1].wlan[0].mac.dcf packetReceivedFromPeerMulticast:sum(packetBytes) 122780
scalar GPSRNetworkRandom.host[1].wlan[0].mac.dcf packetReceivedFromPeerBroadcast:count 1137
scalar GPSRNetworkRandom.host[1].wlan[0].mac.dcf packetReceivedFromPeerBroadcast:sum(packetBytes) 122780
scalar GPSRNetworkRandom.host[1].wlan[0].mac.dcf packetReceivedFromPeerWithRetry:count 0
scalar GPSRNetworkRandom.host[1].wlan[0].mac.dcf packetReceivedFromPeerWithRetry:sum(packetBytes) 0
scalar GPSRNetworkRandom.host[1].wlan[0].mac.dcf packetReceivedFromPeerWithoutRetry:count 1137
scalar GPSRNetworkRandom.host[1].wlan[0].mac.dcf packetReceivedFromPeerWithoutRetry:sum(packetBytes) 122780
scalar GPSRNetworkRandom.host[1].wlan[0].mac.dcf packetSentToPeer:count 408
scalar GPSRNetworkRandom.host[1].wlan[0].mac.dcf packetSentToPeer:sum(packetBytes) 44056
scalar GPSRNetworkRandom.host[1].wlan[0].mac.dcf packetSentToPeerUnicast:count 0
scalar GPSRNetworkRandom.host[1].wlan[0].mac.dcf packetSentToPeerUnicast:sum(packetBytes) 0
scalar GPSRNetworkRandom.host[1].wlan[0].mac.dcf packetSentToPeerMulticast:count 408
scalar GPSRNetworkRandom.host[1].wlan[0].mac.dcf packetSentToPeerMulticast:sum(packetBytes) 44056
scalar GPSRNetworkRandom.host[1].wlan[0].mac.dcf packetSentToPeerBroadcast:count 408
scalar GPSRNetworkRandom.host[1].wlan[0].mac.dcf packetSentToPeerBroadcast:sum(packetBytes) 44056
scalar GPSRNetworkRandom.host[1].wlan[0].mac.dcf packetSentToPeerWithRetry:count 0
scalar GPSRNetworkRandom.host[1].wlan[0].mac.dcf packetSentToPeerWithRetry:sum(packetBytes) 0
scalar GPSRNetworkRandom.host[1].wlan[0].mac.dcf packetSentToPeerWithoutRetry:count 408
scalar GPSRNetworkRandom.host[1].wlan[0].mac.dcf packetSentToPeerWithoutRetry:sum(packetBytes) 44056
scalar GPSRNetworkRandom.host[1].wlan[0].mac.dcf packetDrop:count 0
scalar GPSRNetworkRandom.host[1].wlan[0].mac.dcf packetDrop:sum(packetBytes) 0
scalar GPSRNetworkRandom.host[1].wlan[0].mac.dcf packetDropNotAddressedToUs:count 0
scalar GPSRNetworkRandom.host[1].wlan[0].mac.dcf packetDropNotAddressedToUs:sum(packetBytes) 0
scalar GPSRNetworkRandom.host[1].wlan[0].mac.dcf packetDropQueueOverflow:count 0
scalar GPSRNetworkRandom.host[1].wlan[0].mac.dcf packetDropQueueOverflow:sum(packetBytes) 0
scalar GPSRNetworkRandom.host[1].wlan[0].mac.dcf packetDropRetryLimitReached:count 0
scalar GPSRNetworkRandom.host[1].wlan[0].mac.dcf packetDropRetryLimitReached:sum(packetBytes) 0
scalar GPSRNetworkRandom.host[1].wlan[0].mac.dcf linkBroken:count 0
scalar GPSRNetworkRandom.host[1].wlan[0].mac packetReceivedFromLower:count 1213
scalar GPSRNetworkRandom.host[1].wlan[0].mac packetReceivedFromLower:sum(packetBytes) 130980
scalar GPSRNetworkRandom.host[1].wlan[0].mac packetSentToLower:count 408
scalar GPSRNetworkRandom.host[1].wlan[0].mac packetSentToLower:sum(packetBytes) 44056
scalar GPSRNetworkRandom.host[1].wlan[0].mac packetReceivedFromUpper:count 408
scalar GPSRNetworkRandom.host[1].wlan[0].mac packetReceivedFromUpper:sum(packetBytes) 32632
scalar GPSRNetworkRandom.host[1].wlan[0].mac packetSentToUpper:count 1137
scalar GPSRNetworkRandom.host[1].wlan[0].mac packetSentToUpper:sum(packetBytes) 90944
scalar GPSRNetworkRandom.host[1].wlan[0].mac packetDrop:count 76
scalar GPSRNetworkRandom.host[1].wlan[0].mac packetDrop:sum(packetBytes) 8200
scalar GPSRNetworkRandom.host[1].wlan[0].mac packetDropIncorrectlyReceived:count 76
scalar GPSRNetworkRandom.host[1].wlan[0].mac packetDropIncorrectlyReceived:sum(packetBytes) 8200
scalar GPSRNetworkRandom.host[1].wlan[0].mac packetDropNotAddressedToUs:count 0
scalar GPSRNetworkRandom.host[1].wlan[0].mac packetDropNotAddressedToUs:sum(packetBytes) 0
scalar GPSRNetworkRandom.host[1].wlan[0].mac packetDropQueueOverflow:count 0
scalar GPSRNetworkRandom.host[1].wlan[0].mac packetDropQueueOverflow:sum(packetBytes) 0
scalar GPSRNetworkRandom.host[1].wlan[0].mac packetDropRetryLimitReached:count 0
scalar GPSRNetworkRandom.host[1].wlan[0].mac packetDropRetryLimitReached:sum(packetBytes) 0
scalar GPSRNetworkRandom.host[1].wlan[0].mac packetDropDuplicateDetected:count 0
scalar GPSRNetworkRandom.host[1].wlan[0].mac packetDropDuplicateDetected:sum(packetBytes) 0
scalar GPSRNetworkRandom.host[1].wlan[0].mac packetDropOther:count 0
scalar GPSRNetworkRandom.host[1].wlan[0].mac packetDropOther:sum(packetBytes) 0
scalar GPSRNetworkRandom.host[1].wlan[0].mac linkBroken:count 0
scalar GPSRNetworkRandom.host[1].wlan[0].radio radioMode:count 819
scalar GPSRNetworkRandom.host[1].wlan[0].radio receptionState:count 3243
scalar GPSRNetworkRandom.host[1].wlan[0].radio transmissionState:count 1632
scalar GPSRNetworkRandom.host[1].wlan[0] packetDropInterfaceDown:count 0
scalar GPSRNetworkRandom.host[1].wlan[0] packetDropInterfaceDown:sum(packetBytes) 0
scalar GPSRNetworkRandom.host[1].wlan[0] packetDropNoCarrier:count 0
scalar GPSRNetworkRandom.host[1].wlan[0] packetDropNoCarrier:sum(packetBytes) 0
scalar GPSRNetworkRandom.host[1].ipv4.ip packetDropAddressResolutionFailed:count 0
scalar GPSRNetworkRandom.host[1].ipv4.ip packetDropAddressResolutionFailed:sum(packetBytes) 0
scalar GPSRNetworkRandom.host[1].ipv4.ip packetDropHopLimitReached:count 0
scalar GPSRNetworkRandom.host[1].ipv4.ip packetDropHopLimitReached:sum(packetBytes) 0
scalar GPSRNetworkRandom.host[1].ipv4.ip packetDropForwardingDisabled:count 0
scalar GPSRNetworkRandom.host[1].ipv4.ip packetDropForwardingDisabled:sum(packetBytes) 0
scalar GPSRNetworkRandom.host[1].ipv4.ip packetDropLifetimeExpired:count 0
scalar GPSRNetworkRandom.host[1].ipv4.ip packetDropLifetimeExpired:sum(packetBytes) 0
scalar GPSRNetworkRandom.host[1].ipv4.ip packetDropNoInterfaceFound:count 0
scalar GPSRNetworkRandom.host[1].ipv4.ip packetDropNoInterfaceFound:sum(packetBytes) 0
scalar GPSRNetworkRandom.host[1].ipv4.ip packetDropNoRouteFound:count 0
scalar GPSRNetworkRandom.host[1].ipv4.ip packetDropNoRouteFound:sum(packetBytes) 0
scalar GPSRNetworkRandom.host[1].ipv4.ip packetDropUndefined:count 0
scalar GPSRNetworkRandom.host[1].ipv4.ip packetDropUndefined:sum(packetBytes) 0
scalar GPSRNetworkRandom.host[1].ipv4.arp arpResolutionFailed:count 0
scalar GPSRNetworkRandom.host[1].ipv4.arp arpResolutionCompleted:count 0
scalar GPSRNetworkRandom.host[1].ipv4.arp arpResolutionInitiated:count 0
scalar GPSRNetworkRandom.host[1].ipv4.arp arpReplySent:count 0
scalar GPSRNetworkRandom.host[1].ipv4.arp arpReplySent:sum(packetBytes) 0
scalar GPSRNetworkRandom.host[1].ipv4.arp arpRequestSent:count 0
scalar GPSRNetworkRandom.host[1].ipv4.arp arpRequestSent:sum(packetBytes) 0
scalar GPSRNetworkRandom.host[1].ipv6.neighbourDiscovery startDad:count 1
scalar GPSRNetworkRandom.host[1].udp packetReceived:count 0
scalar GPSRNetworkRandom.host[1].udp packetReceived:sum(packetBytes) 0
scalar GPSRNetworkRandom.host[1].udp packetSent:count 0
scalar GPSRNetworkRandom.host[1].udp packetSent:sum(packetBytes) 0
scalar GPSRNetworkRandom.host[1].udp passedUpPk:count 0
scalar GPSRNetworkRandom.host[1].udp droppedPkWrongPort:count 0
scalar GPSRNetworkRandom.host[1].udp droppedPkBadChecksum:count 0
scalar GPSRNetworkRandom.host[1].app[0] pingRxSeq:count 0
scalar GPSRNetworkRandom.host[1].app[0] pingTxSeq:count 0
scalar GPSRNetworkRandom.host[1].app[0] numOutOfOrderArrivals:last nan
scalar GPSRNetworkRandom.host[1].app[0] numLost:last nan
scalar GPSRNetworkRandom.host[2].lo[0].lo rcvdPkFromHl:count 0
scalar GPSRNetworkRandom.host[2].lo[0].lo rcvdPkFromHl:sum(packetBytes) 0
scalar GPSRNetworkRandom.host[2].lo[0].lo passedUpPk:count 0
scalar GPSRNetworkRandom.host[2].lo[0].lo passedUpPk:sum(packetBytes) 0
scalar GPSRNetworkRandom.host[2].lo[0] packetDropInterfaceDown:count 0
scalar GPSRNetworkRandom.host[2].lo[0] packetDropInterfaceDown:sum(packetBytes) 0
scalar GPSRNetworkRandom.host[2].lo[0] packetDropNoCarrier:count 0
scalar GPSRNetworkRandom.host[2].lo[0] packetDropNoCarrier:sum(packetBytes) 0
scalar GPSRNetworkRandom.host[2].wlan[0].mac.dcf.channelAccess.pendingQueue queueLength:last 0
scalar GPSRNetworkRandom.host[2].wlan[0].mac.dcf.channelAccess.pendingQueue queueLength:max 1
scalar GPSRNetworkRandom.host[2].wlan[0].mac.dcf.channelAccess.pendingQueue queueLength:timeavg 0.00028913149600000006
scalar GPSRNetworkRandom.host[2].wlan[0].mac.dcf.channelAccess.pendingQueue queueBitLength:last 0
scalar GPSRNetworkRandom.host[2].wlan[0].mac.dcf.channelAccess.pendingQueue queueBitLength:max 864
scalar GPSRNetworkRandom.host[2].wlan[0].mac.dcf.channelAccess.pendingQueue queueBitLength:timeavg 0.249809612544
scalar GPSRNetworkRandom.host[2].wlan[0].mac.dcf.channelAccess.pendingQueue outgoingPackets:count 396
scalar GPSRNetworkRandom.host[2].wlan[0].mac.dcf.channelAccess.pendingQueue outgoingPacketLengths:sum 342080
scalar GPSRNetworkRandom.host[2].wlan[0].mac.dcf.channelAccess.pendingQueue incomingPackets:count 396
scalar GPSRNetworkRandom.host[2].wlan[0].mac.dcf.channelAccess.pendingQueue incomingPacketLengths:sum 342080
scalar GPSRNetworkRandom.host[2].wlan[0].mac.dcf.channelAccess.pendingQueue droppedPacketsQueueOverflow:count 0
scalar GPSRNetworkRandom.host[2].wlan[0].mac.dcf.channelAccess.pendingQueue droppedPacketLengthsQueueOverflow:sum 0
scalar GPSRNetworkRandom.host[2].wlan[0].mac.dcf.channelAccess.inProgressFrames queueLength:max 1
scalar GPSRNetworkRandom.host[2].wlan[0].mac.dcf.channelAccess.inProgressFrames queueLength:timeavg 0.012353600000000128
scalar GPSRNetworkRandom.host[2].wlan[0].mac.dcf.channelAccess.contention channelAccessGranted:count 396
scalar GPSRNetworkRandom.host[2].wlan[0].mac.dcf.channelAccess.contention stateChanged:count 7874
scalar GPSRNetworkRandom.host[2].wlan[0].mac.dcf.channelAccess channelOwnershipChanged:count 792
scalar GPSRNetworkRandom.host[2].wlan[0].mac.dcf.originatorMacDataService packetAggregated:count 0
scalar GPSRNetworkRandom.host[2].wlan[0].mac.dcf.originatorMacDataService packetFragmented:count 0
scalar GPSRNetworkRandom.host[2].wlan[0].mac.dcf.recipientMacDataService packetDeaggregated:count 0
scalar GPSRNetworkRandom.host[2].wlan[0].mac.dcf.recipientMacDataService packetDefragmented:count 591
scalar GPSRNetworkRandom.host[2].wlan[0].mac.dcf.recipientMacDataService packetDropDuplicateDetected:count 0
scalar GPSRNetworkRandom.host[2].wlan[0].mac.dcf.recipientMacDataService packetDropDuplicateDetected:sum(packetBytes) 0
scalar GPSRNetworkRandom.host[2].wlan[0].mac.dcf.recoveryProcedure retryLimitReached:count 0
scalar GPSRNetworkRandom.host[2].wlan[0].mac.dcf frameSequenceFinished:count 396
scalar GPSRNetworkRandom.host[2].wlan[0].mac.dcf packetReceivedFromPeer:count 591
scalar GPSRNetworkRandom.host[2].wlan[0].mac.dcf packetReceivedFromPeer:sum(packetBytes) 63828
scalar GPSRNetworkRandom.host[2].wlan[0].mac.dcf packetReceivedFromPeerUnicast:count 0
scalar GPSRNetworkRandom.host[2].wlan[0].mac.dcf packetReceivedFromPeerUnicast:sum(packetBytes) 0
scalar GPSRNetworkRandom.host[2].wlan[0].mac.dcf packetReceivedFromPeerMulticast:count 591
scalar GPSRNetworkRandom.host[2].wlan[0].mac.dcf packetReceivedFromPeerMulticast:sum(packetBytes) 63828
scalar GPSRNetworkRandom.host[2].wlan[0].mac.dcf packetReceivedFromPeerBroadcast:count 591
scalar GPSRNetworkRandom.host[2].wlan[0].mac.dcf packetReceivedFromPeerBroadcast:sum(packetBytes) 63828
scalar GPSRNetworkRandom.host[2].wlan[0].mac.dcf packetReceivedFromPeerWithRetry:count 0
scalar GPSRNetworkRandom.host[2].wlan[0].mac.dcf packetReceivedFromPeerWithRetry:sum(packetBytes) 0
scalar GPSRNetworkRandom.host[2].wlan[0].mac.dcf packetReceivedFromPeerWithoutRetry:count 591
scalar GPSRNetworkRandom.host[2].wlan[0].mac.dcf packetReceivedFromPeerWithoutRetry:sum(packetBytes) 63828
scalar GPSRNetworkRandom.host[2].wlan[0].mac.dcf packetSentToPeer:count 396
scalar GPSRNetworkRandom.host[2].wlan[0].mac.dcf packetSentToPeer:sum(packetBytes) 42760
scalar GPSRNetworkRandom.host[2].wlan[0].mac.dcf packetSentToPeerUnicast:count 0
scalar GPSRNetworkRandom.host[2].wlan[0].mac.dcf packetSentToPeerUnicast:sum(packetBytes) 0
scalar GPSRNetworkRandom.host[2].wlan[0].mac.dcf packetSentToPeerMulticast:count 396
scalar GPSRNetworkRandom.host[2].wlan[0].mac.dcf packetSentToPeerMulticast:sum(packetBytes) 42760
scalar GPSRNetworkRandom.host[2].wlan[0].mac.dcf packetSentToPeerBroadcast:count 396
scalar GPSRNetworkRandom.host[2].wlan[0].mac.dcf packetSentToPeerBroadcast:sum(packetBytes) 42760
scalar GPSRNetworkRandom.host[2].wlan[0].mac.dcf packetSentToPeerWithRetry:count 0
scalar GPSRNetworkRandom.host[2].wlan[0].mac.dcf packetSentToPeerWithRetry:sum(packetBytes) 0
scalar GPSRNetworkRandom.host[2].wlan[0].mac.dcf packetSentToPeerWithoutRetry:count 396
scalar GPSRNetworkRandom.host[2].wlan[0].mac.dcf packetSentToPeerWithoutRetry:sum(packetBytes) 42760
scalar GPSRNetworkRandom.host[2].wlan[0].mac.dcf packetDrop:count 0
scalar GPSRNetworkRandom.host[2].wlan[0].mac.dcf packetDrop:sum(packetBytes) 0
scalar GPSRNetworkRandom.host[2].wlan[0].mac.dcf packetDropNotAddressedToUs:count 0
scalar GPSRNetworkRandom.host[2].wlan[0].mac.dcf packetDropNotAddressedToUs:sum(packetBytes) 0
scalar GPSRNetworkRandom.host[2].wlan[0].mac.dcf packetDropQueueOverflow:count 0
scalar GPSRNetworkRandom.host[2].wlan[0].mac.dcf packetDropQueueOverflow:sum(packetBytes) 0
scalar GPSRNetworkRandom.host[2].wlan[0].mac.dcf packetDropRetryLimitReached:count 0
scalar GPSRNetworkRandom.host[2].wlan[0].mac.dcf packetDropRetryLimitReached:sum(packetBytes) 0
scalar GPSRNetworkRandom.host[2].wlan[0].mac.dcf linkBroken:count 0
scalar GPSRNetworkRandom.host[2].wlan[0].mac packetReceivedFromLower:count 805
scalar GPSRNetworkRandom.host[2].wlan[0].mac packetReceivedFromLower:sum(packetBytes) 86924
scalar GPSRNetworkRandom.host[2].wlan[0].mac packetSentToLower:count 396
scalar GPSRNetworkRandom.host[2].wlan[0].mac packetSentToLower:sum(packetBytes) 42760
scalar GPSRNetworkRandom.host[2].wlan[0].mac packetReceivedFromUpper:count 396
scalar GPSRNetworkRandom.host[2].wlan[0].mac packetReceivedFromUpper:sum(packetBytes) 31672
scalar GPSRNetworkRandom.host[2].wlan[0].mac packetSentToUpper:count 591
scalar GPSRNetworkRandom.host[2].wlan[0].mac packetSentToUpper:sum(packetBytes) 47280
scalar GPSRNetworkRandom.host[2].wlan[0].mac packetDrop:count 214
scalar GPSRNetworkRandom.host[2].wlan[0].mac packetDrop:sum(packetBytes) 23096
scalar GPSRNetworkRandom.host[2].wlan[0].mac packetDropIncorrectlyReceived:count 214
scalar GPSRNetworkRandom.host[2].wlan[0].mac packetDropIncorrectlyReceived:sum(packetBytes) 23096
scalar GPSRNetworkRandom.host[2].wlan[0].mac packetDropNotAddressedToUs:count 0
scalar GPSRNetworkRandom.host[2].wlan[0].mac packetDropNotAddressedToUs:sum(packetBytes) 0
scalar GPSRNetworkRandom.host[2].wlan[0].mac packetDropQueueOverflow:count 0
scalar GPSRNetworkRandom.host[2].wlan[0].mac packetDropQueueOverflow:sum(packetBytes) 0
scalar GPSRNetworkRandom.host[2].wlan[0].mac packetDropRetryLimitReached:count 0
scalar GPSRNetworkRandom.host[2].wlan[0].mac packetDropRetryLimitReached:sum(packetBytes) 0
scalar GPSRNetworkRandom.host[2].wlan[0].mac packetDropDuplicateDetected:count 0
scalar GPSRNetworkRandom.host[2].wlan[0].mac packetDropDuplicateDetected:sum(packetBytes) 0
scalar GPSRNetworkRandom.host[2].wlan[0].mac packetDropOther:count 0
scalar GPSRNetworkRandom.host[2].wlan[0].mac packetDropOther:sum(packetBytes) 0
scalar GPSRNetworkRandom.host[2].wlan[0].mac linkBroken:count 0
scalar GPSRNetworkRandom.host[2].wlan[0].radio radioMode:count 795
scalar GPSRNetworkRandom.host[2].wlan[0].radio receptionState:count 2935
scalar GPSRNetworkRandom.host[2].wlan[0].radio transmissionState:count 1584
scalar GPSRNetworkRandom.host[2].wlan[0] packetDropInterfaceDown:count 0
scalar GPSRNetworkRandom.host[2].wlan[0] packetDropInterfaceDown:sum(packetBytes) 0
scalar GPSRNetworkRandom.host[2].wlan[0] packetDropNoCarrier:count 0
scalar GPSRNetworkRandom.host[2].wlan[0] packetDropNoCarrier:sum(packetBytes) 0
scalar GPSRNetworkRandom.host[2].ipv4.ip packetDropAddressResolutionFailed:count 0
scalar GPSRNetworkRandom.host[2].ipv4.ip packetDropAddressResolutionFailed:sum(packetBytes) 0
scalar GPSRNetworkRandom.host[2].ipv4.ip packetDropHopLimitReached:count 0
scalar GPSRNetworkRandom.host[2].ipv4.ip packetDropHopLimitReached:sum(packetBytes) 0
scalar GPSRNetworkRandom.host[2].ipv4.ip packetDropForwardingDisabled:count 0
scalar GPSRNetworkRandom.host[2].ipv4.ip packetDropForwardingDisabled:sum(packetBytes) 0
scalar GPSRNetworkRandom.host[2].ipv4.ip packetDropLifetimeExpired:count 0
scalar GPSRNetworkRandom.host[2].ipv4.ip packetDropLifetimeExpired:sum(packetBytes) 0
scalar GPSRNetworkRandom.host[2].ipv4.ip packetDropNoInterfaceFound:count 0
scalar GPSRNetworkRandom.host[2].ipv4.ip packetDropNoInterfaceFound:sum(packetBytes) 0
scalar GPSRNetworkRandom.host[2].ipv4.ip packetDropNoRouteFound:count 0
scalar GPSRNetworkRandom.host[2].ipv4.ip packetDropNoRouteFound:sum(packetBytes) 0
scalar GPSRNetworkRandom.host[2].ipv4.ip packetDropUndefined:count 0
scalar GPSRNetworkRandom.host[2].ipv4.ip packetDropUndefined:sum(packetBytes) 0
scalar GPSRNetworkRandom.host[2].ipv4.arp arpResolutionFailed:count 0
scalar GPSRNetworkRandom.host[2].ipv4.arp arpResolutionCompleted:count 0
scalar GPSRNetworkRandom.host[2].ipv4.arp arpResolutionInitiated:count 0
scalar GPSRNetworkRandom.host[2].ipv4.arp arpReplySent:count 0
scalar GPSRNetworkRandom.host[2].ipv4.arp arpReplySent:sum(packetBytes) 0
scalar GPSRNetworkRandom.host[2].ipv4.arp arpRequestSent:count 0
scalar GPSRNetworkRandom.host[2].ipv4.arp arpRequestSent:sum(packetBytes) 0
scalar GPSRNetworkRandom.host[2].ipv6.neighbourDiscovery startDad:count 1
scalar GPSRNetworkRandom.host[2].udp packetReceived:count 0
scalar GPSRNetworkRandom.host[2].udp packetReceived:sum(packetBytes) 0
scalar GPSRNetworkRandom.host[2].udp packetSent:count 0
scalar GPSRNetworkRandom.host[2].udp packetSent:sum(packetBytes) 0
scalar GPSRNetworkRandom.host[2].udp passedUpPk:count 0
scalar GPSRNetworkRandom.host[2].udp droppedPkWrongPort:count 0
scalar GPSRNetworkRandom.host[2].udp droppedPkBadChecksum:count 0
scalar GPSRNetworkRandom.host[2].app[0] pingRxSeq:count 0
scalar GPSRNetworkRandom.host[2].app[0] pingTxSeq:count 0
scalar GPSRNetworkRandom.host[2].app[0] numOutOfOrderArrivals:last nan
scalar GPSRNetworkRandom.host[2].app[0] numLost:last nan
scalar GPSRNetworkRandom.host[3].lo[0].lo rcvdPkFromHl:count 0
scalar GPSRNetworkRandom.host[3].lo[0].lo rcvdPkFromHl:sum(packetBytes) 0
scalar GPSRNetworkRandom.host[3].lo[0].lo passedUpPk:count 0
scalar GPSRNetworkRandom.host[3].lo[0].lo passedUpPk:sum(packetBytes) 0
scalar GPSRNetworkRandom.host[3].lo[0] packetDropInterfaceDown:count 0
scalar GPSRNetworkRandom.host[3].lo[0] packetDropInterfaceDown:sum(packetBytes) 0
scalar GPSRNetworkRandom.host[3].lo[0] packetDropNoCarrier:count 0
scalar GPSRNetworkRandom.host[3].lo[0] packetDropNoCarrier:sum(packetBytes) 0
scalar GPSRNetworkRandom.host[3].wlan[0].mac.dcf.channelAccess.pendingQueue queueLength:last 0
scalar GPSRNetworkRandom.host[3].wlan[0].mac.dcf.channelAccess.pendingQueue queueLength:max 1
scalar GPSRNetworkRandom.host[3].wlan[0].mac.dcf.channelAccess.pendingQueue queueLength:timeavg 0.00094792173575000032
scalar GPSRNetworkRandom.host[3].wlan[0].mac.dcf.channelAccess.pendingQueue queueBitLength:last 0
scalar GPSRNetworkRandom.host[3].wlan[0].mac.dcf.channelAccess.pendingQueue queueBitLength:max 864
scalar GPSRNetworkRandom.host[3].wlan[0].mac.dcf.channelAccess.pendingQueue queueBitLength:timeavg 0.81900437968800011
scalar GPSRNetworkRandom.host[3].wlan[0].mac.dcf.channelAccess.pendingQueue outgoingPackets:count 403
scalar GPSRNetworkRandom.host[3].wlan[0].mac.dcf.channelAccess.pendingQueue outgoingPacketLengths:sum 348128
scalar GPSRNetworkRandom.host[3].wlan[0].mac.dcf.channelAccess.pendingQueue incomingPackets:count 403
scalar GPSRNetworkRandom.host[3].wlan[0].mac.dcf.channelAccess.pendingQueue incomingPacketLengths:sum 348128
scalar GPSRNetworkRandom.host[3].wlan[0].mac.dcf.channelAccess.pendingQueue droppedPacketsQueueOverflow:count 0
scalar GPSRNetworkRandom.host[3].wlan[0].mac.dcf.channelAccess.pendingQueue droppedPacketLengthsQueueOverflow:sum 0
scalar GPSRNetworkRandom.host[3].wlan[0].mac.dcf.channelAccess.inProgressFrames queueLength:max 1
scalar GPSRNetworkRandom.host[3].wlan[0].mac.dcf.channelAccess.inProgressFrames queueLength:timeavg 0.01257200000000013
scalar GPSRNetworkRandom.host[3].wlan[0].mac.dcf.channelAccess.contention channelAccessGranted:count 403
scalar GPSRNetworkRandom.host[3].wlan[0].mac.dcf.channelAccess.contention stateChanged:count 12412
scalar GPSRNetworkRandom.host[3].wlan[0].mac.dcf.channelAccess channelOwnershipChanged:count 806
scalar GPSRNetworkRandom.host[3].wlan[0].mac.dcf.originatorMacDataService packetAggregated:count 0
scalar GPSRNetworkRandom.host[3].wlan[0].mac.dcf.originatorMacDataService packetFragmented:count 0
scalar GPSRNetworkRandom.host[3].wlan[0].mac.dcf.recipientMacDataService packetDeaggregated:count 0
scalar GPSRNetworkRandom.host[3].wlan[0].mac.dcf.recipientMacDataService packetDefragmented:count 1517
scalar GPSRNetworkRandom.host[3].wlan[0].mac.dcf.recipientMacDataService packetDropDuplicateDetected:count 0
scalar GPSRNetworkRandom.host[3].wlan[0].mac.dcf.recipientMacDataService packetDropDuplicateDetected:sum(packetBytes) 0
scalar GPSRNetworkRandom.host[3].wlan[0].mac.dcf.recoveryProcedure retryLimitReached:count 0
scalar GPSRNetworkRandom.host[3].wlan[0].mac.dcf frameSequenceFinished:count 403
scalar GPSRNetworkRandom.host[3].wlan[0].mac.dcf packetReceivedFromPeer:count 1517
scalar GPSRNetworkRandom.host[3].wlan[0].mac.dcf packetReceivedFromPeer:sum(packetBytes) 163796
scalar GPSRNetworkRandom.host[3].wlan[0].mac.dcf packetReceivedFromPeerUnicast:count 0
scalar GPSRNetworkRandom.host[3].wlan[0].mac.dcf packetReceivedFromPeerUnicast:sum(packetBytes) 0
scalar GPSRNetworkRandom.host[3].wlan[0].mac.dcf packetReceivedFromPeerMulticast:count 1517
scalar GPSRNetworkRandom.host[3].wlan[0].mac.dcf packetReceivedFromPeerMulticast:sum(packetBytes) 163796
scalar GPSRNetworkRandom.host[3].wlan[0].mac.dcf packetReceivedFromPeerBroadcast:count 1517
scalar GPSRNetworkRandom.host[3].wlan[0].mac.dcf packetReceivedFromPeerBroadcast:sum(packetBytes) 163796
scalar GPSRNetworkRandom.host[3].wlan[0].mac.dcf packetReceivedFromPeerWithRetry:count 0
scalar GPSRNetworkRandom.host[3].wlan[0].mac.dcf packetReceivedFromPeerWithRetry:sum(packetBytes) 0
scalar GPSRNetworkRandom.host[3].wlan[0].mac.dcf packetReceivedFromPeerWithoutRetry:count 1517
scalar GPSRNetworkRandom.host[3].wlan[0].mac.dcf packetReceivedFromPeerWithoutRetry:sum(packetBytes) 163796
scalar GPSRNetworkRandom.host[3].wlan[0].mac.dcf packetSentToPeer:count 403
scalar GPSRNetworkRandom.host[3].wlan[0].mac.dcf packetSentToPeer:sum(packetBytes) 43516
scalar GPSRNetworkRandom.host[3].wlan[0].mac.dcf packetSentToPeerUnicast:count 0
scalar GPSRNetworkRandom.host[3].wlan[0].mac.dcf packetSentToPeerUnicast:sum(packetBytes) 0
scalar GPSRNetworkRandom.host[3].wlan[0].mac.dcf packetSentToPeerMulticast:count 403
scalar GPSRNetworkRandom.host[3].wlan[0].mac.dcf packetSentToPeerMulticast:sum(packetBytes) 43516
scalar GPSRNetworkRandom.host[3].wlan[0].mac.dcf packetSentToPeerBroadcast:count 403
scalar GPSRNetworkRandom.host[3].wlan[0].mac.dcf packetSentToPeerBroadcast:sum(packetBytes) 43516
scalar GPSRNetworkRandom.host[3].wlan[0].mac.dcf packetSentToPeerWithRetry:count 0
scalar GPSRNetworkRandom.host[3].wlan[0].mac.dcf packetSentToPeerWithRetry:sum(packetBytes) 0
scalar GPSRNetworkRandom.host[3].wlan[0].mac.dcf packetSentToPeerWithoutRetry:count 403
scalar GPSRNetworkRandom.host[3].wlan[0].mac.dcf packetSentToPeerWithoutRetry:sum(packetBytes) 43516
scalar GPSRNetworkRandom.host[3].wlan[0].mac.dcf packetDrop:count 0
scalar GPSRNetworkRandom.host[3].wlan[0].mac.dcf packetDrop:sum(packetBytes) 0
scalar GPSRNetworkRandom.host[3].wlan[0].mac.dcf packetDropNotAddressedToUs:count 0
scalar GPSRNetworkRandom.host[3].wlan[0].mac.dcf packetDropNotAddressedToUs:sum(packetBytes) 0
scalar GPSRNetworkRandom.host[3].wlan[0].mac.dcf packetDropQueueOverflow:count 0
scalar GPSRNetworkRandom.host[3].wlan[0].mac.dcf packetDropQueueOverflow:sum(packetBytes) 0
scalar GPSRNetworkRandom.host[3].wlan[0].mac.dcf packetDropRetryLimitReached:count 0
scalar GPSRNetworkRandom.host[3].wlan[0].mac.dcf packetDropRetryLimitReached:sum(packetBytes) 0
scalar GPSRNetworkRandom.host[3].wlan[0].mac.dcf linkBroken:count 0
scalar GPSRNetworkRandom.host[3].wlan[0].mac packetReceivedFromLower:count 1944
scalar GPSRNetworkRandom.host[3].wlan[0].mac packetReceivedFromLower:sum(packetBytes) 209912
scalar GPSRNetworkRandom.host[3].wlan[0].mac packetSentToLower:count 403
scalar GPSRNetworkRandom.host[3].wlan[0].mac packetSentToLower:sum(packetBytes) 43516
scalar GPSRNetworkRandom.host[3].wlan[0].mac packetReceivedFromUpper:count 403
scalar GPSRNetworkRandom.host[3].wlan[0].mac packetReceivedFromUpper:sum(packetBytes) 32232
scalar GPSRNetworkRandom.host[3].wlan[0].mac packetSentToUpper:count 1517
scalar GPSRNetworkRandom.host[3].wlan[0].mac packetSentToUpper:sum(packetBytes) 121320
scalar GPSRNetworkRandom.host[3].wlan[0].mac packetDrop:count 427
scalar GPSRNetworkRandom.host[3].wlan[0].mac packetDrop:sum(packetBytes) 46116
scalar GPSRNetworkRandom.host[3].wlan[0].mac packetDropIncorrectlyReceived:count 427
scalar GPSRNetworkRandom.host[3].wlan[0].mac packetDropIncorrectlyReceived:sum(packetBytes) 46116
scalar GPSRNetworkRandom.host[3].wlan[0].mac packetDropNotAddressedToUs:count 0
scalar GPSRNetworkRandom.host[3].wlan[0].mac packetDropNotAddressedToUs:sum(packetBytes) 0
scalar GPSRNetworkRandom.host[3].wlan[0].mac packetDropQueueOverflow:count 0
scalar GPSRNetworkRandom.host[3].wlan[0].mac packetDropQueueOverflow:sum(packetBytes) 0
scalar GPSRNetworkRandom.host[3].wlan[0].mac packetDropRetryLimitReached:count 0
scalar GPSRNetworkRandom.host[3].wlan[0].mac packetDropRetryLimitReached:sum(packetBytes) 0
scalar GPSRNetworkRandom.host[3].wlan[0].mac packetDropDuplicateDetected:count 0
scalar GPSRNetworkRandom.host[3].wlan[0].mac packetDropDuplicateDetected:sum(packetBytes) 0
scalar GPSRNetworkRandom.host[3].wlan[0].mac packetDropOther:count 0
scalar GPSRNetworkRandom.host[3].wlan[0].mac packetDropOther:sum(packetBytes) 0
scalar GPSRNetworkRandom.host[3].wlan[0].mac linkBroken:count 0
scalar GPSRNetworkRandom.host[3].wlan[0].radio radioMode:count 809
scalar GPSRNetworkRandom.host[3].wlan[0].radio receptionState:count 5030
scalar GPSRNetworkRandom.host[3].wlan[0].radio transmissionState:count 1612
scalar GPSRNetworkRandom.host[3].wlan[0] packetDropInterfaceDown:count 0
scalar GPSRNetworkRandom.host[3].wlan[0] packetDropInterfaceDown:sum(packetBytes) 0
scalar GPSRNetworkRandom.host[3].wlan[0] packetDropNoCarrier:count 0
scalar GPSRNetworkRandom.host[3].wlan[0] packetDropNoCarrier:sum(packetBytes) 0
scalar GPSRNetworkRandom.host[3].ipv4.ip packetDropAddressResolutionFailed:count 0
scalar GPSRNetworkRandom.host[3].ipv4.ip packetDropAddressResolutionFailed:sum(packetBytes) 0
scalar GPSRNetworkRandom.host[3].ipv4.ip packetDropHopLimitReached:count 0
scalar GPSRNetworkRandom.host[3].ipv4.ip packetDropHopLimitReached:sum(packetBytes) 0
scalar GPSRNetworkRandom.host[3].ipv4.ip packetDropForwardingDisabled:count 0
scalar GPSRNetworkRandom.host[3].ipv4.ip packetDropForwardingDisabled:sum(packetBytes) 0
scalar GPSRNetworkRandom.host[3].ipv4.ip packetDropLifetimeExpired:count 0
scalar GPSRNetworkRandom.host[3].ipv4.ip packetDropLifetimeExpired:sum(packetBytes) 0
scalar GPSRNetworkRandom.host[3].ipv4.ip packetDropNoInterfaceFound:count 0
scalar GPSRNetworkRandom.host[3].ipv4.ip packetDropNoInterfaceFound:sum(packetBytes) 0
scalar GPSRNetworkRandom.host[3].ipv4.ip packetDropNoRouteFound:count 0
scalar GPSRNetworkRandom.host[3].ipv4.ip packetDropNoRouteFound:sum(packetBytes) 0
scalar GPSRNetworkRandom.host[3].ipv4.ip packetDropUndefined:count 0
scalar GPSRNetworkRandom.host[3].ipv4.ip packetDropUndefined:sum(packetBytes) 0
scalar GPSRNetworkRandom.host[3].ipv4.arp arpResolutionFailed:count 0
scalar GPSRNetworkRandom.host[3].ipv4.arp arpResolutionCompleted:count 0
scalar GPSRNetworkRandom.host[3].ipv4.arp arpResolutionInitiated:count 0
scalar GPSRNetworkRandom.host[3].ipv4.arp arpReplySent:count 0
scalar GPSRNetworkRandom.host[3].ipv4.arp arpReplySent:sum(packetBytes) 0
scalar GPSRNetworkRandom.host[3].ipv4.arp arpRequestSent:count 0
scalar GPSRNetworkRandom.host[3].ipv4.arp arpRequestSent:sum(packetBytes) 0
scalar GPSRNetworkRandom.host[3].ipv6.neighbourDiscovery startDad:count 1
scalar GPSRNetworkRandom.host[3].udp packetReceived:count 0
scalar GPSRNetworkRandom.host[3].udp packetReceived:sum(packetBytes) 0
scalar GPSRNetworkRandom.host[3].udp packetSent:count 0
scalar GPSRNetworkRandom.host[3].udp packetSent:sum(packetBytes) 0
scalar GPSRNetworkRandom.host[3].udp passedUpPk:count 0
scalar GPSRNetworkRandom.host[3].udp droppedPkWrongPort:count 0
scalar GPSRNetworkRandom.host[3].udp droppedPkBadChecksum:count 0
scalar GPSRNetworkRandom.host[3].app[0] pingRxSeq:count 0
scalar GPSRNetworkRandom.host[3].app[0] pingTxSeq:count 0
scalar GPSRNetworkRandom.host[3].app[0] numOutOfOrderArrivals:last nan
scalar GPSRNetworkRandom.host[3].app[0] numLost:last nan
scalar GPSRNetworkRandom.host[4].lo[0].lo rcvdPkFromHl:count 0
scalar GPSRNetworkRandom.host[4].lo[0].lo rcvdPkFromHl:sum(packetBytes) 0
scalar GPSRNetworkRandom.host[4].lo[0].lo passedUpPk:count 0
scalar GPSRNetworkRandom.host[4].lo[0].lo passedUpPk:sum(packetBytes) 0
scalar GPSRNetworkRandom.host[4].lo[0] packetDropInterfaceDown:count 0
scalar GPSRNetworkRandom.host[4].lo[0] packetDropInterfaceDown:sum(packetBytes) 0
scalar GPSRNetworkRandom.host[4].lo[0] packetDropNoCarrier:count 0
scalar GPSRNetworkRandom.host[4].lo[0] packetDropNoCarrier:sum(packetBytes) 0
scalar GPSRNetworkRandom.host[4].wlan[0].mac.dcf.channelAccess.pendingQueue queueLength:last 0
scalar GPSRNetworkRandom.host[4].wlan[0].mac.dcf.channelAccess.pendingQueue queueLength:max 1
scalar GPSRNetworkRandom.host[4].wlan[0].mac.dcf.channelAccess.pendingQueue queueLength:timeavg 0.00054402415909999993
scalar GPSRNetworkRandom.host[4].wlan[0].mac.dcf.channelAccess.pendingQueue queueBitLength:last 0
scalar GPSRNetworkRandom.host[4].wlan[0].mac.dcf.channelAccess.pendingQueue queueBitLength:max 864
scalar GPSRNetworkRandom.host[4].wlan[0].mac.dcf.channelAccess.pendingQueue queueBitLength:timeavg 0.47003687346239997
scalar GPSRNetworkRandom.host[4].wlan[0].mac.dcf.channelAccess.pendingQueue outgoingPackets:count 400
scalar GPSRNetworkRandom.host[4].wlan[0].mac.dcf.channelAccess.pendingQueue outgoingPacketLengths:sum 345536
scalar GPSRNetworkRandom.host[4].wlan[0].mac.dcf.channelAccess.pendingQueue incomingPackets:count 400
scalar GPSRNetworkRandom.host[4].wlan[0].mac.dcf.channelAccess.pendingQueue incomingPacketLengths:sum 345536
scalar GPSRNetworkRandom.host[4].wlan[0].mac.dcf.channelAccess.pendingQueue droppedPacketsQueueOverflow:count 0
scalar GPSRNetworkRandom.host[4].wlan[0].mac.dcf.channelAccess.pendingQueue droppedPacketLengthsQueueOverflow:sum 0
scalar GPSRNetworkRandom.host[4].wlan[0].mac.dcf.channelAccess.inProgressFrames queueLength:max 1
scalar GPSRNetworkRandom.host[4].wlan[0].mac.dcf.channelAccess.inProgressFrames queueLength:timeavg 0.012478400000000129
scalar GPSRNetworkRandom.host[4].wlan[0].mac.dcf.channelAccess.contention channelAccessGranted:count 400
scalar GPSRNetworkRandom.host[4].wlan[0].mac.dcf.channelAccess.contention stateChanged:count 11638
scalar GPSRNetworkRandom.host[4].wlan[0].mac.dcf.channelAccess channelOwnershipChanged:count 800
scalar GPSRNetworkRandom.host[4].wlan[0].mac.dcf.originatorMacDataService packetAggregated:count 0
scalar GPSRNetworkRandom.host[4].wlan[0].mac.dcf.originatorMacDataService packetFragmented:count 0
scalar GPSRNetworkRandom.host[4].wlan[0].mac.dcf.recipientMacDataService packetDeaggregated:count 0
scalar GPSRNetworkRandom.host[4].wlan[0].mac.dcf.recipientMacDataService packetDefragmented:count 1776
scalar GPSRNetworkRandom.host[4].wlan[0].mac.dcf.recipientMacDataService packetDropDuplicateDetected:count 0
scalar GPSRNetworkRandom.host[4].wlan[0].mac.dcf.recipientMacDataService packetDropDuplicateDetected:sum(packetBytes) 0
scalar GPSRNetworkRandom.host[4].wlan[0].mac.dcf.recoveryProcedure retryLimitReached:count 0
scalar GPSRNetworkRandom.host[4].wlan[0].mac.dcf frameSequenceFinished:count 400
scalar GPSRNetworkRandom.host[4].wlan[0].mac.dcf packetReceivedFromPeer:count 1776
scalar GPSRNetworkRandom.host[4].wlan[0].mac.dcf packetReceivedFromPeer:sum(packetBytes) 191768
scalar GPSRNetworkRandom.host[4].wlan[0].mac.dcf packetReceivedFromPeerUnicast:count 0
scalar GPSRNetworkRandom.host[4].wlan[0].mac.dcf packetReceivedFromPeerUnicast:sum(packetBytes) 0
scalar GPSRNetworkRandom.host[4].wlan[0].mac.dcf packetReceivedFromPeerMulticast:count 1776
scalar GPSRNetworkRandom.host[4].wlan[0].mac.dcf packetReceivedFromPeerMulticast:sum(packetBytes) 191768
scalar GPSRNetworkRandom.host[4].wlan[0].mac.dcf packetReceivedFromPeerBroadcast:count 1776
scalar GPSRNetworkRandom.host[4].wlan[0].mac.dcf packetReceivedFromPeerBroadcast:sum(packetBytes) 191768
scalar GPSRNetworkRandom.host[4].wlan[0].mac.dcf packetReceivedFromPeerWithRetry:count 0
scalar GPSRNetworkRandom.host[4].wlan[0].mac.dcf packetReceivedFromPeerWithRetry:sum(packetBytes) 0
scalar GPSRNetworkRandom.host[4].wlan[0].mac.dcf packetReceivedFromPeerWithoutRetry:count 1776
scalar GPSRNetworkRandom.host[4].wlan[0].mac.dcf packetReceivedFromPeerWithoutRetry:sum(packetBytes) 191768
scalar GPSRNetworkRandom.host[4].wlan[0].mac.dcf packetSentToPeer:count 400
scalar GPSRNetworkRandom.host[4].wlan[0].mac.dcf packetSentToPeer:sum(packetBytes) 43192
scalar GPSRNetworkRandom.host[4].wlan[0].mac.dcf packetSentToPeerUnicast:count 0
scalar GPSRNetworkRandom.host[4].wlan[0].mac.dcf packetSentToPeerUnicast:sum(packetBytes) 0
scalar GPSRNetworkRandom.host[4].wlan[0].mac.dcf packetSentToPeerMulticast:count 400
scalar GPSRNetworkRandom.host[4].wlan[0].mac.dcf packetSentToPeerMulticast:sum(packetBytes) 43192
scalar GPSRNetworkRandom.host[4].wlan[0].mac.dcf packetSentToPeerBroadcast:count 400
scalar GPSRNetworkRandom.host[4].wlan[0].mac.dcf packetSentToPeerBroadcast:sum(packetBytes) 43192
scalar GPSRNetworkRandom.host[4].wlan[0].mac.dcf packetSentToPeerWithRetry:count 0
scalar GPSRNetworkRandom.host[4].wlan[0].mac.dcf packetSentToPeerWithRetry:sum(packetBytes) 0
scalar GPSRNetworkRandom.host[4].wlan[0].mac.dcf packetSentToPeerWithoutRetry:count 400
scalar GPSRNetworkRandom.host[4].wlan[0].mac.dcf packetSentToPeerWithoutRetry:sum(packetBytes) 43192
scalar GPSRNetworkRandom.host[4].wlan[0].mac.dcf packetDrop:count 0
scalar GPSRNetworkRandom.host[4].wlan[0].mac.dcf packetDrop:sum(packetBytes) 0
scalar GPSRNetworkRandom.host[4].wlan[0].mac.dcf packetDropNotAddressedToUs:count 0
scalar GPSRNetworkRandom.host[4].wlan[0].mac.dcf packetDropNotAddressedToUs:sum(packetBytes) 0
scalar GPSRNetworkRandom.host[4].wlan[0].mac.dcf packetDropQueueOverflow:count 0
scalar GPSRNetworkRandom.host[4].wlan[0].mac.dcf packetDropQueueOverflow:sum(packetBytes) 0
scalar GPSRNetworkRandom.host[4].wlan[0].mac.dcf packetDropRetryLimitReached:count 0
scalar GPSRNetworkRandom.host[4].wlan[0].mac.dcf packetDropRetryLimitReached:sum(packetBytes) 0
scalar GPSRNetworkRandom.host[4].wlan[0].mac.dcf linkBroken:count 0
scalar GPSRNetworkRandom.host[4].wlan[0].mac packetReceivedFromLower:count 1984
scalar GPSRNetworkRandom.host[4].wlan[0].mac packetReceivedFromLower:sum(packetBytes) 214232
scalar GPSRNetworkRandom.host[4].wlan[0].mac packetSentToLower:count 400
scalar GPSRNetworkRandom.host[4].wlan[0].mac packetSentToLower:sum(packetBytes) 43192
scalar GPSRNetworkRandom.host[4].wlan[0].mac packetReceivedFromUpper:count 400
scalar GPSRNetworkRandom.host[4].wlan[0].mac packetReceivedFromUpper:sum(packetBytes) 31992
scalar GPSRNetworkRandom.host[4].wlan[0].mac packetSentToUpper:count 1776
scalar GPSRNetworkRandom.host[4].wlan[0].mac packetSentToUpper:sum(packetBytes) 142040
scalar GPSRNetworkRandom.host[4].wlan[0].mac packetDrop:count 208
scalar GPSRNetworkRandom.host[4].wlan[0].mac packetDrop:sum(packetBytes) 22464
scalar GPSRNetworkRandom.host[4].wlan[0].mac packetDropIncorrectlyReceived:count 208
scalar GPSRNetworkRandom.host[4].wlan[0].mac packetDropIncorrectlyReceived:sum(packetBytes) 22464
scalar GPSRNetworkRandom.host[4].wlan[0].mac packetDropNotAddressedToUs:count 0
scalar GPSRNetworkRandom.host[4].wlan[0].mac packetDropNotAddressedToUs:sum(packetBytes) 0
scalar GPSRNetworkRandom.host[4].wlan[0].mac packetDropQueueOverflow:count 0
scalar GPSRNetworkRandom.host[4].wlan[0].mac packetDropQueueOverflow:sum(packetBytes) 0
scalar GPSRNetworkRandom.host[4].wlan[0].mac packetDropRetryLimitReached:count 0
scalar GPSRNetworkRandom.host[4].wlan[0].mac packetDropRetryLimitReached:sum(packetBytes) 0
scalar GPSRNetworkRandom.host[4].wlan[0].mac packetDropDuplicateDetected:count 0
scalar GPSRNetworkRandom.host[4].wlan[0].mac packetDropDuplicateDetected:sum(packetBytes) 0
scalar GPSRNetworkRandom.host[4].wlan[0].mac packetDropOther:count 0
scalar GPSRNetworkRandom.host[4].wlan[0].mac packetDropOther:sum(packetBytes) 0
scalar GPSRNetworkRandom.host[4].wlan[0].mac linkBroken:count 0
scalar GPSRNetworkRandom.host[4].wlan[0].radio radioMode:count 803
scalar GPSRNetworkRandom.host[4].wlan[0].radio receptionState:count 4852
scalar GPSRNetworkRandom.host[4].wlan[0].radio transmissionState:count 1600
scalar GPSRNetworkRandom.host[4].wlan[0] packetDropInterfaceDown:count 0
scalar GPSRNetworkRandom.host[4].wlan[0] packetDropInterfaceDown:sum(packetBytes) 0
scalar GPSRNetworkRandom.host[4].wlan[0] packetDropNoCarrier:count 0
scalar GPSRNetworkRandom.host[4].wlan[0] packetDropNoCarrier:sum(packetBytes) 0
scalar GPSRNetworkRandom.host[4].ipv4.ip packetDropAddressResolutionFailed:count 0
scalar GPSRNetworkRandom.host[4].ipv4.ip packetDropAddressResolutionFailed:sum(packetBytes) 0
scalar GPSRNetworkRandom.host[4].ipv4.ip packetDropHopLimitReached:count 0
scalar GPSRNetworkRandom.host[4].ipv4.ip packetDropHopLimitReached:sum(packetBytes) 0
scalar GPSRNetworkRandom.host[4].ipv4.ip packetDropForwardingDisabled:count 0
scalar GPSRNetworkRandom.host[4].ipv4.ip packetDropForwardingDisabled:sum(packetBytes) 0
scalar GPSRNetworkRandom.host[4].ipv4.ip packetDropLifetimeExpired:count 0
scalar GPSRNetworkRandom.host[4].ipv4.ip packetDropLifetimeExpired:sum(packetBytes) 0
scalar GPSRNetworkRandom.host[4].ipv4.ip packetDropNoInterfaceFound:count 0
scalar GPSRNetworkRandom.host[4].ipv4.ip packetDropNoInterfaceFound:sum(packetBytes) 0
scalar GPSRNetworkRandom.host[4].ipv4.ip packetDropNoRouteFound:count 0
scalar GPSRNetworkRandom.host[4].ipv4.ip packetDropNoRouteFound:sum(packetBytes) 0
scalar GPSRNetworkRandom.host[4].ipv4.ip packetDropUndefined:count 0
scalar GPSRNetworkRandom.host[4].ipv4.ip packetDropUndefined:sum(packetBytes) 0
scalar GPSRNetworkRandom.host[4].ipv4.arp arpResolutionFailed:count 0
scalar GPSRNetworkRandom.host[4].ipv4.arp arpResolutionCompleted:count 0
scalar GPSRNetworkRandom.host[4].ipv4.arp arpResolutionInitiated:count 0
scalar GPSRNetworkRandom.host[4].ipv4.arp arpReplySent:count 0
scalar GPSRNetworkRandom.host[4].ipv4.arp arpReplySent:sum(packetBytes) 0
scalar GPSRNetworkRandom.host[4].ipv4.arp arpRequestSent:count 0
scalar GPSRNetworkRandom.host[4].ipv4.arp arpRequestSent:sum(packetBytes) 0
scalar GPSRNetworkRandom.host[4].ipv6.neighbourDiscovery startDad:count 1
scalar GPSRNetworkRandom.host[4].udp packetReceived:count 0
scalar GPSRNetworkRandom.host[4].udp packetReceived:sum(packetBytes) 0
scalar GPSRNetworkRandom.host[4].udp packetSent:count 0
scalar GPSRNetworkRandom.host[4].udp packetSent:sum(packetBytes) 0
scalar GPSRNetworkRandom.host[4].udp passedUpPk:count 0
scalar GPSRNetworkRandom.host[4].udp droppedPkWrongPort:count 0
scalar GPSRNetworkRandom.host[4].udp droppedPkBadChecksum:count 0
scalar GPSRNetworkRandom.host[4].app[0] pingRxSeq:count 0
scalar GPSRNetworkRandom.host[4].app[0] pingTxSeq:count 0
scalar GPSRNetworkRandom.host[4].app[0] numOutOfOrderArrivals:last nan
scalar GPSRNetworkRandom.host[4].app[0] numLost:last nan
scalar GPSRNetworkRandom.host[5].lo[0].lo rcvdPkFromHl:count 0
scalar GPSRNetworkRandom.host[5].lo[0].lo rcvdPkFromHl:sum(packetBytes) 0
scalar GPSRNetworkRandom.host[5].lo[0].lo passedUpPk:count 0
scalar GPSRNetworkRandom.host[5].lo[0].lo passedUpPk:sum(packetBytes) 0
scalar GPSRNetworkRandom.host[5].lo[0] packetDropInterfaceDown:count 0
scalar GPSRNetworkRandom.host[5].lo[0] packetDropInterfaceDown:sum(packetBytes) 0
scalar GPSRNetworkRandom.host[5].lo[0] packetDropNoCarrier:count 0
scalar GPSRNetworkRandom.host[5].lo[0] packetDropNoCarrier:sum(packetBytes) 0
scalar GPSRNetworkRandom.host[5].wlan[0].mac.dcf.channelAccess.pendingQueue queueLength:last 0
scalar GPSRNetworkRandom.host[5].wlan[0].mac.dcf.channelAccess.pendingQueue queueLength:max 1
scalar GPSRNetworkRandom.host[5].wlan[0].mac.dcf.channelAccess.pendingQueue queueLength:timeavg 0.00038461293904999997
scalar GPSRNetworkRandom.host[5].wlan[0].mac.dcf.channelAccess.pendingQueue queueBitLength:last 0
scalar GPSRNetworkRandom.host[5].wlan[0].mac.dcf.channelAccess.pendingQueue queueBitLength:max 864
scalar GPSRNetworkRandom.host[5].wlan[0].mac.dcf.channelAccess.pendingQueue queueBitLength:timeavg 0.33230557933919996
scalar GPSRNetworkRandom.host[5].wlan[0].mac.dcf.channelAccess.pendingQueue outgoingPackets:count 408
scalar GPSRNetworkRandom.host[5].wlan[0].mac.dcf.channelAccess.pendingQueue outgoingPacketLengths:sum 352448
scalar GPSRNetworkRandom.host[5].wlan[0].mac.dcf.channelAccess.pendingQueue incomingPackets:count 408
scalar GPSRNetworkRandom.host[5].wlan[0].mac.dcf.channelAccess.pendingQueue incomingPacketLengths:sum 352448
scalar GPSRNetworkRandom.host[5].wlan[0].mac.dcf.channelAccess.pendingQueue droppedPacketsQueueOverflow:count 0
scalar GPSRNetworkRandom.host[5].wlan[0].mac.dcf.channelAccess.pendingQueue droppedPacketLengthsQueueOverflow:sum 0
scalar GPSRNetworkRandom.host[5].wlan[0].mac.dcf.channelAccess.inProgressFrames queueLength:max 1
scalar GPSRNetworkRandom.host[5].wlan[0].mac.dcf.channelAccess.inProgressFrames queueLength:timeavg 0.012728000000000133
scalar GPSRNetworkRandom.host[5].wlan[0].mac.dcf.channelAccess.contention channelAccessGranted:count 408
scalar GPSRNetworkRandom.host[5].wlan[0].mac.dcf.channelAccess.contention stateChanged:count 9832
scalar GPSRNetworkRandom.host[5].wlan[0].mac.dcf.channelAccess channelOwnershipChanged:count 816
scalar GPSRNetworkRandom.host[5].wlan[0].mac.dcf.originatorMacDataService packetAggregated:count 0
scalar GPSRNetworkRandom.host[5].wlan[0].mac.dcf.originatorMacDataService packetFragmented:count 0
scalar GPSRNetworkRandom.host[5].wlan[0].mac.dcf.recipientMacDataService packetDeaggregated:count 0
scalar GPSRNetworkRandom.host[5].wlan[0].mac.dcf.recipientMacDataService packetDefragmented:count 1344
scalar GPSRNetworkRandom.host[5].wlan[0].mac.dcf.recipientMacDataService packetDropDuplicateDetected:count 0
scalar GPSRNetworkRandom.host[5].wlan[0].mac.dcf.recipientMacDataService packetDropDuplicateDetected:sum(packetBytes) 0
scalar GPSRNetworkRandom.host[5].wlan[0].mac.dcf.recoveryProcedure retryLimitReached:count 0
scalar GPSRNetworkRandom.host[5].wlan[0].mac.dcf frameSequenceFinished:count 408
scalar GPSRNetworkRandom.host[5].wlan[0].mac.dcf packetReceivedFromPeer:count 1344
scalar GPSRNetworkRandom.host[5].wlan[0].mac.dcf packetReceivedFromPeer:sum(packetBytes) 145120
scalar GPSRNetworkRandom.host[5].wlan[0].mac.dcf packetReceivedFromPeerUnicast:count 0
scalar GPSRNetworkRandom.host[5].wlan[0].mac.dcf packetReceivedFromPeerUnicast:sum(packetBytes) 0
scalar GPSRNetworkRandom.host[5].wlan[0].mac.dcf packetReceivedFromPeerMulticast:count 1344
scalar GPSRNetworkRandom.host[5].wlan[0].mac.dcf packetReceivedFromPeerMulticast:sum(packetBytes) 145120
scalar GPSRNetworkRandom.host[5].wlan[0].mac.dcf packetReceivedFromPeerBroadcast:count 1344
scalar GPSRNetworkRandom.host[5].wlan[0].mac.dcf packetReceivedFromPeerBroadcast:sum(packetBytes) 145120
scalar GPSRNetworkRandom.host[5].wlan[0].mac.dcf packetReceivedFromPeerWithRetry:count 0
scalar GPSRNetworkRandom.host[5].wlan[0].mac.dcf packetReceivedFromPeerWithRetry:sum(packetBytes) 0
scalar GPSRNetworkRandom.host[5].wlan[0].mac.dcf packetReceivedFromPeerWithoutRetry:count 1344
scalar GPSRNetworkRandom.host[5].wlan[0].mac.dcf packetReceivedFromPeerWithoutRetry:sum(packetBytes) 145120
scalar GPSRNetworkRandom.host[5].wlan[0].mac.dcf packetSentToPeer:count 408
scalar GPSRNetworkRandom.host[5].wlan[0].mac.dcf packetSentToPeer:sum(packetBytes) 44056
scalar GPSRNetworkRandom.host[5].wlan[0].mac.dcf packetSentToPeerUnicast:count 0
scalar GPSRNetworkRandom.host[5].wlan[0].mac.dcf packetSentToPeerUnicast:sum(packetBytes) 0
scalar GPSRNetworkRandom.host[5].wlan[0].mac.dcf packetSentToPeerMulticast:count 408
scalar GPSRNetworkRandom.host[5].wlan[0].mac.dcf packetSentToPeerMulticast:sum(packetBytes) 44056
scalar GPSRNetworkRandom.host[5].wlan[0].mac.dcf packetSentToPeerBroadcast:count 408
scalar GPSRNetworkRandom.host[5].wlan[0].mac.dcf packetSentToPeerBroadcast:sum(packetBytes) 44056
scalar GPSRNetworkRandom.host[5].wlan[0].mac.dcf packetSentToPeerWithRetry:count 0
scalar GPSRNetworkRandom.host[5].wlan[0].mac.dcf packetSentToPeerWithRetry:sum(packetBytes) 0
scalar GPSRNetworkRandom.host[5].wlan[0].mac.dcf packetSentToPeerWithoutRetry:count 408
scalar GPSRNetworkRandom.host[5].wlan[0].mac.dcf packetSentToPeerWithoutRetry:sum(packetBytes) 44056
scalar GPSRNetworkRandom.host[5].wlan[0].mac.dcf packetDrop:count 0
scalar GPSRNetworkRandom.host[5].wlan[0].mac.dcf packetDrop:sum(packetBytes) 0
scalar GPSRNetworkRandom.host[5].wlan[0].mac.dcf packetDropNotAddressedToUs:count 0
scalar GPSRNetworkRandom.host[5].wlan[0].mac.dcf packetDropNotAddressedToUs:sum(packetBytes) 0
scalar GPSRNetworkRandom.host[5].wlan[0].mac.dcf packetDropQueueOverflow:count 0
scalar GPSRNetworkRandom.host[5].wlan[0].mac.dcf packetDropQueueOverflow:sum(packetBytes) 0
scalar GPSRNetworkRandom.host[5].wlan[0].mac.dcf packetDropRetryLimitReached:count 0
scalar GPSRNetworkRandom.host[5].wlan[0].mac.dcf packetDropRetryLimitReached:sum(packetBytes) 0
scalar GPSRNetworkRandom.host[5].wlan[0].mac.dcf linkBroken:count 0
scalar GPSRNetworkRandom.host[5].wlan[0].mac packetReceivedFromLower:count 1543
scalar GPSRNetworkRandom.host[5].wlan[0].mac packetReceivedFromLower:sum(packetBytes) 166612
scalar GPSRNetworkRandom.host[5].wlan[0].mac packetSentToLower:count 408
scalar GPSRNetworkRandom.host[5].wlan[0].mac packetSentToLower:sum(packetBytes) 44056
scalar GPSRNetworkRandom.host[5].wlan[0].mac packetReceivedFromUpper:count 408
scalar GPSRNetworkRandom.host[5].wlan[0].mac packetReceivedFromUpper:sum(packetBytes) 32632
scalar GPSRNetworkRandom.host[5].wlan[0].mac packetSentToUpper:count 1344
scalar GPSRNetworkRandom.host[5].wlan[0].mac packetSentToUpper:sum(packetBytes) 107488
scalar GPSRNetworkRandom.host[5].wlan[0].mac packetDrop:count 199
scalar GPSRNetworkRandom.host[5].wlan[0].mac packetDrop:sum(packetBytes) 21492
scalar GPSRNetworkRandom.host[5].wlan[0].mac packetDropIncorrectlyReceived:count 199
scalar GPSRNetworkRandom.host[5].wlan[0].mac packetDropIncorrectlyReceived:sum(packetBytes) 21492
scalar GPSRNetworkRandom.host[5].wlan[0].mac packetDropNotAddressedToUs:count 0
scalar GPSRNetworkRandom.host[5].wlan[0].mac packetDropNotAddressedToUs:sum(packetBytes) 0
scalar GPSRNetworkRandom.host[5].wlan[0].mac packetDropQueueOverflow:count 0
scalar GPSRNetworkRandom.host[5].wlan[0].mac packetDropQueueOverflow:sum(packetBytes) 0
scalar GPSRNetworkRandom.host[5].wlan[0].mac packetDropRetryLimitReached:count 0
scalar GPSRNetworkRandom.host[5].wlan[0].mac packetDropRetryLimitReached:sum(packetBytes) 0
scalar GPSRNetworkRandom.host[5].wlan[0].mac packetDropDuplicateDetected:count 0
scalar GPSRNetworkRandom.host[5].wlan[0].mac packetDropDuplicateDetected:sum(packetBytes) 0
scalar GPSRNetworkRandom.host[5].wlan[0].mac packetDropOther:count 0
scalar GPSRNetworkRandom.host[5].wlan[0].mac packetDropOther:sum(packetBytes) 0
scalar GPSRNetworkRandom.host[5].wlan[0].mac linkBroken:count 0
scalar GPSRNetworkRandom.host[5].wlan[0].radio radioMode:count 819
scalar GPSRNetworkRandom.host[5].wlan[0].radio receptionState:count 3945
scalar GPSRNetworkRandom.host[5].wlan[0].radio transmissionState:count 1632
scalar GPSRNetworkRandom.host[5].wlan[0] packetDropInterfaceDown:count 0
scalar GPSRNetworkRandom.host[5].wlan[0] packetDropInterfaceDown:sum(packetBytes) 0
scalar GPSRNetworkRandom.host[5].wlan[0] packetDropNoCarrier:count 0
scalar GPSRNetworkRandom.host[5].wlan[0] packetDropNoCarrier:sum(packetBytes) 0
scalar GPSRNetworkRandom.host[5].ipv4.ip packetDropAddressResolutionFailed:count 0
scalar GPSRNetworkRandom.host[5].ipv4.ip packetDropAddressResolutionFailed:sum(packetBytes) 0
scalar GPSRNetworkRandom.host[5].ipv4.ip packetDropHopLimitReached:count 0
scalar GPSRNetworkRandom.host[5].ipv4.ip packetDropHopLimitReached:sum(packetBytes) 0
scalar GPSRNetworkRandom.host[5].ipv4.ip packetDropForwardingDisabled:count 0
scalar GPSRNetworkRandom.host[5].ipv4.ip packetDropForwardingDisabled:sum(packetBytes) 0
scalar GPSRNetworkRandom.host[5].ipv4.ip packetDropLifetimeExpired:count 0
scalar GPSRNetworkRandom.host[5].ipv4.ip packetDropLifetimeExpired:sum(packetBytes) 0
scalar GPSRNetworkRandom.host[5].ipv4.ip packetDropNoInterfaceFound:count 0
scalar GPSRNetworkRandom.host[5].ipv4.ip packetDropNoInterfaceFound:sum(packetBytes) 0
scalar GPSRNetworkRandom.host[5].ipv4.ip packetDropNoRouteFound:count 0
scalar GPSRNetworkRandom.host[5].ipv4.ip packetDropNoRouteFound:sum(packetBytes) 0
scalar GPSRNetworkRandom.host[5].ipv4.ip packetDropUndefined:count 0
scalar GPSRNetworkRandom.host[5].ipv4.ip packetDropUndefined:sum(packetBytes) 0
scalar GPSRNetworkRandom.host[5].ipv4.arp arpResolutionFailed:count 0
scalar GPSRNetworkRandom.host[5].ipv4.arp arpResolutionCompleted:count 0
scalar GPSRNetworkRandom.host[5].ipv4.arp arpResolutionInitiated:count 0
scalar GPSRNetworkRandom.host[5].ipv4.arp arpReplySent:count 0
scalar GPSRNetworkRandom.host[5].ipv4.arp arpReplySent:sum(packetBytes) 0
scalar GPSRNetworkRandom.host[5].ipv4.arp arpRequestSent:count 0
scalar GPSRNetworkRandom.host[5].ipv4.arp arpRequestSent:sum(packetBytes) 0
scalar GPSRNetworkRandom.host[5].ipv6.neighbourDiscovery startDad:count 1
scalar GPSRNetworkRandom.host[5].udp packetReceived:count 0
scalar GPSRNetworkRandom.host[5].udp packetReceived:sum(packetBytes) 0
scalar GPSRNetworkRandom.host[5].udp packetSent:count 0
scalar GPSRNetworkRandom.host[5].udp packetSent:sum(packetBytes) 0
scalar GPSRNetworkRandom.host[5].udp passedUpPk:count 0
scalar GPSRNetworkRandom.host[5].udp droppedPkWrongPort:count 0
scalar GPSRNetworkRandom.host[5].udp droppedPkBadChecksum:count 0
scalar GPSRNetworkRandom.host[5].app[0] pingRxSeq:count 0
scalar GPSRNetworkRandom.host[5].app[0] pingTxSeq:count 0
scalar GPSRNetworkRandom.host[5].app[0] numOutOfOrderArrivals:last nan
scalar GPSRNetworkRandom.host[5].app[0] numLost:last nan
scalar GPSRNetworkRandom.host[6].lo[0].lo rcvdPkFromHl:count 0
scalar GPSRNetworkRandom.host[6].lo[0].lo rcvdPkFromHl:sum(packetBytes) 0
scalar GPSRNetworkRandom.host[6].lo[0].lo passedUpPk:count 0
scalar GPSRNetworkRandom.host[6].lo[0].lo passedUpPk:sum(packetBytes) 0
scalar GPSRNetworkRandom.host[6].lo[0] packetDropInterfaceDown:count 0
scalar GPSRNetworkRandom.host[6].lo[0] packetDropInterfaceDown:sum(packetBytes) 0
scalar GPSRNetworkRandom.host[6].lo[0] packetDropNoCarrier:count 0
scalar GPSRNetworkRandom.host[6].lo[0] packetDropNoCarrier:sum(packetBytes) 0
scalar GPSRNetworkRandom.host[6].wlan[0].mac.dcf.channelAccess.pendingQueue queueLength:last 0
scalar GPSRNetworkRandom.host[6].wlan[0].mac.dcf.channelAccess.pendingQueue queueLength:max 1
scalar GPSRNetworkRandom.host[6].wlan[0].mac.dcf.channelAccess.pendingQueue queueLength:timeavg 0.00047225599565000009
scalar GPSRNetworkRandom.host[6].wlan[0].mac.dcf.channelAccess.pendingQueue queueBitLength:last 0
scalar GPSRNetworkRandom.host[6].wlan[0].mac.dcf.channelAccess.pendingQueue queueBitLength:max 864
scalar GPSRNetworkRandom.host[6].wlan[0].mac.dcf.channelAccess.pendingQueue queueBitLength:timeavg 0.40802918024159995
scalar GPSRNetworkRandom.host[6].wlan[0].mac.dcf.channelAccess.pendingQueue outgoingPackets:count 402
scalar GPSRNetworkRandom.host[6].wlan[0].mac.dcf.channelAccess.pendingQueue outgoingPacketLengths:sum 347264
scalar GPSRNetworkRandom.host[6].wlan[0].mac.dcf.channelAccess.pendingQueue incomingPackets:count 402
scalar GPSRNetworkRandom.host[6].wlan[0].mac.dcf.channelAccess.pendingQueue incomingPacketLengths:sum 347264
scalar GPSRNetworkRandom.host[6].wlan[0].mac.dcf.channelAccess.pendingQueue droppedPacketsQueueOverflow:count 0
scalar GPSRNetworkRandom.host[6].wlan[0].mac.dcf.channelAccess.pendingQueue droppedPacketLengthsQueueOverflow:sum 0
scalar GPSRNetworkRandom.host[6].wlan[0].mac.dcf.channelAccess.inProgressFrames queueLength:max 1
scalar GPSRNetworkRandom.host[6].wlan[0].mac.dcf.channelAccess.inProgressFrames queueLength:timeavg 0.01254080000000013
scalar GPSRNetworkRandom.host[6].wlan[0].mac.dcf.channelAccess.contention channelAccessGranted:count 402
scalar GPSRNetworkRandom.host[6].wlan[0].mac.dcf.channelAccess.contention stateChanged:count 8982
scalar GPSRNetworkRandom.host[6].wlan[0].mac.dcf.channelAccess channelOwnershipChanged:count 804
scalar GPSRNetworkRandom.host[6].wlan[0].mac.dcf.originatorMacDataService packetAggregated:count 0
scalar GPSRNetworkRandom.host[6].wlan[0].mac.dcf.originatorMacDataService packetFragmented:count 0
scalar GPSRNetworkRandom.host[6].wlan[0].mac.dcf.recipientMacDataService packetDeaggregated:count 0
scalar GPSRNetworkRandom.host[6].wlan[0].mac.dcf.recipientMacDataService packetDefragmented:count 1059
scalar GPSRNetworkRandom.host[6].wlan[0].mac.dcf.recipientMacDataService packetDropDuplicateDetected:count 0
scalar GPSRNetworkRandom.host[6].wlan[0].mac.dcf.recipientMacDataService packetDropDuplicateDetected:sum(packetBytes) 0
scalar GPSRNetworkRandom.host[6].wlan[0].mac.dcf.recoveryProcedure retryLimitReached:count 0
scalar GPSRNetworkRandom.host[6].wlan[0].mac.dcf frameSequenceFinished:count 402
scalar GPSRNetworkRandom.host[6].wlan[0].mac.dcf packetReceivedFromPeer:count 1059
scalar GPSRNetworkRandom.host[6].wlan[0].mac.dcf packetReceivedFromPeer:sum(packetBytes) 114356
scalar GPSRNetworkRandom.host[6].wlan[0].mac.dcf packetReceivedFromPeerUnicast:count 0
scalar GPSRNetworkRandom.host[6].wlan[0].mac.dcf packetReceivedFromPeerUnicast:sum(packetBytes) 0
scalar GPSRNetworkRandom.host[6].wlan[0].mac.dcf packetReceivedFromPeerMulticast:count 1059
scalar GPSRNetworkRandom.host[6].wlan[0].mac.dcf packetReceivedFromPeerMulticast:sum(packetBytes) 114356
scalar GPSRNetworkRandom.host[6].wlan[0].mac.dcf packetReceivedFromPeerBroadcast:count 1059
scalar GPSRNetworkRandom.host[6].wlan[0].mac.dcf packetReceivedFromPeerBroadcast:sum(packetBytes) 114356
scalar GPSRNetworkRandom.host[6].wlan[0].mac.dcf packetReceivedFromPeerWithRetry:count 0
scalar GPSRNetworkRandom.host[6].wlan[0].mac.dcf packetReceivedFromPeerWithRetry:sum(packetBytes) 0
scalar GPSRNetworkRandom.host[6].wlan[0].mac.dcf packetReceivedFromPeerWithoutRetry:count 1059
scalar GPSRNetworkRandom.host[6].wlan[0].mac.dcf packetReceivedFromPeerWithoutRetry:sum(packetBytes) 114356
scalar GPSRNetworkRandom.host[6].wlan[0].mac.dcf packetSentToPeer:count 402
scalar GPSRNetworkRandom.host[6].wlan[0].mac.dcf packetSentToPeer:sum(packetBytes) 43408
scalar GPSRNetworkRandom.host[6].wlan[0].mac.dcf packetSentToPeerUnicast:count 0
scalar GPSRNetworkRandom.host[6].wlan[0].mac.dcf packetSentToPeerUnicast:sum(packetBytes) 0
scalar GPSRNetworkRandom.host[6].wlan[0].mac.dcf packetSentToPeerMulticast:count 402
scalar GPSRNetworkRandom.host[6].wlan[0].mac.dcf packetSentToPeerMulticast:sum(packetBytes) 43408
scalar GPSRNetworkRandom.host[6].wlan[0].mac.dcf packetSentToPeerBroadcast:count 402
scalar GPSRNetworkRandom.host[6].wlan[0].mac.dcf packetSentToPeerBroadcast:sum(packetBytes) 43408
scalar GPSRNetworkRandom.host[6].wlan[0].mac.dcf packetSentToPeerWithRetry:count 0
scalar GPSRNetworkRandom.host[6].wlan[0].mac.dcf packetSentToPeerWithRetry:sum(packetBytes) 0
scalar GPSRNetworkRandom.host[6].wlan[0].mac.dcf packetSentToPeerWithoutRetry:count 402
scalar GPSRNetworkRandom.host[6].wlan[0].mac.dcf packetSentToPeerWithoutRetry:sum(packetBytes) 43408
scalar GPSRNetworkRandom.host[6].wlan[0].mac.dcf packetDrop:count 0
scalar GPSRNetworkRandom.host[6].wlan[0].mac.dcf packetDrop:sum(packetBytes) 0
scalar GPSRNetworkRandom.host[6].wlan[0].mac.dcf packetDropNotAddressedToUs:count 0
scalar GPSRNetworkRandom.host[6].wlan[0].mac.dcf packetDropNotAddressedToUs:sum(packetBytes) 0
scalar GPSRNetworkRandom.host[6].wlan[0].mac.dcf packetDropQueueOverflow:count 0
scalar GPSRNetworkRandom.host[6].wlan[0].mac.dcf packetDropQueueOverflow:sum(packetBytes) 0
scalar GPSRNetworkRandom.host[6].wlan[0].mac.dcf packetDropRetryLimitReached:count 0
scalar GPSRNetworkRandom.host[6].wlan[0].mac.dcf packetDropRetryLimitReached:sum(packetBytes) 0
scalar GPSRNetworkRandom.host[6].wlan[0].mac.dcf linkBroken:count 0
scalar GPSRNetworkRandom.host[6].wlan[0].mac packetReceivedFromLower:count 1205
scalar GPSRNetworkRandom.host[6].wlan[0].mac packetReceivedFromLower:sum(packetBytes) 130116
scalar GPSRNetworkRandom.host[6].wlan[0].mac packetSentToLower:count 402
scalar GPSRNetworkRandom.host[6].wlan[0].mac packetSentToLower:sum(packetBytes) 43408
scalar GPSRNetworkRandom.host[6].wlan[0].mac packetReceivedFromUpper:count 402
scalar GPSRNetworkRandom.host[6].wlan[0].mac packetReceivedFromUpper:sum(packetBytes) 32152
scalar GPSRNetworkRandom.host[6].wlan[0].mac packetSentToUpper:count 1059
scalar GPSRNetworkRandom.host[6].wlan[0].mac packetSentToUpper:sum(packetBytes) 84704
scalar GPSRNetworkRandom.host[6].wlan[0].mac packetDrop:count 146
scalar GPSRNetworkRandom.host[6].wlan[0].mac packetDrop:sum(packetBytes) 15760
scalar GPSRNetworkRandom.host[6].wlan[0].mac packetDropIncorrectlyReceived:count 146
scalar GPSRNetworkRandom.host[6].wlan[0].mac packetDropIncorrectlyReceived:sum(packetBytes) 15760
scalar GPSRNetworkRandom.host[6].wlan[0].mac packetDropNotAddressedToUs:count 0
scalar GPSRNetworkRandom.host[6].wlan[0].mac packetDropNotAddressedToUs:sum(packetBytes) 0
scalar GPSRNetworkRandom.host[6].wlan[0].mac packetDropQueueOverflow:count 0
scalar GPSRNetworkRandom.host[6].wlan[0].mac packetDropQueueOverflow:sum(packetBytes) 0
scalar GPSRNetworkRandom.host[6].wlan[0].mac packetDropRetryLimitReached:count 0
scalar GPSRNetworkRandom.host[6].wlan[0].mac packetDropRetryLimitReached:sum(packetBytes) 0
scalar GPSRNetworkRandom.host[6].wlan[0].mac packetDropDuplicateDetected:count 0
scalar GPSRNetworkRandom.host[6].wlan[0].mac packetDropDuplicateDetected:sum(packetBytes) 0
scalar GPSRNetworkRandom.host[6].wlan[0].mac packetDropOther:count 0
scalar GPSRNetworkRandom.host[6].wlan[0].mac packetDropOther:sum(packetBytes) 0
scalar GPSRNetworkRandom.host[6].wlan[0].mac linkBroken:count 0
scalar GPSRNetworkRandom.host[6].wlan[0].radio radioMode:count 807
scalar GPSRNetworkRandom.host[6].wlan[0].radio receptionState:count 3542
scalar GPSRNetworkRandom.host[6].wlan[0].radio transmissionState:count 1608
scalar GPSRNetworkRandom.host[6].wlan[0] packetDropInterfaceDown:count 0
scalar GPSRNetworkRandom.host[6].wlan[0] packetDropInterfaceDown:sum(packetBytes) 0
scalar GPSRNetworkRandom.host[6].wlan[0] packetDropNoCarrier:count 0
scalar GPSRNetworkRandom.host[6].wlan[0] packetDropNoCarrier:sum(packetBytes) 0
scalar GPSRNetworkRandom.host[6].ipv4.ip packetDropAddressResolutionFailed:count 0
scalar GPSRNetworkRandom.host[6].ipv4.ip packetDropAddressResolutionFailed:sum(packetBytes) 0
scalar GPSRNetworkRandom.host[6].ipv4.ip packetDropHopLimitReached:count 0
scalar GPSRNetworkRandom.host[6].ipv4.ip packetDropHopLimitReached:sum(packetBytes) 0
scalar GPSRNetworkRandom.host[6].ipv4.ip packetDropForwardingDisabled:count 0
scalar GPSRNetworkRandom.host[6].ipv4.ip packetDropForwardingDisabled:sum(packetBytes) 0
scalar GPSRNetworkRandom.host[6].ipv4.ip packetDropLifetimeExpired:count 0
scalar GPSRNetworkRandom.host[6].ipv4.ip packetDropLifetimeExpired:sum(packetBytes) 0
scalar GPSRNetworkRandom.host[6].ipv4.ip packetDropNoInterfaceFound:count 0
scalar GPSRNetworkRandom.host[6].ipv4.ip packetDropNoInterfaceFound:sum(packetBytes) 0
scalar GPSRNetworkRandom.host[6].ipv4.ip packetDropNoRouteFound:count 0
scalar GPSRNetworkRandom.host[6].ipv4.ip packetDropNoRouteFound:sum(packetBytes) 0
scalar GPSRNetworkRandom.host[6].ipv4.ip packetDropUndefined:count 0
scalar GPSRNetworkRandom.host[6].ipv4.ip packetDropUndefined:sum(packetBytes) 0
scalar GPSRNetworkRandom.host[6].ipv4.arp arpResolutionFailed:count 0
scalar GPSRNetworkRandom.host[6].ipv4.arp arpResolutionCompleted:count 0
scalar GPSRNetworkRandom.host[6].ipv4.arp arpResolutionInitiated:count 0
scalar GPSRNetworkRandom.host[6].ipv4.arp arpReplySent:count 0
scalar GPSRNetworkRandom.host[6].ipv4.arp arpReplySent:sum(packetBytes) 0
scalar GPSRNetworkRandom.host[6].ipv4.arp arpRequestSent:count 0
scalar GPSRNetworkRandom.host[6].ipv4.arp arpRequestSent:sum(packetBytes) 0
scalar GPSRNetworkRandom.host[6].ipv6.neighbourDiscovery startDad:count 1
scalar GPSRNetworkRandom.host[6].udp packetReceived:count 0
scalar GPSRNetworkRandom.host[6].udp packetReceived:sum(packetBytes) 0
scalar GPSRNetworkRandom.host[6].udp packetSent:count 0
scalar GPSRNetworkRandom.host[6].udp packetSent:sum(packetBytes) 0
scalar GPSRNetworkRandom.host[6].udp passedUpPk:count 0
scalar GPSRNetworkRandom.host[6].udp droppedPkWrongPort:count 0
scalar GPSRNetworkRandom.host[6].udp droppedPkBadChecksum:count 0
scalar GPSRNetworkRandom.host[6].app[0] pingRxSeq:count 0
scalar GPSRNetworkRandom.host[6].app[0] pingTxSeq:count 0
scalar GPSRNetworkRandom.host[6].app[0] numOutOfOrderArrivals:last nan
scalar GPSRNetworkRandom.host[6].app[0] numLost:last nan
scalar GPSRNetworkRandom.host[7].lo[0].lo rcvdPkFromHl:count 0
scalar GPSRNetworkRandom.host[7].lo[0].lo rcvdPkFromHl:sum(packetBytes) 0
scalar GPSRNetworkRandom.host[7].lo[0].lo passedUpPk:count 0
scalar GPSRNetworkRandom.host[7].lo[0].lo passedUpPk:sum(packetBytes) 0
scalar GPSRNetworkRandom.host[7].lo[0] packetDropInterfaceDown:count 0
scalar GPSRNetworkRandom.host[7].lo[0] packetDropInterfaceDown:sum(packetBytes) 0
[...]
scalar GPSRNetworkRandom.host[19].wlan[0].mac packetDropOther:vector(packetBytes):endtime nan
scalar GPSRNetworkRandom.host[19].wlan[0].radio radioMode:vector:count 809
scalar GPSRNetworkRandom.host[19].wlan[0].radio radioMode:vector:sum 2017
scalar GPSRNetworkRandom.host[19].wlan[0].radio radioMode:vector:sumweights 809
scalar GPSRNetworkRandom.host[19].wlan[0].radio radioMode:vector:mean 2.4932014833127316
scalar GPSRNetworkRandom.host[19].wlan[0].radio radioMode:vector:stddev 0.51489281802837672
scalar GPSRNetworkRandom.host[19].wlan[0].radio radioMode:vector:min 0
scalar GPSRNetworkRandom.host[19].wlan[0].radio radioMode:vector:max 3
scalar GPSRNetworkRandom.host[19].wlan[0].radio radioMode:vector:starttime 0
scalar GPSRNetworkRandom.host[19].wlan[0].radio radioMode:vector:endtime 19.993967145136004
scalar GPSRNetworkRandom.host[19].wlan[0].radio receptionState:vector:count 2297
scalar GPSRNetworkRandom.host[19].wlan[0].radio receptionState:vector:sum 3039
scalar GPSRNetworkRandom.host[19].wlan[0].radio receptionState:vector:sumweights 2297
scalar GPSRNetworkRandom.host[19].wlan[0].radio receptionState:vector:mean 1.3230300391815411
scalar GPSRNetworkRandom.host[19].wlan[0].radio receptionState:vector:stddev 0.95780120555289483
scalar GPSRNetworkRandom.host[19].wlan[0].radio receptionState:vector:min 0
scalar GPSRNetworkRandom.host[19].wlan[0].radio receptionState:vector:max 3
scalar GPSRNetworkRandom.host[19].wlan[0].radio receptionState:vector:starttime 0
scalar GPSRNetworkRandom.host[19].wlan[0].radio receptionState:vector:endtime 19.993967145136004
scalar GPSRNetworkRandom.host[19].wlan[0].radio transmissionState:vector:count 1612
scalar GPSRNetworkRandom.host[19].wlan[0].radio transmissionState:vector:sum 1612
scalar GPSRNetworkRandom.host[19].wlan[0].radio transmissionState:vector:sumweights 1612
scalar GPSRNetworkRandom.host[19].wlan[0].radio transmissionState:vector:mean 1
scalar GPSRNetworkRandom.host[19].wlan[0].radio transmissionState:vector:stddev 0.70732620920771339
scalar GPSRNetworkRandom.host[19].wlan[0].radio transmissionState:vector:min 0
scalar GPSRNetworkRandom.host[19].wlan[0].radio transmissionState:vector:max 2
scalar GPSRNetworkRandom.host[19].wlan[0].radio transmissionState:vector:starttime 0.044548430936000007
scalar GPSRNetworkRandom.host[19].wlan[0].radio transmissionState:vector:endtime 19.993967145136004
scalar GPSRNetworkRandom.host[19].wlan[0].radio radioChannel:vector:count 1
scalar GPSRNetworkRandom.host[19].wlan[0].radio radioChannel:vector:sum 0
scalar GPSRNetworkRandom.host[19].wlan[0].radio radioChannel:vector:sumweights 1
scalar GPSRNetworkRandom.host[19].wlan[0].radio radioChannel:vector:mean 0
scalar GPSRNetworkRandom.host[19].wlan[0].radio radioChannel:vector:stddev nan
scalar GPSRNetworkRandom.host[19].wlan[0].radio radioChannel:vector:min 0
scalar GPSRNetworkRandom.host[19].wlan[0].radio radioChannel:vector:max 0
scalar GPSRNetworkRandom.host[19].wlan[0].radio radioChannel:vector:starttime 0
scalar GPSRNetworkRandom.host[19].wlan[0].radio radioChannel:vector:endtime 0
scalar GPSRNetworkRandom.host[19].wlan[0] packetDropInterfaceDown:vector(packetBytes):count 0
scalar GPSRNetworkRandom.host[19].wlan[0] packetDropInterfaceDown:vector(packetBytes):sum 0
scalar GPSRNetworkRandom.host[19].wlan[0] packetDropInterfaceDown:vector(packetBytes):sumweights 0
scalar GPSRNetworkRandom.host[19].wlan[0] packetDropInterfaceDown:vector(packetBytes):mean -nan
scalar GPSRNetworkRandom.host[19].wlan[0] packetDropInterfaceDown:vector(packetBytes):stddev nan
scalar GPSRNetworkRandom.host[19].wlan[0] packetDropInterfaceDown:vector(packetBytes):min inf
scalar GPSRNetworkRandom.host[19].wlan[0] packetDropInterfaceDown:vector(packetBytes):max -inf
scalar GPSRNetworkRandom.host[19].wlan[0] packetDropInterfaceDown:vector(packetBytes):starttime nan
scalar GPSRNetworkRandom.host[19].wlan[0] packetDropInterfaceDown:vector(packetBytes):endtime nan
scalar GPSRNetworkRandom.host[19].wlan[0] packetDropNoCarrier:vector(packetBytes):count 0
scalar GPSRNetworkRandom.host[19].wlan[0] packetDropNoCarrier:vector(packetBytes):sum 0
scalar GPSRNetworkRandom.host[19].wlan[0] packetDropNoCarrier:vector(packetBytes):sumweights 0
scalar GPSRNetworkRandom.host[19].wlan[0] packetDropNoCarrier:vector(packetBytes):mean -nan
scalar GPSRNetworkRandom.host[19].wlan[0] packetDropNoCarrier:vector(packetBytes):stddev nan
scalar GPSRNetworkRandom.host[19].wlan[0] packetDropNoCarrier:vector(packetBytes):min inf
scalar GPSRNetworkRandom.host[19].wlan[0] packetDropNoCarrier:vector(packetBytes):max -inf
scalar GPSRNetworkRandom.host[19].wlan[0] packetDropNoCarrier:vector(packetBytes):starttime nan
scalar GPSRNetworkRandom.host[19].wlan[0] packetDropNoCarrier:vector(packetBytes):endtime nan
scalar GPSRNetworkRandom.host[19].ipv4.ip packetDropAddressResolutionFailed:vector(packetBytes):count 0
scalar GPSRNetworkRandom.host[19].ipv4.ip packetDropAddressResolutionFailed:vector(packetBytes):sum 0
scalar GPSRNetworkRandom.host[19].ipv4.ip packetDropAddressResolutionFailed:vector(packetBytes):sumweights 0
scalar GPSRNetworkRandom.host[19].ipv4.ip packetDropAddressResolutionFailed:vector(packetBytes):mean -nan
scalar GPSRNetworkRandom.host[19].ipv4.ip packetDropAddressResolutionFailed:vector(packetBytes):stddev nan
scalar GPSRNetworkRandom.host[19].ipv4.ip packetDropAddressResolutionFailed:vector(packetBytes):min inf
scalar GPSRNetworkRandom.host[19].ipv4.ip packetDropAddressResolutionFailed:vector(packetBytes):max -inf
scalar GPSRNetworkRandom.host[19].ipv4.ip packetDropAddressResolutionFailed:vector(packetBytes):starttime nan
scalar GPSRNetworkRandom.host[19].ipv4.ip packetDropAddressResolutionFailed:vector(packetBytes):endtime nan
scalar GPSRNetworkRandom.host[19].ipv4.ip packetDropHopLimitReached:vector(packetBytes):count 0
scalar GPSRNetworkRandom.host[19].ipv4.ip packetDropHopLimitReached:vector(packetBytes):sum 0
scalar GPSRNetworkRandom.host[19].ipv4.ip packetDropHopLimitReached:vector(packetBytes):sumweights 0
scalar GPSRNetworkRandom.host[19].ipv4.ip packetDropHopLimitReached:vector(packetBytes):mean -nan
scalar GPSRNetworkRandom.host[19].ipv4.ip packetDropHopLimitReached:vector(packetBytes):stddev nan
scalar GPSRNetworkRandom.host[19].ipv4.ip packetDropHopLimitReached:vector(packetBytes):min inf
scalar GPSRNetworkRandom.host[19].ipv4.ip packetDropHopLimitReached:vector(packetBytes):max -inf
scalar GPSRNetworkRandom.host[19].ipv4.ip packetDropHopLimitReached:vector(packetBytes):starttime nan
scalar GPSRNetworkRandom.host[19].ipv4.ip packetDropHopLimitReached:vector(packetBytes):endtime nan
scalar GPSRNetworkRandom.host[19].ipv4.ip packetDropForwardingDisabled:vector(packetBytes):count 0
scalar GPSRNetworkRandom.host[19].ipv4.ip packetDropForwardingDisabled:vector(packetBytes):sum 0
scalar GPSRNetworkRandom.host[19].ipv4.ip packetDropForwardingDisabled:vector(packetBytes):sumweights 0
scalar GPSRNetworkRandom.host[19].ipv4.ip packetDropForwardingDisabled:vector(packetBytes):mean -nan
scalar GPSRNetworkRandom.host[19].ipv4.ip packetDropForwardingDisabled:vector(packetBytes):stddev nan
scalar GPSRNetworkRandom.host[19].ipv4.ip packetDropForwardingDisabled:vector(packetBytes):min inf
scalar GPSRNetworkRandom.host[19].ipv4.ip packetDropForwardingDisabled:vector(packetBytes):max -inf
scalar GPSRNetworkRandom.host[19].ipv4.ip packetDropForwardingDisabled:vector(packetBytes):starttime nan
scalar GPSRNetworkRandom.host[19].ipv4.ip packetDropForwardingDisabled:vector(packetBytes):endtime nan
scalar GPSRNetworkRandom.host[19].ipv4.ip packetDropLifetimeExpired:vector(packetBytes):count 0
scalar GPSRNetworkRandom.host[19].ipv4.ip packetDropLifetimeExpired:vector(packetBytes):sum 0
scalar GPSRNetworkRandom.host[19].ipv4.ip packetDropLifetimeExpired:vector(packetBytes):sumweights 0
scalar GPSRNetworkRandom.host[19].ipv4.ip packetDropLifetimeExpired:vector(packetBytes):mean -nan
scalar GPSRNetworkRandom.host[19].ipv4.ip packetDropLifetimeExpired:vector(packetBytes):stddev nan
scalar GPSRNetworkRandom.host[19].ipv4.ip packetDropLifetimeExpired:vector(packetBytes):min inf
scalar GPSRNetworkRandom.host[19].ipv4.ip packetDropLifetimeExpired:vector(packetBytes):max -inf
scalar GPSRNetworkRandom.host[19].ipv4.ip packetDropLifetimeExpired:vector(packetBytes):starttime nan
scalar GPSRNetworkRandom.host[19].ipv4.ip packetDropLifetimeExpired:vector(packetBytes):endtime nan
scalar GPSRNetworkRandom.host[19].ipv4.ip packetDropNoInterfaceFound:vector(packetBytes):count 0
scalar GPSRNetworkRandom.host[19].ipv4.ip packetDropNoInterfaceFound:vector(packetBytes):sum 0
scalar GPSRNetworkRandom.host[19].ipv4.ip packetDropNoInterfaceFound:vector(packetBytes):sumweights 0
scalar GPSRNetworkRandom.host[19].ipv4.ip packetDropNoInterfaceFound:vector(packetBytes):mean -nan
scalar GPSRNetworkRandom.host[19].ipv4.ip packetDropNoInterfaceFound:vector(packetBytes):stddev nan
scalar GPSRNetworkRandom.host[19].ipv4.ip packetDropNoInterfaceFound:vector(packetBytes):min inf
scalar GPSRNetworkRandom.host[19].ipv4.ip packetDropNoInterfaceFound:vector(packetBytes):max -inf
scalar GPSRNetworkRandom.host[19].ipv4.ip packetDropNoInterfaceFound:vector(packetBytes):starttime nan
scalar GPSRNetworkRandom.host[19].ipv4.ip packetDropNoInterfaceFound:vector(packetBytes):endtime nan
scalar GPSRNetworkRandom.host[19].ipv4.ip packetDropNoRouteFound:vector(packetBytes):count 0
scalar GPSRNetworkRandom.host[19].ipv4.ip packetDropNoRouteFound:vector(packetBytes):sum 0
scalar GPSRNetworkRandom.host[19].ipv4.ip packetDropNoRouteFound:vector(packetBytes):sumweights 0
scalar GPSRNetworkRandom.host[19].ipv4.ip packetDropNoRouteFound:vector(packetBytes):mean -nan
scalar GPSRNetworkRandom.host[19].ipv4.ip packetDropNoRouteFound:vector(packetBytes):stddev nan
scalar GPSRNetworkRandom.host[19].ipv4.ip packetDropNoRouteFound:vector(packetBytes):min inf
scalar GPSRNetworkRandom.host[19].ipv4.ip packetDropNoRouteFound:vector(packetBytes):max -inf
scalar GPSRNetworkRandom.host[19].ipv4.ip packetDropNoRouteFound:vector(packetBytes):starttime nan
scalar GPSRNetworkRandom.host[19].ipv4.ip packetDropNoRouteFound:vector(packetBytes):endtime nan
scalar GPSRNetworkRandom.host[19].ipv4.ip packetDropUndefined:vector(packetBytes):count 0
scalar GPSRNetworkRandom.host[19].ipv4.ip packetDropUndefined:vector(packetBytes):sum 0
scalar GPSRNetworkRandom.host[19].ipv4.ip packetDropUndefined:vector(packetBytes):sumweights 0
scalar GPSRNetworkRandom.host[19].ipv4.ip packetDropUndefined:vector(packetBytes):mean -nan
scalar GPSRNetworkRandom.host[19].ipv4.ip packetDropUndefined:vector(packetBytes):stddev nan
scalar GPSRNetworkRandom.host[19].ipv4.ip packetDropUndefined:vector(packetBytes):min inf
scalar GPSRNetworkRandom.host[19].ipv4.ip packetDropUndefined:vector(packetBytes):max -inf
scalar GPSRNetworkRandom.host[19].ipv4.ip packetDropUndefined:vector(packetBytes):starttime nan
scalar GPSRNetworkRandom.host[19].ipv4.ip packetDropUndefined:vector(packetBytes):endtime nan
scalar GPSRNetworkRandom.host[19].ipv4.arp arpRequestSent:vector(packetBytes):count 0
scalar GPSRNetworkRandom.host[19].ipv4.arp arpRequestSent:vector(packetBytes):sum 0
scalar GPSRNetworkRandom.host[19].ipv4.arp arpRequestSent:vector(packetBytes):sumweights 0
scalar GPSRNetworkRandom.host[19].ipv4.arp arpRequestSent:vector(packetBytes):mean -nan
scalar GPSRNetworkRandom.host[19].ipv4.arp arpRequestSent:vector(packetBytes):stddev nan
scalar GPSRNetworkRandom.host[19].ipv4.arp arpRequestSent:vector(packetBytes):min inf
scalar GPSRNetworkRandom.host[19].ipv4.arp arpRequestSent:vector(packetBytes):max -inf
scalar GPSRNetworkRandom.host[19].ipv4.arp arpRequestSent:vector(packetBytes):starttime nan
scalar GPSRNetworkRandom.host[19].ipv4.arp arpRequestSent:vector(packetBytes):endtime nan
scalar GPSRNetworkRandom.host[19].ipv4.arp arpReplySent:vector(packetBytes):count 0
scalar GPSRNetworkRandom.host[19].ipv4.arp arpReplySent:vector(packetBytes):sum 0
scalar GPSRNetworkRandom.host[19].ipv4.arp arpReplySent:vector(packetBytes):sumweights 0
scalar GPSRNetworkRandom.host[19].ipv4.arp arpReplySent:vector(packetBytes):mean -nan
scalar GPSRNetworkRandom.host[19].ipv4.arp arpReplySent:vector(packetBytes):stddev nan
scalar GPSRNetworkRandom.host[19].ipv4.arp arpReplySent:vector(packetBytes):min inf
scalar GPSRNetworkRandom.host[19].ipv4.arp arpReplySent:vector(packetBytes):max -inf
scalar GPSRNetworkRandom.host[19].ipv4.arp arpReplySent:vector(packetBytes):starttime nan
scalar GPSRNetworkRandom.host[19].ipv4.arp arpReplySent:vector(packetBytes):endtime nan
scalar GPSRNetworkRandom.host[19].ipv6.neighbourDiscovery startDad:vector:count 1
scalar GPSRNetworkRandom.host[19].ipv6.neighbourDiscovery startDad:vector:sum 1
scalar GPSRNetworkRandom.host[19].ipv6.neighbourDiscovery startDad:vector:sumweights 1
scalar GPSRNetworkRandom.host[19].ipv6.neighbourDiscovery startDad:vector:mean 1
scalar GPSRNetworkRandom.host[19].ipv6.neighbourDiscovery startDad:vector:stddev nan
scalar GPSRNetworkRandom.host[19].ipv6.neighbourDiscovery startDad:vector:min 1
scalar GPSRNetworkRandom.host[19].ipv6.neighbourDiscovery startDad:vector:max 1
scalar GPSRNetworkRandom.host[19].ipv6.neighbourDiscovery startDad:vector:starttime 0.097514168266000012
scalar GPSRNetworkRandom.host[19].ipv6.neighbourDiscovery startDad:vector:endtime 0.097514168266000012
scalar GPSRNetworkRandom.host[19].udp packetSent:vector(packetBytes):count 0
scalar GPSRNetworkRandom.host[19].udp packetSent:vector(packetBytes):sum 0
scalar GPSRNetworkRandom.host[19].udp packetSent:vector(packetBytes):sumweights 0
scalar GPSRNetworkRandom.host[19].udp packetSent:vector(packetBytes):mean -nan
scalar GPSRNetworkRandom.host[19].udp packetSent:vector(packetBytes):stddev nan
scalar GPSRNetworkRandom.host[19].udp packetSent:vector(packetBytes):min inf
scalar GPSRNetworkRandom.host[19].udp packetSent:vector(packetBytes):max -inf
scalar GPSRNetworkRandom.host[19].udp packetSent:vector(packetBytes):starttime nan
scalar GPSRNetworkRandom.host[19].udp packetSent:vector(packetBytes):endtime nan
scalar GPSRNetworkRandom.host[19].udp packetReceived:vector(packetBytes):count 0
scalar GPSRNetworkRandom.host[19].udp packetReceived:vector(packetBytes):sum 0
scalar GPSRNetworkRandom.host[19].udp packetReceived:vector(packetBytes):sumweights 0
scalar GPSRNetworkRandom.host[19].udp packetReceived:vector(packetBytes):mean -nan
scalar GPSRNetworkRandom.host[19].udp packetReceived:vector(packetBytes):stddev nan
scalar GPSRNetworkRandom.host[19].udp packetReceived:vector(packetBytes):min inf
scalar GPSRNetworkRandom.host[19].udp packetReceived:vector(packetBytes):max -inf
scalar GPSRNetworkRandom.host[19].udp packetReceived:vector(packetBytes):starttime nan
scalar GPSRNetworkRandom.host[19].udp packetReceived:vector(packetBytes):endtime nan
scalar GPSRNetworkRandom.host[19].udp passedUpPk:vector(count):count 1
scalar GPSRNetworkRandom.host[19].udp passedUpPk:vector(count):sum 0
scalar GPSRNetworkRandom.host[19].udp passedUpPk:vector(count):sumweights 1
scalar GPSRNetworkRandom.host[19].udp passedUpPk:vector(count):mean 0
scalar GPSRNetworkRandom.host[19].udp passedUpPk:vector(count):stddev nan
scalar GPSRNetworkRandom.host[19].udp passedUpPk:vector(count):min 0
scalar GPSRNetworkRandom.host[19].udp passedUpPk:vector(count):max 0
scalar GPSRNetworkRandom.host[19].udp passedUpPk:vector(count):starttime 0
scalar GPSRNetworkRandom.host[19].udp passedUpPk:vector(count):endtime 0
scalar GPSRNetworkRandom.host[19].udp droppedPkWrongPort:vector(count):count 1
scalar GPSRNetworkRandom.host[19].udp droppedPkWrongPort:vector(count):sum 0
scalar GPSRNetworkRandom.host[19].udp droppedPkWrongPort:vector(count):sumweights 1
scalar GPSRNetworkRandom.host[19].udp droppedPkWrongPort:vector(count):mean 0
scalar GPSRNetworkRandom.host[19].udp droppedPkWrongPort:vector(count):stddev nan
scalar GPSRNetworkRandom.host[19].udp droppedPkWrongPort:vector(count):min 0
scalar GPSRNetworkRandom.host[19].udp droppedPkWrongPort:vector(count):max 0
scalar GPSRNetworkRandom.host[19].udp droppedPkWrongPort:vector(count):starttime 0
scalar GPSRNetworkRandom.host[19].udp droppedPkWrongPort:vector(count):endtime 0
scalar GPSRNetworkRandom.host[19].udp droppedPkBadChecksum:vector(count):count 1
scalar GPSRNetworkRandom.host[19].udp droppedPkBadChecksum:vector(count):sum 0
scalar GPSRNetworkRandom.host[19].udp droppedPkBadChecksum:vector(count):sumweights 1
scalar GPSRNetworkRandom.host[19].udp droppedPkBadChecksum:vector(count):mean 0
scalar GPSRNetworkRandom.host[19].udp droppedPkBadChecksum:vector(count):stddev nan
scalar GPSRNetworkRandom.host[19].udp droppedPkBadChecksum:vector(count):min 0
scalar GPSRNetworkRandom.host[19].udp droppedPkBadChecksum:vector(count):max 0
scalar GPSRNetworkRandom.host[19].udp droppedPkBadChecksum:vector(count):starttime 0
scalar GPSRNetworkRandom.host[19].udp droppedPkBadChecksum:vector(count):endtime 0
scalar GPSRNetworkRandom.host[19].app[0] rtt:vector:count 0
scalar GPSRNetworkRandom.host[19].app[0] rtt:vector:sum 0
scalar GPSRNetworkRandom.host[19].app[0] rtt:vector:sumweights 0
scalar GPSRNetworkRandom.host[19].app[0] rtt:vector:mean -nan
scalar GPSRNetworkRandom.host[19].app[0] rtt:vector:stddev nan
scalar GPSRNetworkRandom.host[19].app[0] rtt:vector:min inf
scalar GPSRNetworkRandom.host[19].app[0] rtt:vector:max -inf
scalar GPSRNetworkRandom.host[19].app[0] rtt:vector:starttime nan
scalar GPSRNetworkRandom.host[19].app[0] rtt:vector:endtime nan
scalar GPSRNetworkRandom.host[19].app[0] numLost:vector:count 0
scalar GPSRNetworkRandom.host[19].app[0] numLost:vector:sum 0
scalar GPSRNetworkRandom.host[19].app[0] numLost:vector:sumweights 0
scalar GPSRNetworkRandom.host[19].app[0] numLost:vector:mean -nan
scalar GPSRNetworkRandom.host[19].app[0] numLost:vector:stddev nan
scalar GPSRNetworkRandom.host[19].app[0] numLost:vector:min inf
scalar GPSRNetworkRandom.host[19].app[0] numLost:vector:max -inf
scalar GPSRNetworkRandom.host[19].app[0] numLost:vector:starttime nan
scalar GPSRNetworkRandom.host[19].app[0] numLost:vector:endtime nan
scalar GPSRNetworkRandom.host[19].app[0] numOutOfOrderArrivals:vector:count 0
scalar GPSRNetworkRandom.host[19].app[0] numOutOfOrderArrivals:vector:sum 0
scalar GPSRNetworkRandom.host[19].app[0] numOutOfOrderArrivals:vector:sumweights 0
scalar GPSRNetworkRandom.host[19].app[0] numOutOfOrderArrivals:vector:mean -nan
scalar GPSRNetworkRandom.host[19].app[0] numOutOfOrderArrivals:vector:stddev nan
scalar GPSRNetworkRandom.host[19].app[0] numOutOfOrderArrivals:vector:min inf
scalar GPSRNetworkRandom.host[19].app[0] numOutOfOrderArrivals:vector:max -inf
scalar GPSRNetworkRandom.host[19].app[0] numOutOfOrderArrivals:vector:starttime nan
scalar GPSRNetworkRandom.host[19].app[0] numOutOfOrderArrivals:vector:endtime nan
scalar GPSRNetworkRandom.host[19].app[0] pingTxSeq:vector:count 0
scalar GPSRNetworkRandom.host[19].app[0] pingTxSeq:vector:sum 0
scalar GPSRNetworkRandom.host[19].app[0] pingTxSeq:vector:sumweights 0
scalar GPSRNetworkRandom.host[19].app[0] pingTxSeq:vector:mean -nan
scalar GPSRNetworkRandom.host[19].app[0] pingTxSeq:vector:stddev nan
scalar GPSRNetworkRandom.host[19].app[0] pingTxSeq:vector:min inf
scalar GPSRNetworkRandom.host[19].app[0] pingTxSeq:vector:max -inf
scalar GPSRNetworkRandom.host[19].app[0] pingTxSeq:vector:starttime nan
scalar GPSRNetworkRandom.host[19].app[0] pingTxSeq:vector:endtime nan
scalar GPSRNetworkRandom.host[19].app[0] pingRxSeq:vector:count 0
scalar GPSRNetworkRandom.host[19].app[0] pingRxSeq:vector:sum 0
scalar GPSRNetworkRandom.host[19].app[0] pingRxSeq:vector:sumweights 0
scalar GPSRNetworkRandom.host[19].app[0] pingRxSeq:vector:mean -nan
scalar GPSRNetworkRandom.host[19].app[0] pingRxSeq:vector:stddev nan
scalar GPSRNetworkRandom.host[19].app[0] pingRxSeq:vector:min inf
scalar GPSRNetworkRandom.host[19].app[0] pingRxSeq:vector:max -inf
scalar GPSRNetworkRandom.host[19].app[0] pingRxSeq:vector:starttime nan
scalar GPSRNetworkRandom.host[19].app[0] pingRxSeq:vector:endtime nan

