version 3
run IPv6-0-20230511-14:04:18-51949
attr configname IPv6
attr datetime 20230511-14:04:18
attr datetimef 20230511-140418
attr description "network layer for Ipv6 network protocol only"
attr experiment IPv6
attr inifile omnetpp.ini
attr iterationvars ""
attr iterationvarsd ""
attr iterationvarsf ""
attr measurement ""
attr network GPSRNetworkRandom
attr processid 51949
attr repetition 0
attr replication #0
attr resultdir results
attr runnumber 0
attr seedset 0
config **.param-recording false
config **.vector-recording false
config image-path /home/levy/workspace/inet/images
config output-scalar-file results/omnetpp.ini-IPv6-#0.sca
config sim-time-limit 20s
config sim-time-limit 20s
config extends "Random, _IPv6"
config description "network layer for Ipv6 network protocol only"
config **.hasIpv4 false
config **.hasIpv6 true
config network GPSRNetworkRandom
config *.numHosts 20
config **.host[*].mobility.typename StationaryMobility
config *.host[*].numApps 1
config *.host[*].app[0].typename PingApp
config *.host[*].app[0].startTime uniform(1s,5s)
config *.host[*].app[0].printPing true
config description "base config for Ipv6"
config **.gpsr.networkProtocolModule "\"^.ipv6.ipv6\""
config **.gpsr.routingTableModule "\"^.ipv6.routingTable\""
config *.host[0].app[0].destAddr "\"host[1](ipv6)\""
config num-rngs 3
config **.mobility.rng-0 1
config **.wlan[*].mac.rng-0 2
config **.mobility.constraintAreaMinZ 0m
config **.mobility.constraintAreaMaxZ 0m
config **.mobility.constraintAreaMinX 0m
config **.mobility.constraintAreaMinY 0m
config **.mobility.constraintAreaMaxX 1000m
config **.mobility.constraintAreaMaxY 1000m
config **.wlan[*].bitrate 2Mbps
config **.wlan[*].mac.dcf.channelAccess.cwMin 7
config **.wlan[*].radio.transmitter.power 2mW

scalar GPSRNetworkRandom.radioMedium.propagation "Arrival computation count" 152665
scalar GPSRNetworkRandom.radioMedium "transmission count" 8035
scalar GPSRNetworkRandom.radioMedium "signal send count" 152665
scalar GPSRNetworkRandom.radioMedium "reception computation count" 152665
scalar GPSRNetworkRandom.radioMedium "interference computation count" 452433
scalar GPSRNetworkRandom.radioMedium "reception decision computation count" 24497
scalar GPSRNetworkRandom.radioMedium "listening decision computation count" 276847
scalar GPSRNetworkRandom.radioMedium "reception cache hit" 79.800231814718
attr unit %
scalar GPSRNetworkRandom.radioMedium "interference cache hit" 66.666666666667
attr unit %
scalar GPSRNetworkRandom.radioMedium "noise cache hit" 0
attr unit %
scalar GPSRNetworkRandom.radioMedium "snir cache hit" 50
attr unit %
scalar GPSRNetworkRandom.radioMedium "reception decision cache hit" 50
attr unit %
scalar GPSRNetworkRandom.radioMedium "reception result cache hit" 0
attr unit %
scalar GPSRNetworkRandom.host[0].lo[0].lo rcvdPkFromHl:count 0
attr interpolationmode none
attr recordingmode count
attr source packetReceivedFromUpper
attr title "packets received from higher layer, count"
scalar GPSRNetworkRandom.host[0].lo[0].lo rcvdPkFromHl:sum(packetBytes) 0
attr interpolationmode none
attr recordingmode sum(packetBytes)
attr source packetReceivedFromUpper
attr title "packets received from higher layer, sum(packetBytes)"
scalar GPSRNetworkRandom.host[0].lo[0].lo passedUpPk:count 0
attr interpolationmode none
attr recordingmode count
attr source packetSentToUpper
attr title "packets passed to higher layer, count"
scalar GPSRNetworkRandom.host[0].lo[0].lo passedUpPk:sum(packetBytes) 0
attr interpolationmode none
attr recordingmode sum(packetBytes)
attr source packetSentToUpper
attr title "packets passed to higher layer, sum(packetBytes)"
scalar GPSRNetworkRandom.host[0].lo[0] packetDropInterfaceDown:count 0
attr interpolationmode none
attr recordingmode count
attr source packetDropReasonIsInterfaceDown(packetDropped)
attr title "packet drops: interface down, count"
scalar GPSRNetworkRandom.host[0].lo[0] packetDropInterfaceDown:sum(packetBytes) 0
attr interpolationmode none
attr recordingmode sum(packetBytes)
attr source packetDropReasonIsInterfaceDown(packetDropped)
attr title "packet drops: interface down, sum(packetBytes)"
scalar GPSRNetworkRandom.host[0].lo[0] packetDropNoCarrier:count 0
attr interpolationmode none
attr recordingmode count
attr source packetDropReasonIsNoCarrier(packetDropped)
attr title "packet drops: no carrier, count"
scalar GPSRNetworkRandom.host[0].lo[0] packetDropNoCarrier:sum(packetBytes) 0
attr interpolationmode none
attr recordingmode sum(packetBytes)
attr source packetDropReasonIsNoCarrier(packetDropped)
attr title "packet drops: no carrier, sum(packetBytes)"
scalar GPSRNetworkRandom.host[0].wlan[0].mac.dcf.channelAccess.pendingQueue queueLength:last 0
attr autoWarmupFilter false
attr interpolationmode sample-hold
attr recordingmode last
attr source "warmup(atomic(constant0(packetPushEnded) + count(packetPushStarted) - count(packetPulled) - count(packetRemoved) - count(packetDropped)))"
attr title "queue length, last"
attr unit pk
scalar GPSRNetworkRandom.host[0].wlan[0].mac.dcf.channelAccess.pendingQueue queueLength:max 1
attr autoWarmupFilter false
attr interpolationmode sample-hold
attr recordingmode max
attr source "warmup(atomic(constant0(packetPushEnded) + count(packetPushStarted) - count(packetPulled) - count(packetRemoved) - count(packetDropped)))"
attr title "queue length, max"
attr unit pk
scalar GPSRNetworkRandom.host[0].wlan[0].mac.dcf.channelAccess.pendingQueue queueLength:timeavg 0.00017775536295
attr autoWarmupFilter false
attr interpolationmode sample-hold
attr recordingmode timeavg
attr source "warmup(atomic(constant0(packetPushEnded) + count(packetPushStarted) - count(packetPulled) - count(packetRemoved) - count(packetDropped)))"
attr title "queue length, timeavg"
attr unit pk
scalar GPSRNetworkRandom.host[0].wlan[0].mac.dcf.channelAccess.pendingQueue queueBitLength:last 0
attr autoWarmupFilter false
attr interpolationmode sample-hold
attr recordingmode last
attr source "warmup(atomic(constant0(packetPushEnded) + sum(packetLength(packetPushStarted)) - sum(packetLength(packetPulled)) - sum(packetLength(packetRemoved)) - sum(packetLength(packetDropped))))"
attr title "queue bit length, last"
attr unit b
scalar GPSRNetworkRandom.host[0].wlan[0].mac.dcf.channelAccess.pendingQueue queueBitLength:max 864
attr autoWarmupFilter false
attr interpolationmode sample-hold
attr recordingmode max
attr source "warmup(atomic(constant0(packetPushEnded) + sum(packetLength(packetPushStarted)) - sum(packetLength(packetPulled)) - sum(packetLength(packetRemoved)) - sum(packetLength(packetDropped))))"
attr title "queue bit length, max"
attr unit b
scalar GPSRNetworkRandom.host[0].wlan[0].mac.dcf.channelAccess.pendingQueue queueBitLength:timeavg 0.1535806335888
attr autoWarmupFilter false
attr interpolationmode sample-hold
attr recordingmode timeavg
attr source "warmup(atomic(constant0(packetPushEnded) + sum(packetLength(packetPushStarted)) - sum(packetLength(packetPulled)) - sum(packetLength(packetRemoved)) - sum(packetLength(packetDropped))))"
attr title "queue bit length, timeavg"
attr unit b
statistic GPSRNetworkRandom.host[0].wlan[0].mac.dcf.channelAccess.pendingQueue queueingTime:histogram
field count 399
field mean 8.9100432556391e-06
field stddev 8.0082281741628e-05
field min 0
field max 0.001092835581
field sum 0.003555107259
field sqrsum 2.5841185553365e-06
attr interpolationmode none
attr recordingmode histogram
attr source queueingTime(packetPulled)
attr title "queueing times"
attr unit s
bin	-inf	0
bin	0	391
bin	2e-05	1
bin	4e-05	0
bin	6e-05	0
bin	8e-05	0
bin	0.0001	0
bin	0.00012	1
bin	0.00014	0
bin	0.00016	0
bin	0.00018	0
bin	0.0002	1
bin	0.00022	0
bin	0.00024	0
bin	0.00026	0
bin	0.00028	0
bin	0.0003	0
bin	0.00032	1
bin	0.00034	0
bin	0.00036	0
bin	0.00038	1
bin	0.0004	0
bin	0.00042	1
bin	0.00044	0
bin	0.00046	0
bin	0.00048	0
bin	0.0005	0
bin	0.00052	0
bin	0.00054	0
bin	0.00056	0
bin	0.00058	0
bin	0.0006	0
bin	0.00062	0
bin	0.00064	0
bin	0.00066	0
bin	0.00068	0
bin	0.0007	0
bin	0.00072	0
bin	0.00074	0
bin	0.00076	0
bin	0.00078	0
bin	0.0008	0
bin	0.00082	0
bin	0.00084	0
bin	0.00086	0
bin	0.00088	0
bin	0.0009	0
bin	0.00092	1
bin	0.00094	0
bin	0.00096	0
bin	0.00098	0
bin	0.001	0
bin	0.00102	0
bin	0.00104	0
bin	0.00106	0
bin	0.00108	1
bin	0.0011	0
bin	0.00112	0
bin	0.00114	0
bin	0.00116	0
bin	0.00118	0
bin	0.0012	0
bin	0.00122	0
bin	0.00124	0
bin	0.00126	0
bin	0.00128	0
bin	0.0013	0
bin	0.00132	0
bin	0.00134	0
bin	0.00136	0
bin	0.00138	0
scalar GPSRNetworkRandom.host[0].wlan[0].mac.dcf.channelAccess.pendingQueue outgoingPackets:count 399
attr recordingmode count
attr source packetPulled
attr title "outgoing packets, count"
attr unit pk
scalar GPSRNetworkRandom.host[0].wlan[0].mac.dcf.channelAccess.pendingQueue outgoingPacketLengths:sum 344672
attr interpolationmode none
attr recordingmode sum
attr source packetLength(packetPulled)
attr title "outgoing packet lengths, sum"
attr unit b
statistic GPSRNetworkRandom.host[0].wlan[0].mac.dcf.channelAccess.pendingQueue outgoingPacketLengths:histogram
field count 399
field mean 863.83959899749
field stddev 3.2040075156593
field min 800
field max 864
field sum 344672
field sqrsum 297745408
attr interpolationmode none
attr recordingmode histogram
attr source packetLength(packetPulled)
attr title "outgoing packet lengths"
attr unit b
bin	-inf	0
bin	784	0
bin	786	0
bin	788	0
bin	790	0
bin	792	0
bin	794	0
bin	796	0
bin	798	0
bin	800	1
bin	802	0
bin	804	0
bin	806	0
bin	808	0
bin	810	0
bin	812	0
bin	814	0
bin	816	0
bin	818	0
bin	820	0
bin	822	0
bin	824	0
bin	826	0
bin	828	0
bin	830	0
bin	832	0
bin	834	0
bin	836	0
bin	838	0
bin	840	0
bin	842	0
bin	844	0
bin	846	0
bin	848	0
bin	850	0
bin	852	0
bin	854	0
bin	856	0
bin	858	0
bin	860	0
bin	862	0
bin	864	398
bin	866	0
bin	868	0
bin	870	0
bin	872	0
bin	874	0
bin	876	0
bin	878	0
bin	880	0
statistic GPSRNetworkRandom.host[0].wlan[0].mac.dcf.channelAccess.pendingQueue flowQueueingTime:histogram
field count 0
field mean -nan
field stddev nan
field min nan
field max nan
field sum 0
field sqrsum 0
attr interpolationmode none
attr recordingmode histogram
attr source queueingTime(demuxFlow(packetPulled))
attr title "flow queueing times"
attr unit s
bin	-inf	0
bin	0	0
bin	1	0
scalar GPSRNetworkRandom.host[0].wlan[0].mac.dcf.channelAccess.pendingQueue incomingPackets:count 399
attr recordingmode count
attr source packetPushStarted
attr title "incoming packets, count"
attr unit pk
scalar GPSRNetworkRandom.host[0].wlan[0].mac.dcf.channelAccess.pendingQueue incomingPacketLengths:sum 344672
attr interpolationmode none
attr recordingmode sum
attr source packetLength(packetPushStarted)
attr title "incoming packet lengths, sum"
attr unit b
statistic GPSRNetworkRandom.host[0].wlan[0].mac.dcf.channelAccess.pendingQueue incomingPacketLengths:histogram
field count 399
field mean 863.83959899749
field stddev 3.2040075156593
field min 800
field max 864
field sum 344672
field sqrsum 297745408
attr interpolationmode none
attr recordingmode histogram
attr source packetLength(packetPushStarted)
attr title "incoming packet lengths"
attr unit b
bin	-inf	0
bin	784	0
bin	786	0
bin	788	0
bin	790	0
bin	792	0
bin	794	0
bin	796	0
bin	798	0
bin	800	1
bin	802	0
bin	804	0
bin	806	0
bin	808	0
bin	810	0
bin	812	0
bin	814	0
bin	816	0
bin	818	0
bin	820	0
bin	822	0
bin	824	0
bin	826	0
bin	828	0
bin	830	0
bin	832	0
bin	834	0
bin	836	0
bin	838	0
bin	840	0
bin	842	0
bin	844	0
bin	846	0
bin	848	0
bin	850	0
bin	852	0
bin	854	0
bin	856	0
bin	858	0
bin	860	0
bin	862	0
bin	864	398
bin	866	0
bin	868	0
bin	870	0
bin	872	0
bin	874	0
bin	876	0
bin	878	0
bin	880	0
scalar GPSRNetworkRandom.host[0].wlan[0].mac.dcf.channelAccess.pendingQueue droppedPacketsQueueOverflow:count 0
attr interpolationmode none
attr recordingmode count
attr source packetDropReasonIsQueueOverflow(packetDropped)
attr title "dropped packets: queue overflow, count"
attr unit pk
scalar GPSRNetworkRandom.host[0].wlan[0].mac.dcf.channelAccess.pendingQueue droppedPacketLengthsQueueOverflow:sum 0
attr interpolationmode none
attr recordingmode sum
attr source packetLength(packetDropReasonIsQueueOverflow(packetDropped))
attr title "dropped packet lengths: queue overflow, sum"
attr unit b
statistic GPSRNetworkRandom.host[0].wlan[0].mac.dcf.channelAccess.inProgressFrames queueingTime:histogram
field count 399
field mean 0.00062391979949875
field stddev 1.6020037546795e-06
field min 0.000592
field max 0.000624
field sum 0.248944
field sqrsum 0.000155322112
attr interpolationmode none
attr recordingmode histogram
attr source queueingTime(packetDequeued)
attr title "queueing times"
bin	-inf	0
bin	0.000583	0
bin	0.000584	0
bin	0.000585	0
bin	0.000586	0
bin	0.000587	0
bin	0.000588	0
bin	0.000589	0
bin	0.00059	0
bin	0.000591	1
bin	0.000592	0
bin	0.000593	0
bin	0.000594	0
bin	0.000595	0
bin	0.000596	0
bin	0.000597	0
bin	0.000598	0
bin	0.000599	0
bin	0.0006	0
bin	0.000601	0
bin	0.000602	0
bin	0.000603	0
bin	0.000604	0
bin	0.000605	0
bin	0.000606	0
bin	0.000607	0
bin	0.000608	0
bin	0.000609	0
bin	0.00061	0
bin	0.000611	0
bin	0.000612	0
bin	0.000613	0
bin	0.000614	0
bin	0.000615	0
bin	0.000616	0
bin	0.000617	0
bin	0.000618	0
bin	0.000619	0
bin	0.00062	0
bin	0.000621	0
bin	0.000622	0
bin	0.000623	398
bin	0.000624	0
bin	0.000625	0
bin	0.000626	0
bin	0.000627	0
bin	0.000628	0
bin	0.000629	0
bin	0.00063	0
bin	0.000631	0
bin	0.000632	0
scalar GPSRNetworkRandom.host[0].wlan[0].mac.dcf.channelAccess.inProgressFrames queueLength:max 1
attr autoWarmupFilter false
attr interpolationmode sample-hold
attr recordingmode max
attr source "warmup(count(packetEnqueued) - count(packetDequeued))"
attr title "queue length, max"
scalar GPSRNetworkRandom.host[0].wlan[0].mac.dcf.channelAccess.inProgressFrames queueLength:timeavg 0.0124472
attr autoWarmupFilter false
attr interpolationmode sample-hold
attr recordingmode timeavg
attr source "warmup(count(packetEnqueued) - count(packetDequeued))"
attr title "queue length, timeavg"
scalar GPSRNetworkRandom.host[0].wlan[0].mac.dcf.channelAccess.contention channelAccessGranted:count 399
attr recordingmode count
attr title "channel access granted, count"
scalar GPSRNetworkRandom.host[0].wlan[0].mac.dcf.channelAccess.contention stateChanged:count 6918
attr enum IDLE,DEFER,IFS_AND_BACKOFF
attr interpolationmode none
attr recordingmode count
attr title "contention state changed, count"
attr type enum
scalar GPSRNetworkRandom.host[0].wlan[0].mac.dcf.channelAccess channelOwnershipChanged:count 798
attr interpolationmode sample-hold
attr recordingmode count
attr title "channel ownership, count"
scalar GPSRNetworkRandom.host[0].wlan[0].mac.dcf.originatorMacDataService packetAggregated:count 0
attr recordingmode count
attr title "packets aggregated, count"
scalar GPSRNetworkRandom.host[0].wlan[0].mac.dcf.originatorMacDataService packetFragmented:count 0
attr recordingmode count
attr title "packets fragmented, count"
scalar GPSRNetworkRandom.host[0].wlan[0].mac.dcf.recipientMacDataService packetDeaggregated:count 0
attr recordingmode count
attr title "packets deaggregated, count"
scalar GPSRNetworkRandom.host[0].wlan[0].mac.dcf.recipientMacDataService packetDefragmented:count 608
attr recordingmode count
attr title "packets defragmented, count"
scalar GPSRNetworkRandom.host[0].wlan[0].mac.dcf.recipientMacDataService packetDropDuplicateDetected:count 0
attr interpolationmode none
attr recordingmode count
attr source packetDropReasonIsDuplicateDetected(packetDropped)
attr title "packet drops: duplicate detected, count"
scalar GPSRNetworkRandom.host[0].wlan[0].mac.dcf.recipientMacDataService packetDropDuplicateDetected:sum(packetBytes) 0
attr interpolationmode none
attr recordingmode sum(packetBytes)
attr source packetDropReasonIsDuplicateDetected(packetDropped)
attr title "packet drops: duplicate detected, sum(packetBytes)"
scalar GPSRNetworkRandom.host[0].wlan[0].mac.dcf.recoveryProcedure retryLimitReached:count 0
attr recordingmode count
attr title "retry limit reached, count"
scalar GPSRNetworkRandom.host[0].wlan[0].mac.dcf frameSequenceFinished:count 399
attr recordingmode count
attr title "finished frame sequences, count"
statistic GPSRNetworkRandom.host[0].wlan[0].mac.dcf frameSequenceDuration:histogram
field count 399
field mean 0.00062391979949875
field stddev 1.6020037546795e-06
field min 0.000592
field max 0.000624
field sum 0.248944
field sqrsum 0.000155322112
attr recordingmode histogram
attr source frameSequenceDuration(frameSequenceFinished)
attr title "frame sequence durations"
bin	-inf	0
bin	0.000583	0
bin	0.000584	0
bin	0.000585	0
bin	0.000586	0
bin	0.000587	0
bin	0.000588	0
bin	0.000589	0
bin	0.00059	0
bin	0.000591	1
bin	0.000592	0
bin	0.000593	0
bin	0.000594	0
bin	0.000595	0
bin	0.000596	0
bin	0.000597	0
bin	0.000598	0
bin	0.000599	0
bin	0.0006	0
bin	0.000601	0
bin	0.000602	0
bin	0.000603	0
bin	0.000604	0
bin	0.000605	0
bin	0.000606	0
bin	0.000607	0
bin	0.000608	0
bin	0.000609	0
bin	0.00061	0
bin	0.000611	0
bin	0.000612	0
bin	0.000613	0
bin	0.000614	0
bin	0.000615	0
bin	0.000616	0
bin	0.000617	0
bin	0.000618	0
bin	0.000619	0
bin	0.00062	0
bin	0.000621	0
bin	0.000622	0
bin	0.000623	398
bin	0.000624	0
bin	0.000625	0
bin	0.000626	0
bin	0.000627	0
bin	0.000628	0
bin	0.000629	0
bin	0.00063	0
bin	0.000631	0
bin	0.000632	0
statistic GPSRNetworkRandom.host[0].wlan[0].mac.dcf frameSequenceNumPackets:histogram
field count 399
field mean 1
field stddev 0
field min 1
field max 1
field sum 399
field sqrsum 399
attr recordingmode histogram
attr source frameSequenceNumPackets(frameSequenceFinished)
attr title "frame sequences: number of packets"
bin	-inf	0
bin	0	0
bin	1	399
bin	2	0
scalar GPSRNetworkRandom.host[0].wlan[0].mac.dcf packetReceivedFromPeer:count 608
attr interpolationmode none
attr recordingmode count
attr title "packets received, count"
scalar GPSRNetworkRandom.host[0].wlan[0].mac.dcf packetReceivedFromPeer:sum(packetBytes) 65648
attr interpolationmode none
attr recordingmode sum(packetBytes)
attr title "packets received, sum(packetBytes)"
scalar GPSRNetworkRandom.host[0].wlan[0].mac.dcf packetReceivedFromPeerUnicast:count 0
attr interpolationmode none
attr recordingmode count
attr source ieee80211Unicast(packetReceivedFromPeer)
attr title "packets received: unicast, count"
scalar GPSRNetworkRandom.host[0].wlan[0].mac.dcf packetReceivedFromPeerUnicast:sum(packetBytes) 0
attr interpolationmode none
attr recordingmode sum(packetBytes)
attr source ieee80211Unicast(packetReceivedFromPeer)
attr title "packets received: unicast, sum(packetBytes)"
scalar GPSRNetworkRandom.host[0].wlan[0].mac.dcf packetReceivedFromPeerMulticast:count 608
attr interpolationmode none
attr recordingmode count
attr source ieee80211Multicast(packetReceivedFromPeer)
attr title "packets received: multicast, count"
scalar GPSRNetworkRandom.host[0].wlan[0].mac.dcf packetReceivedFromPeerMulticast:sum(packetBytes) 65648
attr interpolationmode none
attr recordingmode sum(packetBytes)
attr source ieee80211Multicast(packetReceivedFromPeer)
attr title "packets received: multicast, sum(packetBytes)"
scalar GPSRNetworkRandom.host[0].wlan[0].mac.dcf packetReceivedFromPeerBroadcast:count 608
attr interpolationmode none
attr recordingmode count
attr source ieee80211Broadcast(packetReceivedFromPeer)
attr title "packets received: broadcast, count"
scalar GPSRNetworkRandom.host[0].wlan[0].mac.dcf packetReceivedFromPeerBroadcast:sum(packetBytes) 65648
attr interpolationmode none
attr recordingmode sum(packetBytes)
attr source ieee80211Broadcast(packetReceivedFromPeer)
attr title "packets received: broadcast, sum(packetBytes)"
scalar GPSRNetworkRandom.host[0].wlan[0].mac.dcf packetReceivedFromPeerWithRetry:count 0
attr interpolationmode none
attr recordingmode count
attr source ieee80211Retry(packetReceivedFromPeer)
attr title "packets received: with retry, count"
scalar GPSRNetworkRandom.host[0].wlan[0].mac.dcf packetReceivedFromPeerWithRetry:sum(packetBytes) 0
attr interpolationmode none
attr recordingmode sum(packetBytes)
attr source ieee80211Retry(packetReceivedFromPeer)
attr title "packets received: with retry, sum(packetBytes)"
scalar GPSRNetworkRandom.host[0].wlan[0].mac.dcf packetReceivedFromPeerWithoutRetry:count 608
attr interpolationmode none
attr recordingmode count
attr source ieee80211NotRetry(packetReceivedFromPeer)
attr title "packets received: without retry, count"
scalar GPSRNetworkRandom.host[0].wlan[0].mac.dcf packetReceivedFromPeerWithoutRetry:sum(packetBytes) 65648
attr interpolationmode none
attr recordingmode sum(packetBytes)
attr source ieee80211NotRetry(packetReceivedFromPeer)
attr title "packets received: without retry, sum(packetBytes)"
scalar GPSRNetworkRandom.host[0].wlan[0].mac.dcf packetSentToPeer:count 399
attr interpolationmode none
attr recordingmode count
attr title "packets sent, count"
scalar GPSRNetworkRandom.host[0].wlan[0].mac.dcf packetSentToPeer:sum(packetBytes) 43084
attr interpolationmode none
attr recordingmode sum(packetBytes)
attr title "packets sent, sum(packetBytes)"
scalar GPSRNetworkRandom.host[0].wlan[0].mac.dcf packetSentToPeerUnicast:count 0
attr interpolationmode none
attr recordingmode count
attr source ieee80211Unicast(packetSentToPeer)
attr title "packets sent: unicast, count"
scalar GPSRNetworkRandom.host[0].wlan[0].mac.dcf packetSentToPeerUnicast:sum(packetBytes) 0
attr interpolationmode none
attr recordingmode sum(packetBytes)
attr source ieee80211Unicast(packetSentToPeer)
attr title "packets sent: unicast, sum(packetBytes)"
scalar GPSRNetworkRandom.host[0].wlan[0].mac.dcf packetSentToPeerMulticast:count 399
attr interpolationmode none
attr recordingmode count
attr source ieee80211Multicast(packetSentToPeer)
attr title "packets sent: multicast, count"
scalar GPSRNetworkRandom.host[0].wlan[0].mac.dcf packetSentToPeerMulticast:sum(packetBytes) 43084
attr interpolationmode none
attr recordingmode sum(packetBytes)
attr source ieee80211Multicast(packetSentToPeer)
attr title "packets sent: multicast, sum(packetBytes)"
scalar GPSRNetworkRandom.host[0].wlan[0].mac.dcf packetSentToPeerBroadcast:count 399
attr interpolationmode none
attr recordingmode count
attr source ieee80211Broadcast(packetSentToPeer)
attr title "packets sent: broadcast , count"
scalar GPSRNetworkRandom.host[0].wlan[0].mac.dcf packetSentToPeerBroadcast:sum(packetBytes) 43084
attr interpolationmode none
attr recordingmode sum(packetBytes)
attr source ieee80211Broadcast(packetSentToPeer)
attr title "packets sent: broadcast , sum(packetBytes)"
scalar GPSRNetworkRandom.host[0].wlan[0].mac.dcf packetSentToPeerWithRetry:count 0
attr interpolationmode none
attr recordingmode count
attr source ieee80211Retry(packetSentToPeer)
attr title "packets sent: with retry, count"
scalar GPSRNetworkRandom.host[0].wlan[0].mac.dcf packetSentToPeerWithRetry:sum(packetBytes) 0
attr interpolationmode none
attr recordingmode sum(packetBytes)
attr source ieee80211Retry(packetSentToPeer)
attr title "packets sent: with retry, sum(packetBytes)"
scalar GPSRNetworkRandom.host[0].wlan[0].mac.dcf packetSentToPeerWithoutRetry:count 399
attr interpolationmode none
attr recordingmode count
attr source ieee80211NotRetry(packetSentToPeer)
attr title "packets sent: without retry, count"
scalar GPSRNetworkRandom.host[0].wlan[0].mac.dcf packetSentToPeerWithoutRetry:sum(packetBytes) 43084
attr interpolationmode none
attr recordingmode sum(packetBytes)
attr source ieee80211NotRetry(packetSentToPeer)
attr title "packets sent: without retry, sum(packetBytes)"
scalar GPSRNetworkRandom.host[0].wlan[0].mac.dcf packetDrop:count 0
attr interpolationmode none
attr recordingmode count
attr source packetDropped
attr title "packet drops, count"
scalar GPSRNetworkRandom.host[0].wlan[0].mac.dcf packetDrop:sum(packetBytes) 0
attr interpolationmode none
attr recordingmode sum(packetBytes)
attr source packetDropped
attr title "packet drops, sum(packetBytes)"
scalar GPSRNetworkRandom.host[0].wlan[0].mac.dcf packetDropNotAddressedToUs:count 0
attr interpolationmode none
attr recordingmode count
attr source packetDropReasonIsNotAddressedToUs(packetDropped)
attr title "packet drops: not addressed to us, count"
scalar GPSRNetworkRandom.host[0].wlan[0].mac.dcf packetDropNotAddressedToUs:sum(packetBytes) 0
attr interpolationmode none
attr recordingmode sum(packetBytes)
attr source packetDropReasonIsNotAddressedToUs(packetDropped)
attr title "packet drops: not addressed to us, sum(packetBytes)"
scalar GPSRNetworkRandom.host[0].wlan[0].mac.dcf packetDropQueueOverflow:count 0
attr interpolationmode none
attr recordingmode count
attr source packetDropReasonIsQueueOverflow(packetDropped)
attr title "packet drops: queue overflow, count"
scalar GPSRNetworkRandom.host[0].wlan[0].mac.dcf packetDropQueueOverflow:sum(packetBytes) 0
attr interpolationmode none
attr recordingmode sum(packetBytes)
attr source packetDropReasonIsQueueOverflow(packetDropped)
attr title "packet drops: queue overflow, sum(packetBytes)"
scalar GPSRNetworkRandom.host[0].wlan[0].mac.dcf packetDropRetryLimitReached:count 0
attr interpolationmode none
attr recordingmode count
attr source packetDropReasonIsRetryLimitReached(packetDropped)
attr title "packet drops: retry limit reached, count"
scalar GPSRNetworkRandom.host[0].wlan[0].mac.dcf packetDropRetryLimitReached:sum(packetBytes) 0
attr interpolationmode none
attr recordingmode sum(packetBytes)
attr source packetDropReasonIsRetryLimitReached(packetDropped)
attr title "packet drops: retry limit reached, sum(packetBytes)"
scalar GPSRNetworkRandom.host[0].wlan[0].mac.dcf linkBroken:count 0
attr interpolationmode none
attr recordingmode count
attr title "link breaks, count"
scalar GPSRNetworkRandom.host[0].wlan[0].mac packetReceivedFromLower:count 794
attr interpolationmode none
attr recordingmode count
attr title "packets received from lower layer, count"
scalar GPSRNetworkRandom.host[0].wlan[0].mac packetReceivedFromLower:sum(packetBytes) 85736
attr interpolationmode none
attr recordingmode sum(packetBytes)
attr title "packets received from lower layer, sum(packetBytes)"
scalar GPSRNetworkRandom.host[0].wlan[0].mac packetSentToLower:count 399
attr interpolationmode none
attr recordingmode count
attr title "packets sent to lower layer, count"
scalar GPSRNetworkRandom.host[0].wlan[0].mac packetSentToLower:sum(packetBytes) 43084
attr interpolationmode none
attr recordingmode sum(packetBytes)
attr title "packets sent to lower layer, sum(packetBytes)"
scalar GPSRNetworkRandom.host[0].wlan[0].mac packetReceivedFromUpper:count 399
attr interpolationmode none
attr recordingmode count
attr title "packets received from upper layer, count"
scalar GPSRNetworkRandom.host[0].wlan[0].mac packetReceivedFromUpper:sum(packetBytes) 31912
attr interpolationmode none
attr recordingmode sum(packetBytes)
attr title "packets received from upper layer, sum(packetBytes)"
scalar GPSRNetworkRandom.host[0].wlan[0].mac packetSentToUpper:count 608
attr interpolationmode none
attr recordingmode count
attr title "packets sent to upper layer, count"
scalar GPSRNetworkRandom.host[0].wlan[0].mac packetSentToUpper:sum(packetBytes) 48624
attr interpolationmode none
attr recordingmode sum(packetBytes)
attr title "packets sent to upper layer, sum(packetBytes)"
scalar GPSRNetworkRandom.host[0].wlan[0].mac packetDrop:count 186
attr interpolationmode none
attr recordingmode count
attr source packetDropped
attr title "packet drops, count"
scalar GPSRNetworkRandom.host[0].wlan[0].mac packetDrop:sum(packetBytes) 20088
attr interpolationmode none
attr recordingmode sum(packetBytes)
attr source packetDropped
attr title "packet drops, sum(packetBytes)"
scalar GPSRNetworkRandom.host[0].wlan[0].mac packetDropIncorrectlyReceived:count 186
attr interpolationmode none
attr recordingmode count
attr source packetDropReasonIsIncorrectlyReceived(packetDropped)
attr title "packet drops: incorrectly received, count"
scalar GPSRNetworkRandom.host[0].wlan[0].mac packetDropIncorrectlyReceived:sum(packetBytes) 20088
attr interpolationmode none
attr recordingmode sum(packetBytes)
attr source packetDropReasonIsIncorrectlyReceived(packetDropped)
attr title "packet drops: incorrectly received, sum(packetBytes)"
scalar GPSRNetworkRandom.host[0].wlan[0].mac packetDropNotAddressedToUs:count 0
attr interpolationmode none
attr recordingmode count
attr source packetDropReasonIsNotAddressedToUs(packetDropped)
attr title "packet drops: not addressed to us, count"
scalar GPSRNetworkRandom.host[0].wlan[0].mac packetDropNotAddressedToUs:sum(packetBytes) 0
attr interpolationmode none
attr recordingmode sum(packetBytes)
attr source packetDropReasonIsNotAddressedToUs(packetDropped)
attr title "packet drops: not addressed to us, sum(packetBytes)"
scalar GPSRNetworkRandom.host[0].wlan[0].mac packetDropQueueOverflow:count 0
attr interpolationmode none
attr recordingmode count
attr source packetDropReasonIsQueueOverflow(packetDropped)
attr title "packet drops: queue overflow, count"
scalar GPSRNetworkRandom.host[0].wlan[0].mac packetDropQueueOverflow:sum(packetBytes) 0
attr interpolationmode none
attr recordingmode sum(packetBytes)
attr source packetDropReasonIsQueueOverflow(packetDropped)
attr title "packet drops: queue overflow, sum(packetBytes)"
scalar GPSRNetworkRandom.host[0].wlan[0].mac packetDropRetryLimitReached:count 0
attr interpolationmode none
attr recordingmode count
attr source packetDropReasonIsRetryLimitReached(packetDropped)
attr title "packet drops: retry limit reached, count"
scalar GPSRNetworkRandom.host[0].wlan[0].mac packetDropRetryLimitReached:sum(packetBytes) 0
attr interpolationmode none
attr recordingmode sum(packetBytes)
attr source packetDropReasonIsRetryLimitReached(packetDropped)
attr title "packet drops: retry limit reached, sum(packetBytes)"
scalar GPSRNetworkRandom.host[0].wlan[0].mac packetDropDuplicateDetected:count 0
attr interpolationmode none
attr recordingmode count
attr source packetDropReasonIsDuplicateDetected(packetDropped)
attr title "packet drops: duplicate detected, count"
scalar GPSRNetworkRandom.host[0].wlan[0].mac packetDropDuplicateDetected:sum(packetBytes) 0
attr interpolationmode none
attr recordingmode sum(packetBytes)
attr source packetDropReasonIsDuplicateDetected(packetDropped)
attr title "packet drops: duplicate detected, sum(packetBytes)"
scalar GPSRNetworkRandom.host[0].wlan[0].mac packetDropOther:count 0
attr interpolationmode none
attr recordingmode count
attr source packetDropReasonIsOther(packetDropped)
attr title "packet drops: other, count"
scalar GPSRNetworkRandom.host[0].wlan[0].mac packetDropOther:sum(packetBytes) 0
attr interpolationmode none
attr recordingmode sum(packetBytes)
attr source packetDropReasonIsOther(packetDropped)
attr title "packet drops: other, sum(packetBytes)"
scalar GPSRNetworkRandom.host[0].wlan[0].mac linkBroken:count 0
attr interpolationmode none
attr recordingmode count
attr title "link breaks, count"
statistic GPSRNetworkRandom.host[0].wlan[0].radio radioChannel:histogram
field count 1
field mean 0
field stddev nan
field min 0
field max 0
field sum 0
field sqrsum 0
attr interpolationmode sample-hold
attr recordingmode histogram
attr source radioChannelChanged
attr title "Radio channel"
bin	-inf	0
bin	-0.5	0
bin	-0.48	0
bin	-0.46	0
bin	-0.44	0
bin	-0.42	0
bin	-0.4	0
bin	-0.38	0
bin	-0.36	0
bin	-0.34	0
bin	-0.32	0
bin	-0.3	0
bin	-0.28	0
bin	-0.26	0
bin	-0.24	0
bin	-0.22	0
bin	-0.2	0
bin	-0.18	0
bin	-0.16	0
bin	-0.14	0
bin	-0.12	0
bin	-0.1	0
bin	-0.08	0
bin	-0.06	0
bin	-0.04	0
bin	-0.02	0
bin	0	1
bin	0.02	0
bin	0.04	0
bin	0.06	0
bin	0.08	0
bin	0.1	0
bin	0.12	0
bin	0.14	0
bin	0.16	0
bin	0.18	0
bin	0.2	0
bin	0.22	0
bin	0.24	0
bin	0.26	0
bin	0.28	0
bin	0.3	0
bin	0.32	0
bin	0.34	0
bin	0.36	0
bin	0.38	0
bin	0.4	0
bin	0.42	0
bin	0.44	0
bin	0.46	0
bin	0.48	0
bin	0.5	0
scalar GPSRNetworkRandom.host[0].wlan[0].radio radioMode:count 801
attr interpolationmode sample-hold
attr recordingmode count
attr source radioModeChanged
attr title "Radio mode, count"
scalar GPSRNetworkRandom.host[0].wlan[0].radio receptionState:count 2485
attr interpolationmode sample-hold
attr recordingmode count
attr source receptionStateChanged
attr title "Radio reception state, count"
scalar GPSRNetworkRandom.host[0].wlan[0].radio transmissionState:count 1596
attr interpolationmode sample-hold
attr recordingmode count
attr source transmissionStateChanged
attr title "Radio transmission state, count"
statistic GPSRNetworkRandom.host[0].wlan[0].radio minSnir:histogram
field count 794
field mean 282.34295541299
field stddev 211.44585363768
field min 0.68969639222659
field max 517.16739134108
field sum 224180.30659791
field sqrsum 98750244.083554
attr recordingmode histogram
attr source minimumSnir(packetSentToUpper)
attr title "Min SNIR"
bin	-inf	0
bin	0	209
bin	10	68
bin	20	0
bin	30	0
bin	40	0
bin	50	0
bin	60	0
bin	70	0
bin	80	0
bin	90	0
bin	100	0
bin	110	0
bin	120	0
bin	130	0
bin	140	0
bin	150	0
bin	160	0
bin	170	0
bin	180	0
bin	190	0
bin	200	0
bin	210	0
bin	220	0
bin	230	0
bin	240	0
bin	250	0
bin	260	0
bin	270	0
bin	280	0
bin	290	0
bin	300	0
bin	310	0
bin	320	0
bin	330	0
bin	340	0
bin	350	283
bin	360	0
bin	370	0
bin	380	0
bin	390	0
bin	400	0
bin	410	0
bin	420	0
bin	430	0
bin	440	0
bin	450	0
bin	460	0
bin	470	0
bin	480	0
bin	490	0
bin	500	0
bin	510	234
bin	520	0
bin	530	0
bin	540	0
bin	550	0
bin	560	0
bin	570	0
bin	580	0
bin	590	0
bin	600	0
bin	610	0
bin	620	0
bin	630	0
bin	640	0
bin	650	0
statistic GPSRNetworkRandom.host[0].wlan[0].radio packetErrorRate:histogram
field count 794
field mean 0.23699800778614
field stddev 0.39455896372654
field min 0
field max 1
field sum 188.1764181822
field sqrsum 168.04911947608
attr recordingmode histogram
attr source packetErrorRate(packetSentToUpper)
attr title "Packet error rate"
bin	-inf	0
bin	0	528
bin	0.02	4
bin	0.04	7
bin	0.06	0
bin	0.08	11
bin	0.1	0
bin	0.12	13
bin	0.14	22
bin	0.16	0
bin	0.18	0
bin	0.2	0
bin	0.22	0
bin	0.24	0
bin	0.26	0
bin	0.28	6
bin	0.3	0
bin	0.32	0
bin	0.34	0
bin	0.36	0
bin	0.38	0
bin	0.4	0
bin	0.42	9
bin	0.44	6
bin	0.46	0
bin	0.48	8
bin	0.5	0
bin	0.52	0
bin	0.54	0
bin	0.56	0
bin	0.58	0
bin	0.6	0
bin	0.62	9
bin	0.64	0
bin	0.66	0
bin	0.68	0
bin	0.7	5
bin	0.72	0
bin	0.74	5
bin	0.76	6
bin	0.78	0
bin	0.8	0
bin	0.82	0
bin	0.84	0
bin	0.86	0
bin	0.88	0
bin	0.9	21
bin	0.92	7
bin	0.94	0
bin	0.96	9
bin	0.98	76
bin	1	42
bin	1.02	0
bin	1.04	0
bin	1.06	0
bin	1.08	0
bin	1.1	0
bin	1.12	0
bin	1.14	0
bin	1.16	0
bin	1.18	0
bin	1.2	0
bin	1.22	0
bin	1.24	0
bin	1.26	0
statistic GPSRNetworkRandom.host[0].wlan[0].radio bitErrorRate:histogram
field count 0
field mean -nan
field stddev nan
field min nan
field max nan
field sum 0
field sqrsum 0
attr recordingmode histogram
attr source bitErrorRate(packetSentToUpper)
attr title "Bit error rate"
bin	-inf	0
bin	0	0
bin	1	0
statistic GPSRNetworkRandom.host[0].wlan[0].radio symbolErrorRate:histogram
field count 0
field mean -nan
field stddev nan
field min nan
field max nan
field sum 0
field sqrsum 0
attr recordingmode histogram
attr source symbolErrorRate(packetSentToUpper)
attr title "Symbol error rate"
bin	-inf	0
bin	0	0
bin	1	0
scalar GPSRNetworkRandom.host[0].wlan[0] packetDropInterfaceDown:count 0
attr interpolationmode none
attr recordingmode count
attr source packetDropReasonIsInterfaceDown(packetDropped)
attr title "packet drops: interface down, count"
scalar GPSRNetworkRandom.host[0].wlan[0] packetDropInterfaceDown:sum(packetBytes) 0
attr interpolationmode none
attr recordingmode sum(packetBytes)
attr source packetDropReasonIsInterfaceDown(packetDropped)
attr title "packet drops: interface down, sum(packetBytes)"
scalar GPSRNetworkRandom.host[0].wlan[0] packetDropNoCarrier:count 0
attr interpolationmode none
attr recordingmode count
attr source packetDropReasonIsNoCarrier(packetDropped)
attr title "packet drops: no carrier, count"
scalar GPSRNetworkRandom.host[0].wlan[0] packetDropNoCarrier:sum(packetBytes) 0
attr interpolationmode none
attr recordingmode sum(packetBytes)
attr source packetDropReasonIsNoCarrier(packetDropped)
attr title "packet drops: no carrier, sum(packetBytes)"
scalar GPSRNetworkRandom.host[0].ipv6.neighbourDiscovery startDad:count 1
attr recordingmode count
attr title "DAD started, count"
scalar GPSRNetworkRandom.host[0].udp packetReceived:count 0
attr interpolationmode none
attr recordingmode count
attr source packetReceived
attr title "packets received, count"
scalar GPSRNetworkRandom.host[0].udp packetReceived:sum(packetBytes) 0
attr interpolationmode none
attr recordingmode sum(packetBytes)
attr source packetReceived
attr title "packets received, sum(packetBytes)"
scalar GPSRNetworkRandom.host[0].udp packetSent:count 0
attr interpolationmode none
attr recordingmode count
attr source packetSent
attr title "packets sent, count"
scalar GPSRNetworkRandom.host[0].udp packetSent:sum(packetBytes) 0
attr interpolationmode none
attr recordingmode sum(packetBytes)
attr source packetSent
attr title "packets sent, sum(packetBytes)"
scalar GPSRNetworkRandom.host[0].udp passedUpPk:count 0
attr interpolationmode none
attr recordingmode count
attr source packetSentToUpper
attr title "packets passed up, count"
scalar GPSRNetworkRandom.host[0].udp droppedPkWrongPort:count 0
attr interpolationmode none
attr recordingmode count
attr source packetDropReasonIsNoPortFound(packetDropped)
attr title "packets dropped (wrong port), count"
scalar GPSRNetworkRandom.host[0].udp droppedPkBadChecksum:count 0
attr interpolationmode none
attr recordingmode count
attr source packetDropReasonIsIncorrectlyReceived(packetDropped)
attr title "packets dropped (checksum error), count"
scalar GPSRNetworkRandom.host[0].app[0] "Pings sent" 17
scalar GPSRNetworkRandom.host[0].app[0] "ping loss rate (%)" 100
scalar GPSRNetworkRandom.host[0].app[0] "ping out-of-order rate (%)" 0
scalar GPSRNetworkRandom.host[0].app[0] pingRxSeq:count 0
attr interpolationmode none
attr recordingmode count
attr title "ping rx seq, count"
scalar GPSRNetworkRandom.host[0].app[0] pingTxSeq:count 17
attr interpolationmode none
attr recordingmode count
attr title "ping tx seq, count"
scalar GPSRNetworkRandom.host[0].app[0] numOutOfOrderArrivals:last nan
attr interpolationmode none
attr recordingmode last
attr title "ping out-of-order arrivals, last"
scalar GPSRNetworkRandom.host[0].app[0] numLost:last nan
attr interpolationmode none
attr recordingmode last
attr title "pings lost, last"
statistic GPSRNetworkRandom.host[0].app[0] rtt:histogram
field count 0
field mean -nan
field stddev nan
field min nan
field max nan
field sum 0
field sqrsum 0
attr interpolationmode none
attr recordingmode histogram
attr title "ping round-trip time"
attr unit s
bin	-inf	0
bin	0	0
bin	1	0
scalar GPSRNetworkRandom.host[1].lo[0].lo rcvdPkFromHl:count 0
attr interpolationmode none
attr recordingmode count
attr source packetReceivedFromUpper
attr title "packets received from higher layer, count"
scalar GPSRNetworkRandom.host[1].lo[0].lo rcvdPkFromHl:sum(packetBytes) 0
attr interpolationmode none
attr recordingmode sum(packetBytes)
attr source packetReceivedFromUpper
attr title "packets received from higher layer, sum(packetBytes)"
scalar GPSRNetworkRandom.host[1].lo[0].lo passedUpPk:count 0
attr interpolationmode none
attr recordingmode count
attr source packetSentToUpper
attr title "packets passed to higher layer, count"
scalar GPSRNetworkRandom.host[1].lo[0].lo passedUpPk:sum(packetBytes) 0
attr interpolationmode none
attr recordingmode sum(packetBytes)
attr source packetSentToUpper
attr title "packets passed to higher layer, sum(packetBytes)"
scalar GPSRNetworkRandom.host[1].lo[0] packetDropInterfaceDown:count 0
attr interpolationmode none
attr recordingmode count
attr source packetDropReasonIsInterfaceDown(packetDropped)
attr title "packet drops: interface down, count"
scalar GPSRNetworkRandom.host[1].lo[0] packetDropInterfaceDown:sum(packetBytes) 0
attr interpolationmode none
attr recordingmode sum(packetBytes)
attr source packetDropReasonIsInterfaceDown(packetDropped)
attr title "packet drops: interface down, sum(packetBytes)"
scalar GPSRNetworkRandom.host[1].lo[0] packetDropNoCarrier:count 0
attr interpolationmode none
attr recordingmode count
attr source packetDropReasonIsNoCarrier(packetDropped)
attr title "packet drops: no carrier, count"
scalar GPSRNetworkRandom.host[1].lo[0] packetDropNoCarrier:sum(packetBytes) 0
attr interpolationmode none
attr recordingmode sum(packetBytes)
attr source packetDropReasonIsNoCarrier(packetDropped)
attr title "packet drops: no carrier, sum(packetBytes)"
scalar GPSRNetworkRandom.host[1].wlan[0].mac.dcf.channelAccess.pendingQueue queueLength:last 0
attr autoWarmupFilter false
attr interpolationmode sample-hold
attr recordingmode last
attr source "warmup(atomic(constant0(packetPushEnded) + count(packetPushStarted) - count(packetPulled) - count(packetRemoved) - count(packetDropped)))"
attr title "queue length, last"
attr unit pk
scalar GPSRNetworkRandom.host[1].wlan[0].mac.dcf.channelAccess.pendingQueue queueLength:max 1
attr autoWarmupFilter false
attr interpolationmode sample-hold
attr recordingmode max
attr source "warmup(atomic(constant0(packetPushEnded) + count(packetPushStarted) - count(packetPulled) - count(packetRemoved) - count(packetDropped)))"
attr title "queue length, max"
attr unit pk
scalar GPSRNetworkRandom.host[1].wlan[0].mac.dcf.channelAccess.pendingQueue queueLength:timeavg 0.00032539855935
attr autoWarmupFilter false
attr interpolationmode sample-hold
attr recordingmode timeavg
attr source "warmup(atomic(constant0(packetPushEnded) + count(packetPushStarted) - count(packetPulled) - count(packetRemoved) - count(packetDropped)))"
attr title "queue length, timeavg"
attr unit pk
scalar GPSRNetworkRandom.host[1].wlan[0].mac.dcf.channelAccess.pendingQueue queueBitLength:last 0
attr autoWarmupFilter false
attr interpolationmode sample-hold
attr recordingmode last
attr source "warmup(atomic(constant0(packetPushEnded) + sum(packetLength(packetPushStarted)) - sum(packetLength(packetPulled)) - sum(packetLength(packetRemoved)) - sum(packetLength(packetDropped))))"
attr title "queue bit length, last"
attr unit b
scalar GPSRNetworkRandom.host[1].wlan[0].mac.dcf.channelAccess.pendingQueue queueBitLength:max 864
attr autoWarmupFilter false
attr interpolationmode sample-hold
attr recordingmode max
attr source "warmup(atomic(constant0(packetPushEnded) + sum(packetLength(packetPushStarted)) - sum(packetLength(packetPulled)) - sum(packetLength(packetRemoved)) - sum(packetLength(packetDropped))))"
attr title "queue bit length, max"
attr unit b
scalar GPSRNetworkRandom.host[1].wlan[0].mac.dcf.channelAccess.pendingQueue queueBitLength:timeavg 0.2811443552784
attr autoWarmupFilter false
attr interpolationmode sample-hold
attr recordingmode timeavg
attr source "warmup(atomic(constant0(packetPushEnded) + sum(packetLength(packetPushStarted)) - sum(packetLength(packetPulled)) - sum(packetLength(packetRemoved)) - sum(packetLength(packetDropped))))"
attr title "queue bit length, timeavg"
attr unit b
statistic GPSRNetworkRandom.host[1].wlan[0].mac.dcf.channelAccess.pendingQueue queueingTime:histogram
field count 408
field mean 1.5950909772059e-05
field stddev 8.7446595339217e-05
field min 0
field max 0.000775189799
field sum 0.006507971187
field sqrsum 3.2160992250263e-06
attr interpolationmode none
attr recordingmode histogram
attr source queueingTime(packetPulled)
attr title "queueing times"
attr unit s
bin	-inf	0
bin	0	387
bin	1.6e-05	2
bin	3.2e-05	1
bin	4.8e-05	0
bin	6.4e-05	0
bin	8e-05	0
bin	9.6e-05	2
bin	0.000112	2
bin	0.000128	0
bin	0.000144	1
bin	0.00016	2
bin	0.000176	0
bin	0.000192	0
bin	0.000208	0
bin	0.000224	1
bin	0.00024	1
bin	0.000256	0
bin	0.000272	0
bin	0.000288	0
bin	0.000304	0
bin	0.00032	0
bin	0.000336	0
bin	0.000352	0
bin	0.000368	2
bin	0.000384	0
bin	0.0004	0
bin	0.000416	0
bin	0.000432	0
bin	0.000448	0
bin	0.000464	1
bin	0.00048	0
bin	0.000496	1
bin	0.000512	0
bin	0.000528	0
bin	0.000544	1
bin	0.00056	0
bin	0.000576	1
bin	0.000592	0
bin	0.000608	1
bin	0.000624	0
bin	0.00064	0
bin	0.000656	0
bin	0.000672	0
bin	0.000688	0
bin	0.000704	0
bin	0.00072	0
bin	0.000736	0
bin	0.000752	1
bin	0.000768	1
bin	0.000784	0
scalar GPSRNetworkRandom.host[1].wlan[0].mac.dcf.channelAccess.pendingQueue outgoingPackets:count 408
attr recordingmode count
attr source packetPulled
attr title "outgoing packets, count"
attr unit pk
scalar GPSRNetworkRandom.host[1].wlan[0].mac.dcf.channelAccess.pendingQueue outgoingPacketLengths:sum 352448
attr interpolationmode none
attr recordingmode sum
attr source packetLength(packetPulled)
attr title "outgoing packet lengths, sum"
attr unit b
statistic GPSRNetworkRandom.host[1].wlan[0].mac.dcf.channelAccess.pendingQueue outgoingPacketLengths:histogram
field count 408
field mean 863.8431372549
field stddev 3.1684721375263
field min 800
field max 864
field sum 352448
field sqrsum 304463872
attr interpolationmode none
attr recordingmode histogram
attr source packetLength(packetPulled)
attr title "outgoing packet lengths"
attr unit b
bin	-inf	0
bin	784	0
bin	786	0
bin	788	0
bin	790	0
bin	792	0
bin	794	0
bin	796	0
bin	798	0
bin	800	1
bin	802	0
bin	804	0
bin	806	0
bin	808	0
bin	810	0
bin	812	0
bin	814	0
bin	816	0
bin	818	0
bin	820	0
bin	822	0
bin	824	0
bin	826	0
bin	828	0
bin	830	0
bin	832	0
bin	834	0
bin	836	0
bin	838	0
bin	840	0
bin	842	0
bin	844	0
bin	846	0
bin	848	0
bin	850	0
bin	852	0
bin	854	0
bin	856	0
bin	858	0
bin	860	0
bin	862	0
bin	864	407
bin	866	0
bin	868	0
bin	870	0
bin	872	0
bin	874	0
bin	876	0
bin	878	0
bin	880	0
statistic GPSRNetworkRandom.host[1].wlan[0].mac.dcf.channelAccess.pendingQueue flowQueueingTime:histogram
field count 0
field mean -nan
field stddev nan
field min nan
field max nan
field sum 0
field sqrsum 0
attr interpolationmode none
attr recordingmode histogram
attr source queueingTime(demuxFlow(packetPulled))
attr title "flow queueing times"
attr unit s
bin	-inf	0
bin	0	0
bin	1	0
scalar GPSRNetworkRandom.host[1].wlan[0].mac.dcf.channelAccess.pendingQueue incomingPackets:count 408
attr recordingmode count
attr source packetPushStarted
attr title "incoming packets, count"
attr unit pk
scalar GPSRNetworkRandom.host[1].wlan[0].mac.dcf.channelAccess.pendingQueue incomingPacketLengths:sum 352448
attr interpolationmode none
attr recordingmode sum
attr source packetLength(packetPushStarted)
attr title "incoming packet lengths, sum"
attr unit b
statistic GPSRNetworkRandom.host[1].wlan[0].mac.dcf.channelAccess.pendingQueue incomingPacketLengths:histogram
field count 408
field mean 863.8431372549
field stddev 3.1684721375263
field min 800
field max 864
field sum 352448
field sqrsum 304463872
attr interpolationmode none
attr recordingmode histogram
attr source packetLength(packetPushStarted)
attr title "incoming packet lengths"
attr unit b
bin	-inf	0
bin	784	0
bin	786	0
bin	788	0
bin	790	0
bin	792	0
bin	794	0
bin	796	0
bin	798	0
bin	800	1
bin	802	0
bin	804	0
bin	806	0
bin	808	0
bin	810	0
bin	812	0
bin	814	0
bin	816	0
bin	818	0
bin	820	0
bin	822	0
bin	824	0
bin	826	0
bin	828	0
bin	830	0
bin	832	0
bin	834	0
bin	836	0
bin	838	0
bin	840	0
bin	842	0
bin	844	0
bin	846	0
bin	848	0
bin	850	0
bin	852	0
bin	854	0
bin	856	0
bin	858	0
bin	860	0
bin	862	0
bin	864	407
bin	866	0
bin	868	0
bin	870	0
bin	872	0
bin	874	0
bin	876	0
bin	878	0
bin	880	0
scalar GPSRNetworkRandom.host[1].wlan[0].mac.dcf.channelAccess.pendingQueue droppedPacketsQueueOverflow:count 0
attr interpolationmode none
attr recordingmode count
attr source packetDropReasonIsQueueOverflow(packetDropped)
attr title "dropped packets: queue overflow, count"
attr unit pk
scalar GPSRNetworkRandom.host[1].wlan[0].mac.dcf.channelAccess.pendingQueue droppedPacketLengthsQueueOverflow:sum 0
attr interpolationmode none
attr recordingmode sum
attr source packetLength(packetDropReasonIsQueueOverflow(packetDropped))
attr title "dropped packet lengths: queue overflow, sum"
attr unit b
statistic GPSRNetworkRandom.host[1].wlan[0].mac.dcf.channelAccess.inProgressFrames queueingTime:histogram
field count 408
field mean 0.00062392156862746
field stddev 1.5842360654685e-06
field min 0.000592
field max 0.000624
field sum 0.25456
field sqrsum 0.000158826496
attr interpolationmode none
attr recordingmode histogram
attr source queueingTime(packetDequeued)
attr title "queueing times"
bin	-inf	0
bin	0.000583	0
bin	0.000584	0
bin	0.000585	0
bin	0.000586	0
bin	0.000587	0
bin	0.000588	0
bin	0.000589	0
bin	0.00059	0
bin	0.000591	1
bin	0.000592	0
bin	0.000593	0
bin	0.000594	0
bin	0.000595	0
bin	0.000596	0
bin	0.000597	0
bin	0.000598	0
bin	0.000599	0
bin	0.0006	0
bin	0.000601	0
bin	0.000602	0
bin	0.000603	0
bin	0.000604	0
bin	0.000605	0
bin	0.000606	0
bin	0.000607	0
bin	0.000608	0
bin	0.000609	0
bin	0.00061	0
bin	0.000611	0
bin	0.000612	0
bin	0.000613	0
bin	0.000614	0
bin	0.000615	0
bin	0.000616	0
bin	0.000617	0
bin	0.000618	0
bin	0.000619	0
bin	0.00062	0
bin	0.000621	0
bin	0.000622	0
bin	0.000623	407
bin	0.000624	0
bin	0.000625	0
bin	0.000626	0
bin	0.000627	0
bin	0.000628	0
bin	0.000629	0
bin	0.00063	0
bin	0.000631	0
bin	0.000632	0
scalar GPSRNetworkRandom.host[1].wlan[0].mac.dcf.channelAccess.inProgressFrames queueLength:max 1
attr autoWarmupFilter false
attr interpolationmode sample-hold
attr recordingmode max
attr source "warmup(count(packetEnqueued) - count(packetDequeued))"
attr title "queue length, max"
scalar GPSRNetworkRandom.host[1].wlan[0].mac.dcf.channelAccess.inProgressFrames queueLength:timeavg 0.012728
attr autoWarmupFilter false
attr interpolationmode sample-hold
attr recordingmode timeavg
attr source "warmup(count(packetEnqueued) - count(packetDequeued))"
attr title "queue length, timeavg"
scalar GPSRNetworkRandom.host[1].wlan[0].mac.dcf.channelAccess.contention channelAccessGranted:count 408
attr recordingmode count
attr title "channel access granted, count"
scalar GPSRNetworkRandom.host[1].wlan[0].mac.dcf.channelAccess.contention stateChanged:count 8270
attr enum IDLE,DEFER,IFS_AND_BACKOFF
attr interpolationmode none
attr recordingmode count
attr title "contention state changed, count"
attr type enum
scalar GPSRNetworkRandom.host[1].wlan[0].mac.dcf.channelAccess channelOwnershipChanged:count 816
attr interpolationmode sample-hold
attr recordingmode count
attr title "channel ownership, count"
scalar GPSRNetworkRandom.host[1].wlan[0].mac.dcf.originatorMacDataService packetAggregated:count 0
attr recordingmode count
attr title "packets aggregated, count"
scalar GPSRNetworkRandom.host[1].wlan[0].mac.dcf.originatorMacDataService packetFragmented:count 0
attr recordingmode count
attr title "packets fragmented, count"
scalar GPSRNetworkRandom.host[1].wlan[0].mac.dcf.recipientMacDataService packetDeaggregated:count 0
attr recordingmode count
attr title "packets deaggregated, count"
scalar GPSRNetworkRandom.host[1].wlan[0].mac.dcf.recipientMacDataService packetDefragmented:count 1137
attr recordingmode count
attr title "packets defragmented, count"
scalar GPSRNetworkRandom.host[1].wlan[0].mac.dcf.recipientMacDataService packetDropDuplicateDetected:count 0
attr interpolationmode none
attr recordingmode count
attr source packetDropReasonIsDuplicateDetected(packetDropped)
attr title "packet drops: duplicate detected, count"
scalar GPSRNetworkRandom.host[1].wlan[0].mac.dcf.recipientMacDataService packetDropDuplicateDetected:sum(packetBytes) 0
attr interpolationmode none
attr recordingmode sum(packetBytes)
attr source packetDropReasonIsDuplicateDetected(packetDropped)
attr title "packet drops: duplicate detected, sum(packetBytes)"
scalar GPSRNetworkRandom.host[1].wlan[0].mac.dcf.recoveryProcedure retryLimitReached:count 0
attr recordingmode count
attr title "retry limit reached, count"
scalar GPSRNetworkRandom.host[1].wlan[0].mac.dcf frameSequenceFinished:count 408
attr recordingmode count
attr title "finished frame sequences, count"
statistic GPSRNetworkRandom.host[1].wlan[0].mac.dcf frameSequenceDuration:histogram
field count 408
field mean 0.00062392156862746
field stddev 1.5842360654685e-06
field min 0.000592
field max 0.000624
field sum 0.25456
field sqrsum 0.000158826496
attr recordingmode histogram
attr source frameSequenceDuration(frameSequenceFinished)
attr title "frame sequence durations"
bin	-inf	0
bin	0.000583	0
bin	0.000584	0
bin	0.000585	0
bin	0.000586	0
bin	0.000587	0
bin	0.000588	0
bin	0.000589	0
bin	0.00059	0
bin	0.000591	1
bin	0.000592	0
bin	0.000593	0
bin	0.000594	0
bin	0.000595	0
bin	0.000596	0
bin	0.000597	0
bin	0.000598	0
bin	0.000599	0
bin	0.0006	0
bin	0.000601	0
bin	0.000602	0
bin	0.000603	0
bin	0.000604	0
bin	0.000605	0
bin	0.000606	0
bin	0.000607	0
bin	0.000608	0
bin	0.000609	0
bin	0.00061	0
bin	0.000611	0
bin	0.000612	0
bin	0.000613	0
bin	0.000614	0
bin	0.000615	0
bin	0.000616	0
bin	0.000617	0
bin	0.000618	0
bin	0.000619	0
bin	0.00062	0
bin	0.000621	0
bin	0.000622	0
bin	0.000623	407
bin	0.000624	0
bin	0.000625	0
bin	0.000626	0
bin	0.000627	0
bin	0.000628	0
bin	0.000629	0
bin	0.00063	0
bin	0.000631	0
bin	0.000632	0
statistic GPSRNetworkRandom.host[1].wlan[0].mac.dcf frameSequenceNumPackets:histogram
field count 408
field mean 1
field stddev 0
field min 1
field max 1
field sum 408
field sqrsum 408
attr recordingmode histogram
attr source frameSequenceNumPackets(frameSequenceFinished)
attr title "frame sequences: number of packets"
bin	-inf	0
bin	0	0
bin	1	408
bin	2	0
scalar GPSRNetworkRandom.host[1].wlan[0].mac.dcf packetReceivedFromPeer:count 1137
attr interpolationmode none
attr recordingmode count
attr title "packets received, count"
scalar GPSRNetworkRandom.host[1].wlan[0].mac.dcf packetReceivedFromPeer:sum(packetBytes) 122780
attr interpolationmode none
attr recordingmode sum(packetBytes)
attr title "packets received, sum(packetBytes)"
scalar GPSRNetworkRandom.host[1].wlan[0].mac.dcf packetReceivedFromPeerUnicast:count 0
attr interpolationmode none
attr recordingmode count
attr source ieee80211Unicast(packetReceivedFromPeer)
attr title "packets received: unicast, count"
scalar GPSRNetworkRandom.host[1].wlan[0].mac.dcf packetReceivedFromPeerUnicast:sum(packetBytes) 0
attr interpolationmode none
attr recordingmode sum(packetBytes)
attr source ieee80211Unicast(packetReceivedFromPeer)
attr title "packets received: unicast, sum(packetBytes)"
scalar GPSRNetworkRandom.host[1].wlan[0].mac.dcf packetReceivedFromPeerMulticast:count 1137
attr interpolationmode none
attr recordingmode count
attr source ieee80211Multicast(packetReceivedFromPeer)
attr title "packets received: multicast, count"
scalar GPSRNetworkRandom.host[1].wlan[0].mac.dcf packetReceivedFromPeerMulticast:sum(packetBytes) 122780
attr interpolationmode none
attr recordingmode sum(packetBytes)
attr source ieee80211Multicast(packetReceivedFromPeer)
attr title "packets received: multicast, sum(packetBytes)"
scalar GPSRNetworkRandom.host[1].wlan[0].mac.dcf packetReceivedFromPeerBroadcast:count 1137
attr interpolationmode none
attr recordingmode count
attr source ieee80211Broadcast(packetReceivedFromPeer)
attr title "packets received: broadcast, count"
scalar GPSRNetworkRandom.host[1].wlan[0].mac.dcf packetReceivedFromPeerBroadcast:sum(packetBytes) 122780
attr interpolationmode none
attr recordingmode sum(packetBytes)
attr source ieee80211Broadcast(packetReceivedFromPeer)
attr title "packets received: broadcast, sum(packetBytes)"
scalar GPSRNetworkRandom.host[1].wlan[0].mac.dcf packetReceivedFromPeerWithRetry:count 0
attr interpolationmode none
attr recordingmode count
attr source ieee80211Retry(packetReceivedFromPeer)
attr title "packets received: with retry, count"
scalar GPSRNetworkRandom.host[1].wlan[0].mac.dcf packetReceivedFromPeerWithRetry:sum(packetBytes) 0
attr interpolationmode none
attr recordingmode sum(packetBytes)
attr source ieee80211Retry(packetReceivedFromPeer)
attr title "packets received: with retry, sum(packetBytes)"
scalar GPSRNetworkRandom.host[1].wlan[0].mac.dcf packetReceivedFromPeerWithoutRetry:count 1137
attr interpolationmode none
attr recordingmode count
attr source ieee80211NotRetry(packetReceivedFromPeer)
attr title "packets received: without retry, count"
scalar GPSRNetworkRandom.host[1].wlan[0].mac.dcf packetReceivedFromPeerWithoutRetry:sum(packetBytes) 122780
attr interpolationmode none
attr recordingmode sum(packetBytes)
attr source ieee80211NotRetry(packetReceivedFromPeer)
attr title "packets received: without retry, sum(packetBytes)"
scalar GPSRNetworkRandom.host[1].wlan[0].mac.dcf packetSentToPeer:count 408
attr interpolationmode none
attr recordingmode count
attr title "packets sent, count"
scalar GPSRNetworkRandom.host[1].wlan[0].mac.dcf packetSentToPeer:sum(packetBytes) 44056
attr interpolationmode none
attr recordingmode sum(packetBytes)
attr title "packets sent, sum(packetBytes)"
scalar GPSRNetworkRandom.host[1].wlan[0].mac.dcf packetSentToPeerUnicast:count 0
attr interpolationmode none
attr recordingmode count
attr source ieee80211Unicast(packetSentToPeer)
attr title "packets sent: unicast, count"
scalar GPSRNetworkRandom.host[1].wlan[0].mac.dcf packetSentToPeerUnicast:sum(packetBytes) 0
attr interpolationmode none
attr recordingmode sum(packetBytes)
attr source ieee80211Unicast(packetSentToPeer)
attr title "packets sent: unicast, sum(packetBytes)"
scalar GPSRNetworkRandom.host[1].wlan[0].mac.dcf packetSentToPeerMulticast:count 408
attr interpolationmode none
attr recordingmode count
attr source ieee80211Multicast(packetSentToPeer)
attr title "packets sent: multicast, count"
scalar GPSRNetworkRandom.host[1].wlan[0].mac.dcf packetSentToPeerMulticast:sum(packetBytes) 44056
attr interpolationmode none
attr recordingmode sum(packetBytes)
attr source ieee80211Multicast(packetSentToPeer)
attr title "packets sent: multicast, sum(packetBytes)"
scalar GPSRNetworkRandom.host[1].wlan[0].mac.dcf packetSentToPeerBroadcast:count 408
attr interpolationmode none
attr recordingmode count
attr source ieee80211Broadcast(packetSentToPeer)
attr title "packets sent: broadcast , count"
scalar GPSRNetworkRandom.host[1].wlan[0].mac.dcf packetSentToPeerBroadcast:sum(packetBytes) 44056
attr interpolationmode none
attr recordingmode sum(packetBytes)
attr source ieee80211Broadcast(packetSentToPeer)
attr title "packets sent: broadcast , sum(packetBytes)"
scalar GPSRNetworkRandom.host[1].wlan[0].mac.dcf packetSentToPeerWithRetry:count 0
attr interpolationmode none
attr recordingmode count
attr source ieee80211Retry(packetSentToPeer)
attr title "packets sent: with retry, count"
scalar GPSRNetworkRandom.host[1].wlan[0].mac.dcf packetSentToPeerWithRetry:sum(packetBytes) 0
attr interpolationmode none
attr recordingmode sum(packetBytes)
attr source ieee80211Retry(packetSentToPeer)
attr title "packets sent: with retry, sum(packetBytes)"
scalar GPSRNetworkRandom.host[1].wlan[0].mac.dcf packetSentToPeerWithoutRetry:count 408
attr interpolationmode none
attr recordingmode count
attr source ieee80211NotRetry(packetSentToPeer)
attr title "packets sent: without retry, count"
scalar GPSRNetworkRandom.host[1].wlan[0].mac.dcf packetSentToPeerWithoutRetry:sum(packetBytes) 44056
attr interpolationmode none
attr recordingmode sum(packetBytes)
attr source ieee80211NotRetry(packetSentToPeer)
attr title "packets sent: without retry, sum(packetBytes)"
scalar GPSRNetworkRandom.host[1].wlan[0].mac.dcf packetDrop:count 0
attr interpolationmode none
attr recordingmode count
attr source packetDropped
attr title "packet drops, count"
scalar GPSRNetworkRandom.host[1].wlan[0].mac.dcf packetDrop:sum(packetBytes) 0
attr interpolationmode none
attr recordingmode sum(packetBytes)
attr source packetDropped
attr title "packet drops, sum(packetBytes)"
scalar GPSRNetworkRandom.host[1].wlan[0].mac.dcf packetDropNotAddressedToUs:count 0
attr interpolationmode none
attr recordingmode count
attr source packetDropReasonIsNotAddressedToUs(packetDropped)
attr title "packet drops: not addressed to us, count"
scalar GPSRNetworkRandom.host[1].wlan[0].mac.dcf packetDropNotAddressedToUs:sum(packetBytes) 0
attr interpolationmode none
attr recordingmode sum(packetBytes)
attr source packetDropReasonIsNotAddressedToUs(packetDropped)
attr title "packet drops: not addressed to us, sum(packetBytes)"
scalar GPSRNetworkRandom.host[1].wlan[0].mac.dcf packetDropQueueOverflow:count 0
attr interpolationmode none
attr recordingmode count
attr source packetDropReasonIsQueueOverflow(packetDropped)
attr title "packet drops: queue overflow, count"
scalar GPSRNetworkRandom.host[1].wlan[0].mac.dcf packetDropQueueOverflow:sum(packetBytes) 0
attr interpolationmode none
attr recordingmode sum(packetBytes)
attr source packetDropReasonIsQueueOverflow(packetDropped)
attr title "packet drops: queue overflow, sum(packetBytes)"
scalar GPSRNetworkRandom.host[1].wlan[0].mac.dcf packetDropRetryLimitReached:count 0
attr interpolationmode none
attr recordingmode count
attr source packetDropReasonIsRetryLimitReached(packetDropped)
attr title "packet drops: retry limit reached, count"
scalar GPSRNetworkRandom.host[1].wlan[0].mac.dcf packetDropRetryLimitReached:sum(packetBytes) 0
attr interpolationmode none
attr recordingmode sum(packetBytes)
attr source packetDropReasonIsRetryLimitReached(packetDropped)
attr title "packet drops: retry limit reached, sum(packetBytes)"
scalar GPSRNetworkRandom.host[1].wlan[0].mac.dcf linkBroken:count 0
attr interpolationmode none
attr recordingmode count
attr title "link breaks, count"
scalar GPSRNetworkRandom.host[1].wlan[0].mac packetReceivedFromLower:count 1213
attr interpolationmode none
attr recordingmode count
attr title "packets received from lower layer, count"
scalar GPSRNetworkRandom.host[1].wlan[0].mac packetReceivedFromLower:sum(packetBytes) 130980
attr interpolationmode none
attr recordingmode sum(packetBytes)
attr title "packets received from lower layer, sum(packetBytes)"
scalar GPSRNetworkRandom.host[1].wlan[0].mac packetSentToLower:count 408
attr interpolationmode none
attr recordingmode count
attr title "packets sent to lower layer, count"
scalar GPSRNetworkRandom.host[1].wlan[0].mac packetSentToLower:sum(packetBytes) 44056
attr interpolationmode none
attr recordingmode sum(packetBytes)
attr title "packets sent to lower layer, sum(packetBytes)"
scalar GPSRNetworkRandom.host[1].wlan[0].mac packetReceivedFromUpper:count 408
attr interpolationmode none
attr recordingmode count
attr title "packets received from upper layer, count"
scalar GPSRNetworkRandom.host[1].wlan[0].mac packetReceivedFromUpper:sum(packetBytes) 32632
attr interpolationmode none
attr recordingmode sum(packetBytes)
attr title "packets received from upper layer, sum(packetBytes)"
scalar GPSRNetworkRandom.host[1].wlan[0].mac packetSentToUpper:count 1137
attr interpolationmode none
attr recordingmode count
attr title "packets sent to upper layer, count"
scalar GPSRNetworkRandom.host[1].wlan[0].mac packetSentToUpper:sum(packetBytes) 90944
attr interpolationmode none
attr recordingmode sum(packetBytes)
attr title "packets sent to upper layer, sum(packetBytes)"
scalar GPSRNetworkRandom.host[1].wlan[0].mac packetDrop:count 76
attr interpolationmode none
attr recordingmode count
attr source packetDropped
attr title "packet drops, count"
scalar GPSRNetworkRandom.host[1].wlan[0].mac packetDrop:sum(packetBytes) 8200
attr interpolationmode none
attr recordingmode sum(packetBytes)
attr source packetDropped
attr title "packet drops, sum(packetBytes)"
scalar GPSRNetworkRandom.host[1].wlan[0].mac packetDropIncorrectlyReceived:count 76
attr interpolationmode none
attr recordingmode count
attr source packetDropReasonIsIncorrectlyReceived(packetDropped)
attr title "packet drops: incorrectly received, count"
scalar GPSRNetworkRandom.host[1].wlan[0].mac packetDropIncorrectlyReceived:sum(packetBytes) 8200
attr interpolationmode none
attr recordingmode sum(packetBytes)
attr source packetDropReasonIsIncorrectlyReceived(packetDropped)
attr title "packet drops: incorrectly received, sum(packetBytes)"
scalar GPSRNetworkRandom.host[1].wlan[0].mac packetDropNotAddressedToUs:count 0
attr interpolationmode none
attr recordingmode count
attr source packetDropReasonIsNotAddressedToUs(packetDropped)
attr title "packet drops: not addressed to us, count"
scalar GPSRNetworkRandom.host[1].wlan[0].mac packetDropNotAddressedToUs:sum(packetBytes) 0
attr interpolationmode none
attr recordingmode sum(packetBytes)
attr source packetDropReasonIsNotAddressedToUs(packetDropped)
attr title "packet drops: not addressed to us, sum(packetBytes)"
scalar GPSRNetworkRandom.host[1].wlan[0].mac packetDropQueueOverflow:count 0
attr interpolationmode none
attr recordingmode count
attr source packetDropReasonIsQueueOverflow(packetDropped)
attr title "packet drops: queue overflow, count"
scalar GPSRNetworkRandom.host[1].wlan[0].mac packetDropQueueOverflow:sum(packetBytes) 0
attr interpolationmode none
attr recordingmode sum(packetBytes)
attr source packetDropReasonIsQueueOverflow(packetDropped)
attr title "packet drops: queue overflow, sum(packetBytes)"
scalar GPSRNetworkRandom.host[1].wlan[0].mac packetDropRetryLimitReached:count 0
attr interpolationmode none
attr recordingmode count
attr source packetDropReasonIsRetryLimitReached(packetDropped)
attr title "packet drops: retry limit reached, count"
scalar GPSRNetworkRandom.host[1].wlan[0].mac packetDropRetryLimitReached:sum(packetBytes) 0
attr interpolationmode none
attr recordingmode sum(packetBytes)
attr source packetDropReasonIsRetryLimitReached(packetDropped)
attr title "packet drops: retry limit reached, sum(packetBytes)"
scalar GPSRNetworkRandom.host[1].wlan[0].mac packetDropDuplicateDetected:count 0
attr interpolationmode none
attr recordingmode count
attr source packetDropReasonIsDuplicateDetected(packetDropped)
attr title "packet drops: duplicate detected, count"
scalar GPSRNetworkRandom.host[1].wlan[0].mac packetDropDuplicateDetected:sum(packetBytes) 0
attr interpolationmode none
attr recordingmode sum(packetBytes)
attr source packetDropReasonIsDuplicateDetected(packetDropped)
attr title "packet drops: duplicate detected, sum(packetBytes)"
scalar GPSRNetworkRandom.host[1].wlan[0].mac packetDropOther:count 0
attr interpolationmode none
attr recordingmode count
attr source packetDropReasonIsOther(packetDropped)
attr title "packet drops: other, count"
scalar GPSRNetworkRandom.host[1].wlan[0].mac packetDropOther:sum(packetBytes) 0
attr interpolationmode none
attr recordingmode sum(packetBytes)
attr source packetDropReasonIsOther(packetDropped)
attr title "packet drops: other, sum(packetBytes)"
scalar GPSRNetworkRandom.host[1].wlan[0].mac linkBroken:count 0
attr interpolationmode none
attr recordingmode count
attr title "link breaks, count"
statistic GPSRNetworkRandom.host[1].wlan[0].radio radioChannel:histogram
field count 1
field mean 0
field stddev nan
field min 0
field max 0
field sum 0
field sqrsum 0
attr interpolationmode sample-hold
attr recordingmode histogram
attr source radioChannelChanged
attr title "Radio channel"
bin	-inf	0
bin	-0.5	0
bin	-0.48	0
bin	-0.46	0
bin	-0.44	0
bin	-0.42	0
bin	-0.4	0
bin	-0.38	0
bin	-0.36	0
bin	-0.34	0
bin	-0.32	0
bin	-0.3	0
bin	-0.28	0
bin	-0.26	0
bin	-0.24	0
bin	-0.22	0
bin	-0.2	0
bin	-0.18	0
bin	-0.16	0
bin	-0.14	0
bin	-0.12	0
bin	-0.1	0
bin	-0.08	0
bin	-0.06	0
bin	-0.04	0
bin	-0.02	0
bin	0	1
bin	0.02	0
bin	0.04	0
bin	0.06	0
bin	0.08	0
bin	0.1	0
bin	0.12	0
bin	0.14	0
bin	0.16	0
bin	0.18	0
bin	0.2	0
bin	0.22	0
bin	0.24	0
bin	0.26	0
bin	0.28	0
bin	0.3	0
bin	0.32	0
bin	0.34	0
bin	0.36	0
bin	0.38	0
bin	0.4	0
bin	0.42	0
bin	0.44	0
bin	0.46	0
bin	0.48	0
bin	0.5	0
scalar GPSRNetworkRandom.host[1].wlan[0].radio radioMode:count 819
attr interpolationmode sample-hold
attr recordingmode count
attr source radioModeChanged
attr title "Radio mode, count"
scalar GPSRNetworkRandom.host[1].wlan[0].radio receptionState:count 3243
attr interpolationmode sample-hold
attr recordingmode count
attr source receptionStateChanged
attr title "Radio reception state, count"
scalar GPSRNetworkRandom.host[1].wlan[0].radio transmissionState:count 1632
attr interpolationmode sample-hold
attr recordingmode count
attr source transmissionStateChanged
attr title "Radio transmission state, count"
statistic GPSRNetworkRandom.host[1].wlan[0].radio minSnir:histogram
field count 1213
field mean 2857.5104288828
field stddev 4587.7755274632
field min 3.3407149323445
field max 11277.844652928
field sum 3466160.1502348
field sqrsum 35414382137.426
attr recordingmode histogram
attr source minimumSnir(packetSentToUpper)
attr title "Min SNIR"
bin	-inf	0
bin	0	307
bin	200	35
bin	400	305
bin	600	289
bin	800	0
bin	1000	0
bin	1200	0
bin	1400	0
bin	1600	0
bin	1800	0
bin	2000	0
bin	2200	0
bin	2400	0
bin	2600	0
bin	2800	0
bin	3000	0
bin	3200	0
bin	3400	0
bin	3600	0
bin	3800	0
bin	4000	0
bin	4200	0
bin	4400	0
bin	4600	0
bin	4800	0
bin	5000	0
bin	5200	0
bin	5400	0
bin	5600	0
bin	5800	0
bin	6000	0
bin	6200	0
bin	6400	0
bin	6600	0
bin	6800	0
bin	7000	0
bin	7200	0
bin	7400	0
bin	7600	0
bin	7800	0
bin	8000	0
bin	8200	0
bin	8400	0
bin	8600	0
bin	8800	0
bin	9000	0
bin	9200	0
bin	9400	0
bin	9600	0
bin	9800	0
bin	10000	0
bin	10200	0
bin	10400	0
bin	10600	0
bin	10800	0
bin	11000	0
bin	11200	277
bin	11400	0
bin	11600	0
bin	11800	0
bin	12000	0
bin	12200	0
bin	12400	0
bin	12600	0
bin	12800	0
bin	13000	0
bin	13200	0
bin	13400	0
bin	13600	0
bin	13800	0
bin	14000	0
bin	14200	0
statistic GPSRNetworkRandom.host[1].wlan[0].radio packetErrorRate:histogram
field count 1213
field mean 0.064294006917804
field stddev 0.22014793545256
field min 0
field max 0.99999999999887
field sum 77.988630391296
field sqrsum 63.753919084526
attr recordingmode histogram
attr source packetErrorRate(packetSentToUpper)
attr title "Packet error rate"
bin	-inf	0
bin	0	1075
bin	0.02	0
bin	0.04	17
bin	0.06	11
bin	0.08	6
bin	0.1	0
bin	0.12	0
bin	0.14	0
bin	0.16	0
bin	0.18	0
bin	0.2	0
bin	0.22	8
bin	0.24	0
bin	0.26	0
bin	0.28	0
bin	0.3	0
bin	0.32	1
bin	0.34	0
bin	0.36	0
bin	0.38	9
bin	0.4	17
bin	0.42	1
bin	0.44	0
bin	0.46	0
bin	0.48	2
bin	0.5	0
bin	0.52	0
bin	0.54	0
bin	0.56	0
bin	0.58	0
bin	0.6	0
bin	0.62	0
bin	0.64	2
bin	0.66	0
bin	0.68	0
bin	0.7	1
bin	0.72	0
bin	0.74	2
bin	0.76	7
bin	0.78	0
bin	0.8	0
bin	0.82	1
bin	0.84	0
bin	0.86	1
bin	0.88	1
bin	0.9	0
bin	0.92	1
bin	0.94	14
bin	0.96	9
bin	0.98	27
bin	1	0
bin	1.02	0
bin	1.04	0
bin	1.06	0
bin	1.08	0
bin	1.1	0
bin	1.12	0
bin	1.14	0
bin	1.16	0
bin	1.18	0
bin	1.2	0
bin	1.22	0
bin	1.24	0
bin	1.26	0
statistic GPSRNetworkRandom.host[1].wlan[0].radio bitErrorRate:histogram
field count 0
field mean -nan
field stddev nan
field min nan
field max nan
field sum 0
field sqrsum 0
attr recordingmode histogram
attr source bitErrorRate(packetSentToUpper)
attr title "Bit error rate"
bin	-inf	0
bin	0	0
bin	1	0
statistic GPSRNetworkRandom.host[1].wlan[0].radio symbolErrorRate:histogram
field count 0
field mean -nan
field stddev nan
field min nan
field max nan
field sum 0
field sqrsum 0
attr recordingmode histogram
attr source symbolErrorRate(packetSentToUpper)
attr title "Symbol error rate"
bin	-inf	0
bin	0	0
bin	1	0
scalar GPSRNetworkRandom.host[1].wlan[0] packetDropInterfaceDown:count 0
attr interpolationmode none
attr recordingmode count
attr source packetDropReasonIsInterfaceDown(packetDropped)
attr title "packet drops: interface down, count"
scalar GPSRNetworkRandom.host[1].wlan[0] packetDropInterfaceDown:sum(packetBytes) 0
attr interpolationmode none
attr recordingmode sum(packetBytes)
attr source packetDropReasonIsInterfaceDown(packetDropped)
attr title "packet drops: interface down, sum(packetBytes)"
scalar GPSRNetworkRandom.host[1].wlan[0] packetDropNoCarrier:count 0
attr interpolationmode none
attr recordingmode count
attr source packetDropReasonIsNoCarrier(packetDropped)
attr title "packet drops: no carrier, count"
scalar GPSRNetworkRandom.host[1].wlan[0] packetDropNoCarrier:sum(packetBytes) 0
attr interpolationmode none
attr recordingmode sum(packetBytes)
attr source packetDropReasonIsNoCarrier(packetDropped)
attr title "packet drops: no carrier, sum(packetBytes)"
scalar GPSRNetworkRandom.host[1].ipv6.neighbourDiscovery startDad:count 1
attr recordingmode count
attr title "DAD started, count"
scalar GPSRNetworkRandom.host[1].udp packetReceived:count 0
attr interpolationmode none
attr recordingmode count
attr source packetReceived
attr title "packets received, count"
scalar GPSRNetworkRandom.host[1].udp packetReceived:sum(packetBytes) 0
attr interpolationmode none
attr recordingmode sum(packetBytes)
attr source packetReceived
attr title "packets received, sum(packetBytes)"
scalar GPSRNetworkRandom.host[1].udp packetSent:count 0
attr interpolationmode none
attr recordingmode count
attr source packetSent
attr title "packets sent, count"
scalar GPSRNetworkRandom.host[1].udp packetSent:sum(packetBytes) 0
attr interpolationmode none
attr recordingmode sum(packetBytes)
attr source packetSent
attr title "packets sent, sum(packetBytes)"
scalar GPSRNetworkRandom.host[1].udp passedUpPk:count 0
attr interpolationmode none
attr recordingmode count
attr source packetSentToUpper
attr title "packets passed up, count"
scalar GPSRNetworkRandom.host[1].udp droppedPkWrongPort:count 0
attr interpolationmode none
attr recordingmode count
attr source packetDropReasonIsNoPortFound(packetDropped)
attr title "packets dropped (wrong port), count"
scalar GPSRNetworkRandom.host[1].udp droppedPkBadChecksum:count 0
attr interpolationmode none
attr recordingmode count
attr source packetDropReasonIsIncorrectlyReceived(packetDropped)
attr title "packets dropped (checksum error), count"
scalar GPSRNetworkRandom.host[1].app[0] pingRxSeq:count 0
attr interpolationmode none
attr recordingmode count
attr title "ping rx seq, count"
scalar GPSRNetworkRandom.host[1].app[0] pingTxSeq:count 0
attr interpolationmode none
attr recordingmode count
attr title "ping tx seq, count"
scalar GPSRNetworkRandom.host[1].app[0] numOutOfOrderArrivals:last nan
attr interpolationmode none
attr recordingmode last
attr title "ping out-of-order arrivals, last"
scalar GPSRNetworkRandom.host[1].app[0] numLost:last nan
attr interpolationmode none
attr recordingmode last
attr title "pings lost, last"
statistic GPSRNetworkRandom.host[1].app[0] rtt:histogram
field count 0
field mean -nan
field stddev nan
field min nan
field max nan
field sum 0
field sqrsum 0
attr interpolationmode none
attr recordingmode histogram
attr title "ping round-trip time"
attr unit s
bin	-inf	0
bin	0	0
bin	1	0
scalar GPSRNetworkRandom.host[2].lo[0].lo rcvdPkFromHl:count 0
attr interpolationmode none
attr recordingmode count
attr source packetReceivedFromUpper
attr title "packets received from higher layer, count"
scalar GPSRNetworkRandom.host[2].lo[0].lo rcvdPkFromHl:sum(packetBytes) 0
attr interpolationmode none
attr recordingmode sum(packetBytes)
attr source packetReceivedFromUpper
attr title "packets received from higher layer, sum(packetBytes)"
scalar GPSRNetworkRandom.host[2].lo[0].lo passedUpPk:count 0
attr interpolationmode none
attr recordingmode count
attr source packetSentToUpper
attr title "packets passed to higher layer, count"
scalar GPSRNetworkRandom.host[2].lo[0].lo passedUpPk:sum(packetBytes) 0
attr interpolationmode none
attr recordingmode sum(packetBytes)
attr source packetSentToUpper
attr title "packets passed to higher layer, sum(packetBytes)"
scalar GPSRNetworkRandom.host[2].lo[0] packetDropInterfaceDown:count 0
attr interpolationmode none
attr recordingmode count
attr source packetDropReasonIsInterfaceDown(packetDropped)
attr title "packet drops: interface down, count"
scalar GPSRNetworkRandom.host[2].lo[0] packetDropInterfaceDown:sum(packetBytes) 0
attr interpolationmode none
attr recordingmode sum(packetBytes)
attr source packetDropReasonIsInterfaceDown(packetDropped)
attr title "packet drops: interface down, sum(packetBytes)"
scalar GPSRNetworkRandom.host[2].lo[0] packetDropNoCarrier:count 0
attr interpolationmode none
attr recordingmode count
attr source packetDropReasonIsNoCarrier(packetDropped)
attr title "packet drops: no carrier, count"
scalar GPSRNetworkRandom.host[2].lo[0] packetDropNoCarrier:sum(packetBytes) 0
attr interpolationmode none
attr recordingmode sum(packetBytes)
attr source packetDropReasonIsNoCarrier(packetDropped)
attr title "packet drops: no carrier, sum(packetBytes)"
scalar GPSRNetworkRandom.host[2].wlan[0].mac.dcf.channelAccess.pendingQueue queueLength:last 0
attr autoWarmupFilter false
attr interpolationmode sample-hold
attr recordingmode last
attr source "warmup(atomic(constant0(packetPushEnded) + count(packetPushStarted) - count(packetPulled) - count(packetRemoved) - count(packetDropped)))"
attr title "queue length, last"
attr unit pk
scalar GPSRNetworkRandom.host[2].wlan[0].mac.dcf.channelAccess.pendingQueue queueLength:max 1
attr autoWarmupFilter false
attr interpolationmode sample-hold
attr recordingmode max
attr source "warmup(atomic(constant0(packetPushEnded) + count(packetPushStarted) - count(packetPulled) - count(packetRemoved) - count(packetDropped)))"
attr title "queue length, max"
attr unit pk
scalar GPSRNetworkRandom.host[2].wlan[0].mac.dcf.channelAccess.pendingQueue queueLength:timeavg 0.000289131496
attr autoWarmupFilter false
attr interpolationmode sample-hold
attr recordingmode timeavg
attr source "warmup(atomic(constant0(packetPushEnded) + count(packetPushStarted) - count(packetPulled) - count(packetRemoved) - count(packetDropped)))"
attr title "queue length, timeavg"
attr unit pk
scalar GPSRNetworkRandom.host[2].wlan[0].mac.dcf.channelAccess.pendingQueue queueBitLength:last 0
attr autoWarmupFilter false
attr interpolationmode sample-hold
attr recordingmode last
attr source "warmup(atomic(constant0(packetPushEnded) + sum(packetLength(packetPushStarted)) - sum(packetLength(packetPulled)) - sum(packetLength(packetRemoved)) - sum(packetLength(packetDropped))))"
attr title "queue bit length, last"
attr unit b
scalar GPSRNetworkRandom.host[2].wlan[0].mac.dcf.channelAccess.pendingQueue queueBitLength:max 864
attr autoWarmupFilter false
attr interpolationmode sample-hold
attr recordingmode max
attr source "warmup(atomic(constant0(packetPushEnded) + sum(packetLength(packetPushStarted)) - sum(packetLength(packetPulled)) - sum(packetLength(packetRemoved)) - sum(packetLength(packetDropped))))"
attr title "queue bit length, max"
attr unit b
scalar GPSRNetworkRandom.host[2].wlan[0].mac.dcf.channelAccess.pendingQueue queueBitLength:timeavg 0.249809612544
attr autoWarmupFilter false
attr interpolationmode sample-hold
attr recordingmode timeavg
attr source "warmup(atomic(constant0(packetPushEnded) + sum(packetLength(packetPushStarted)) - sum(packetLength(packetPulled)) - sum(packetLength(packetRemoved)) - sum(packetLength(packetDropped))))"
attr title "queue bit length, timeavg"
attr unit b
statistic GPSRNetworkRandom.host[2].wlan[0].mac.dcf.channelAccess.pendingQueue queueingTime:histogram
field count 396
field mean 1.4602600808081e-05
field stddev 0.00010073359463472
field min 0
field max 0.000950596424
field sum 0.00578262992
field sqrsum 4.0926079861149e-06
attr interpolationmode none
attr recordingmode histogram
attr source queueingTime(packetPulled)
attr title "queueing times"
attr unit s
bin	-inf	0
bin	0	385
bin	2e-05	0
bin	4e-05	0
bin	6e-05	2
bin	8e-05	1
bin	0.0001	0
bin	0.00012	0
bin	0.00014	0
bin	0.00016	0
bin	0.00018	0
bin	0.0002	0
bin	0.00022	0
bin	0.00024	0
bin	0.00026	0
bin	0.00028	0
bin	0.0003	0
bin	0.00032	0
bin	0.00034	0
bin	0.00036	0
bin	0.00038	0
bin	0.0004	0
bin	0.00042	0
bin	0.00044	0
bin	0.00046	0
bin	0.00048	1
bin	0.0005	0
bin	0.00052	1
bin	0.00054	0
bin	0.00056	0
bin	0.00058	2
bin	0.0006	0
bin	0.00062	0
bin	0.00064	0
bin	0.00066	0
bin	0.00068	0
bin	0.0007	1
bin	0.00072	0
bin	0.00074	0
bin	0.00076	0
bin	0.00078	0
bin	0.0008	1
bin	0.00082	0
bin	0.00084	0
bin	0.00086	0
bin	0.00088	1
bin	0.0009	0
bin	0.00092	0
bin	0.00094	1
bin	0.00096	0
scalar GPSRNetworkRandom.host[2].wlan[0].mac.dcf.channelAccess.pendingQueue outgoingPackets:count 396
attr recordingmode count
attr source packetPulled
attr title "outgoing packets, count"
attr unit pk
scalar GPSRNetworkRandom.host[2].wlan[0].mac.dcf.channelAccess.pendingQueue outgoingPacketLengths:sum 342080
attr interpolationmode none
attr recordingmode sum
attr source packetLength(packetPulled)
attr title "outgoing packet lengths, sum"
attr unit b
[...]
attr title "packets received: unicast, sum(packetBytes)"
scalar GPSRNetworkRandom.host[19].wlan[0].mac.dcf packetReceivedFromPeerMulticast:count 287
attr interpolationmode none
attr recordingmode count
attr source ieee80211Multicast(packetReceivedFromPeer)
attr title "packets received: multicast, count"
scalar GPSRNetworkRandom.host[19].wlan[0].mac.dcf packetReceivedFromPeerMulticast:sum(packetBytes) 30996
attr interpolationmode none
attr recordingmode sum(packetBytes)
attr source ieee80211Multicast(packetReceivedFromPeer)
attr title "packets received: multicast, sum(packetBytes)"
scalar GPSRNetworkRandom.host[19].wlan[0].mac.dcf packetReceivedFromPeerBroadcast:count 287
attr interpolationmode none
attr recordingmode count
attr source ieee80211Broadcast(packetReceivedFromPeer)
attr title "packets received: broadcast, count"
scalar GPSRNetworkRandom.host[19].wlan[0].mac.dcf packetReceivedFromPeerBroadcast:sum(packetBytes) 30996
attr interpolationmode none
attr recordingmode sum(packetBytes)
attr source ieee80211Broadcast(packetReceivedFromPeer)
attr title "packets received: broadcast, sum(packetBytes)"
scalar GPSRNetworkRandom.host[19].wlan[0].mac.dcf packetReceivedFromPeerWithRetry:count 0
attr interpolationmode none
attr recordingmode count
attr source ieee80211Retry(packetReceivedFromPeer)
attr title "packets received: with retry, count"
scalar GPSRNetworkRandom.host[19].wlan[0].mac.dcf packetReceivedFromPeerWithRetry:sum(packetBytes) 0
attr interpolationmode none
attr recordingmode sum(packetBytes)
attr source ieee80211Retry(packetReceivedFromPeer)
attr title "packets received: with retry, sum(packetBytes)"
scalar GPSRNetworkRandom.host[19].wlan[0].mac.dcf packetReceivedFromPeerWithoutRetry:count 287
attr interpolationmode none
attr recordingmode count
attr source ieee80211NotRetry(packetReceivedFromPeer)
attr title "packets received: without retry, count"
scalar GPSRNetworkRandom.host[19].wlan[0].mac.dcf packetReceivedFromPeerWithoutRetry:sum(packetBytes) 30996
attr interpolationmode none
attr recordingmode sum(packetBytes)
attr source ieee80211NotRetry(packetReceivedFromPeer)
attr title "packets received: without retry, sum(packetBytes)"
scalar GPSRNetworkRandom.host[19].wlan[0].mac.dcf packetSentToPeer:count 403
attr interpolationmode none
attr recordingmode count
attr title "packets sent, count"
scalar GPSRNetworkRandom.host[19].wlan[0].mac.dcf packetSentToPeer:sum(packetBytes) 43516
attr interpolationmode none
attr recordingmode sum(packetBytes)
attr title "packets sent, sum(packetBytes)"
scalar GPSRNetworkRandom.host[19].wlan[0].mac.dcf packetSentToPeerUnicast:count 0
attr interpolationmode none
attr recordingmode count
attr source ieee80211Unicast(packetSentToPeer)
attr title "packets sent: unicast, count"
scalar GPSRNetworkRandom.host[19].wlan[0].mac.dcf packetSentToPeerUnicast:sum(packetBytes) 0
attr interpolationmode none
attr recordingmode sum(packetBytes)
attr source ieee80211Unicast(packetSentToPeer)
attr title "packets sent: unicast, sum(packetBytes)"
scalar GPSRNetworkRandom.host[19].wlan[0].mac.dcf packetSentToPeerMulticast:count 403
attr interpolationmode none
attr recordingmode count
attr source ieee80211Multicast(packetSentToPeer)
attr title "packets sent: multicast, count"
scalar GPSRNetworkRandom.host[19].wlan[0].mac.dcf packetSentToPeerMulticast:sum(packetBytes) 43516
attr interpolationmode none
attr recordingmode sum(packetBytes)
attr source ieee80211Multicast(packetSentToPeer)
attr title "packets sent: multicast, sum(packetBytes)"
scalar GPSRNetworkRandom.host[19].wlan[0].mac.dcf packetSentToPeerBroadcast:count 403
attr interpolationmode none
attr recordingmode count
attr source ieee80211Broadcast(packetSentToPeer)
attr title "packets sent: broadcast , count"
scalar GPSRNetworkRandom.host[19].wlan[0].mac.dcf packetSentToPeerBroadcast:sum(packetBytes) 43516
attr interpolationmode none
attr recordingmode sum(packetBytes)
attr source ieee80211Broadcast(packetSentToPeer)
attr title "packets sent: broadcast , sum(packetBytes)"
scalar GPSRNetworkRandom.host[19].wlan[0].mac.dcf packetSentToPeerWithRetry:count 0
attr interpolationmode none
attr recordingmode count
attr source ieee80211Retry(packetSentToPeer)
attr title "packets sent: with retry, count"
scalar GPSRNetworkRandom.host[19].wlan[0].mac.dcf packetSentToPeerWithRetry:sum(packetBytes) 0
attr interpolationmode none
attr recordingmode sum(packetBytes)
attr source ieee80211Retry(packetSentToPeer)
attr title "packets sent: with retry, sum(packetBytes)"
scalar GPSRNetworkRandom.host[19].wlan[0].mac.dcf packetSentToPeerWithoutRetry:count 403
attr interpolationmode none
attr recordingmode count
attr source ieee80211NotRetry(packetSentToPeer)
attr title "packets sent: without retry, count"
scalar GPSRNetworkRandom.host[19].wlan[0].mac.dcf packetSentToPeerWithoutRetry:sum(packetBytes) 43516
attr interpolationmode none
attr recordingmode sum(packetBytes)
attr source ieee80211NotRetry(packetSentToPeer)
attr title "packets sent: without retry, sum(packetBytes)"
scalar GPSRNetworkRandom.host[19].wlan[0].mac.dcf packetDrop:count 0
attr interpolationmode none
attr recordingmode count
attr source packetDropped
attr title "packet drops, count"
scalar GPSRNetworkRandom.host[19].wlan[0].mac.dcf packetDrop:sum(packetBytes) 0
attr interpolationmode none
attr recordingmode sum(packetBytes)
attr source packetDropped
attr title "packet drops, sum(packetBytes)"
scalar GPSRNetworkRandom.host[19].wlan[0].mac.dcf packetDropNotAddressedToUs:count 0
attr interpolationmode none
attr recordingmode count
attr source packetDropReasonIsNotAddressedToUs(packetDropped)
attr title "packet drops: not addressed to us, count"
scalar GPSRNetworkRandom.host[19].wlan[0].mac.dcf packetDropNotAddressedToUs:sum(packetBytes) 0
attr interpolationmode none
attr recordingmode sum(packetBytes)
attr source packetDropReasonIsNotAddressedToUs(packetDropped)
attr title "packet drops: not addressed to us, sum(packetBytes)"
scalar GPSRNetworkRandom.host[19].wlan[0].mac.dcf packetDropQueueOverflow:count 0
attr interpolationmode none
attr recordingmode count
attr source packetDropReasonIsQueueOverflow(packetDropped)
attr title "packet drops: queue overflow, count"
scalar GPSRNetworkRandom.host[19].wlan[0].mac.dcf packetDropQueueOverflow:sum(packetBytes) 0
attr interpolationmode none
attr recordingmode sum(packetBytes)
attr source packetDropReasonIsQueueOverflow(packetDropped)
attr title "packet drops: queue overflow, sum(packetBytes)"
scalar GPSRNetworkRandom.host[19].wlan[0].mac.dcf packetDropRetryLimitReached:count 0
attr interpolationmode none
attr recordingmode count
attr source packetDropReasonIsRetryLimitReached(packetDropped)
attr title "packet drops: retry limit reached, count"
scalar GPSRNetworkRandom.host[19].wlan[0].mac.dcf packetDropRetryLimitReached:sum(packetBytes) 0
attr interpolationmode none
attr recordingmode sum(packetBytes)
attr source packetDropReasonIsRetryLimitReached(packetDropped)
attr title "packet drops: retry limit reached, sum(packetBytes)"
scalar GPSRNetworkRandom.host[19].wlan[0].mac.dcf linkBroken:count 0
attr interpolationmode none
attr recordingmode count
attr title "link breaks, count"
scalar GPSRNetworkRandom.host[19].wlan[0].mac packetReceivedFromLower:count 399
attr interpolationmode none
attr recordingmode count
attr title "packets received from lower layer, count"
scalar GPSRNetworkRandom.host[19].wlan[0].mac packetReceivedFromLower:sum(packetBytes) 43084
attr interpolationmode none
attr recordingmode sum(packetBytes)
attr title "packets received from lower layer, sum(packetBytes)"
scalar GPSRNetworkRandom.host[19].wlan[0].mac packetSentToLower:count 403
attr interpolationmode none
attr recordingmode count
attr title "packets sent to lower layer, count"
scalar GPSRNetworkRandom.host[19].wlan[0].mac packetSentToLower:sum(packetBytes) 43516
attr interpolationmode none
attr recordingmode sum(packetBytes)
attr title "packets sent to lower layer, sum(packetBytes)"
scalar GPSRNetworkRandom.host[19].wlan[0].mac packetReceivedFromUpper:count 403
attr interpolationmode none
attr recordingmode count
attr title "packets received from upper layer, count"
scalar GPSRNetworkRandom.host[19].wlan[0].mac packetReceivedFromUpper:sum(packetBytes) 32232
attr interpolationmode none
attr recordingmode sum(packetBytes)
attr title "packets received from upper layer, sum(packetBytes)"
scalar GPSRNetworkRandom.host[19].wlan[0].mac packetSentToUpper:count 287
attr interpolationmode none
attr recordingmode count
attr title "packets sent to upper layer, count"
scalar GPSRNetworkRandom.host[19].wlan[0].mac packetSentToUpper:sum(packetBytes) 22960
attr interpolationmode none
attr recordingmode sum(packetBytes)
attr title "packets sent to upper layer, sum(packetBytes)"
scalar GPSRNetworkRandom.host[19].wlan[0].mac packetDrop:count 112
attr interpolationmode none
attr recordingmode count
attr source packetDropped
attr title "packet drops, count"
scalar GPSRNetworkRandom.host[19].wlan[0].mac packetDrop:sum(packetBytes) 12088
attr interpolationmode none
attr recordingmode sum(packetBytes)
attr source packetDropped
attr title "packet drops, sum(packetBytes)"
scalar GPSRNetworkRandom.host[19].wlan[0].mac packetDropIncorrectlyReceived:count 112
attr interpolationmode none
attr recordingmode count
attr source packetDropReasonIsIncorrectlyReceived(packetDropped)
attr title "packet drops: incorrectly received, count"
scalar GPSRNetworkRandom.host[19].wlan[0].mac packetDropIncorrectlyReceived:sum(packetBytes) 12088
attr interpolationmode none
attr recordingmode sum(packetBytes)
attr source packetDropReasonIsIncorrectlyReceived(packetDropped)
attr title "packet drops: incorrectly received, sum(packetBytes)"
scalar GPSRNetworkRandom.host[19].wlan[0].mac packetDropNotAddressedToUs:count 0
attr interpolationmode none
attr recordingmode count
attr source packetDropReasonIsNotAddressedToUs(packetDropped)
attr title "packet drops: not addressed to us, count"
scalar GPSRNetworkRandom.host[19].wlan[0].mac packetDropNotAddressedToUs:sum(packetBytes) 0
attr interpolationmode none
attr recordingmode sum(packetBytes)
attr source packetDropReasonIsNotAddressedToUs(packetDropped)
attr title "packet drops: not addressed to us, sum(packetBytes)"
scalar GPSRNetworkRandom.host[19].wlan[0].mac packetDropQueueOverflow:count 0
attr interpolationmode none
attr recordingmode count
attr source packetDropReasonIsQueueOverflow(packetDropped)
attr title "packet drops: queue overflow, count"
scalar GPSRNetworkRandom.host[19].wlan[0].mac packetDropQueueOverflow:sum(packetBytes) 0
attr interpolationmode none
attr recordingmode sum(packetBytes)
attr source packetDropReasonIsQueueOverflow(packetDropped)
attr title "packet drops: queue overflow, sum(packetBytes)"
scalar GPSRNetworkRandom.host[19].wlan[0].mac packetDropRetryLimitReached:count 0
attr interpolationmode none
attr recordingmode count
attr source packetDropReasonIsRetryLimitReached(packetDropped)
attr title "packet drops: retry limit reached, count"
scalar GPSRNetworkRandom.host[19].wlan[0].mac packetDropRetryLimitReached:sum(packetBytes) 0
attr interpolationmode none
attr recordingmode sum(packetBytes)
attr source packetDropReasonIsRetryLimitReached(packetDropped)
attr title "packet drops: retry limit reached, sum(packetBytes)"
scalar GPSRNetworkRandom.host[19].wlan[0].mac packetDropDuplicateDetected:count 0
attr interpolationmode none
attr recordingmode count
attr source packetDropReasonIsDuplicateDetected(packetDropped)
attr title "packet drops: duplicate detected, count"
scalar GPSRNetworkRandom.host[19].wlan[0].mac packetDropDuplicateDetected:sum(packetBytes) 0
attr interpolationmode none
attr recordingmode sum(packetBytes)
attr source packetDropReasonIsDuplicateDetected(packetDropped)
attr title "packet drops: duplicate detected, sum(packetBytes)"
scalar GPSRNetworkRandom.host[19].wlan[0].mac packetDropOther:count 0
attr interpolationmode none
attr recordingmode count
attr source packetDropReasonIsOther(packetDropped)
attr title "packet drops: other, count"
scalar GPSRNetworkRandom.host[19].wlan[0].mac packetDropOther:sum(packetBytes) 0
attr interpolationmode none
attr recordingmode sum(packetBytes)
attr source packetDropReasonIsOther(packetDropped)
attr title "packet drops: other, sum(packetBytes)"
scalar GPSRNetworkRandom.host[19].wlan[0].mac linkBroken:count 0
attr interpolationmode none
attr recordingmode count
attr title "link breaks, count"
statistic GPSRNetworkRandom.host[19].wlan[0].radio radioChannel:histogram
field count 1
field mean 0
field stddev nan
field min 0
field max 0
field sum 0
field sqrsum 0
attr interpolationmode sample-hold
attr recordingmode histogram
attr source radioChannelChanged
attr title "Radio channel"
bin	-inf	0
bin	-0.5	0
bin	-0.48	0
bin	-0.46	0
bin	-0.44	0
bin	-0.42	0
bin	-0.4	0
bin	-0.38	0
bin	-0.36	0
bin	-0.34	0
bin	-0.32	0
bin	-0.3	0
bin	-0.28	0
bin	-0.26	0
bin	-0.24	0
bin	-0.22	0
bin	-0.2	0
bin	-0.18	0
bin	-0.16	0
bin	-0.14	0
bin	-0.12	0
bin	-0.1	0
bin	-0.08	0
bin	-0.06	0
bin	-0.04	0
bin	-0.02	0
bin	0	1
bin	0.02	0
bin	0.04	0
bin	0.06	0
bin	0.08	0
bin	0.1	0
bin	0.12	0
bin	0.14	0
bin	0.16	0
bin	0.18	0
bin	0.2	0
bin	0.22	0
bin	0.24	0
bin	0.26	0
bin	0.28	0
bin	0.3	0
bin	0.32	0
bin	0.34	0
bin	0.36	0
bin	0.38	0
bin	0.4	0
bin	0.42	0
bin	0.44	0
bin	0.46	0
bin	0.48	0
bin	0.5	0
scalar GPSRNetworkRandom.host[19].wlan[0].radio radioMode:count 809
attr interpolationmode sample-hold
attr recordingmode count
attr source radioModeChanged
attr title "Radio mode, count"
scalar GPSRNetworkRandom.host[19].wlan[0].radio receptionState:count 2297
attr interpolationmode sample-hold
attr recordingmode count
attr source receptionStateChanged
attr title "Radio reception state, count"
scalar GPSRNetworkRandom.host[19].wlan[0].radio transmissionState:count 1612
attr interpolationmode sample-hold
attr recordingmode count
attr source transmissionStateChanged
attr title "Radio transmission state, count"
statistic GPSRNetworkRandom.host[19].wlan[0].radio minSnir:histogram
field count 399
field mean 339.06124771881
field stddev 243.90598348131
field min 1.3587804502563
field max 517.16739134108
field sum 135285.43783981
field sqrsum 69547120.605788
attr recordingmode histogram
attr source minimumSnir(packetSentToUpper)
attr title "Min SNIR"
bin	-inf	0
bin	0	119
bin	10	20
bin	20	0
bin	30	0
bin	40	0
bin	50	0
bin	60	0
bin	70	0
bin	80	0
bin	90	0
bin	100	0
bin	110	0
bin	120	0
bin	130	0
bin	140	0
bin	150	0
bin	160	0
bin	170	0
bin	180	0
bin	190	0
bin	200	0
bin	210	0
bin	220	0
bin	230	0
bin	240	0
bin	250	0
bin	260	0
bin	270	0
bin	280	0
bin	290	0
bin	300	0
bin	310	0
bin	320	0
bin	330	0
bin	340	0
bin	350	0
bin	360	0
bin	370	0
bin	380	0
bin	390	0
bin	400	0
bin	410	0
bin	420	0
bin	430	0
bin	440	0
bin	450	0
bin	460	0
bin	470	0
bin	480	0
bin	490	0
bin	500	0
bin	510	260
bin	520	0
bin	530	0
bin	540	0
bin	550	0
bin	560	0
bin	570	0
bin	580	0
bin	590	0
bin	600	0
bin	610	0
bin	620	0
bin	630	0
bin	640	0
bin	650	0
statistic GPSRNetworkRandom.host[19].wlan[0].radio packetErrorRate:histogram
field count 399
field mean 0.27507860127458
field stddev 0.42987397940325
field min 0
field max 1
field sum 109.75636190856
field sqrsum 103.73869850565
attr recordingmode histogram
attr source packetErrorRate(packetSentToUpper)
attr title "Packet error rate"
bin	-inf	0
bin	0	265
bin	0.02	8
bin	0.04	0
bin	0.06	7
bin	0.08	0
bin	0.1	0
bin	0.12	0
bin	0.14	0
bin	0.16	0
bin	0.18	0
bin	0.2	0
bin	0.22	0
bin	0.24	0
bin	0.26	0
bin	0.28	0
bin	0.3	0
bin	0.32	0
bin	0.34	0
bin	0.36	0
bin	0.38	2
bin	0.4	0
bin	0.42	0
bin	0.44	0
bin	0.46	0
bin	0.48	0
bin	0.5	8
bin	0.52	0
bin	0.54	0
bin	0.56	10
bin	0.58	0
bin	0.6	0
bin	0.62	0
bin	0.64	0
bin	0.66	0
bin	0.68	0
bin	0.7	0
bin	0.72	0
bin	0.74	0
bin	0.76	0
bin	0.78	0
bin	0.8	0
bin	0.82	0
bin	0.84	0
bin	0.86	0
bin	0.88	0
bin	0.9	0
bin	0.92	0
bin	0.94	0
bin	0.96	11
bin	0.98	49
bin	1	39
bin	1.02	0
bin	1.04	0
bin	1.06	0
bin	1.08	0
bin	1.1	0
bin	1.12	0
bin	1.14	0
bin	1.16	0
bin	1.18	0
bin	1.2	0
bin	1.22	0
bin	1.24	0
bin	1.26	0
statistic GPSRNetworkRandom.host[19].wlan[0].radio bitErrorRate:histogram
field count 0
field mean -nan
field stddev nan
field min nan
field max nan
field sum 0
field sqrsum 0
attr recordingmode histogram
attr source bitErrorRate(packetSentToUpper)
attr title "Bit error rate"
bin	-inf	0
bin	0	0
bin	1	0
statistic GPSRNetworkRandom.host[19].wlan[0].radio symbolErrorRate:histogram
field count 0
field mean -nan
field stddev nan
field min nan
field max nan
field sum 0
field sqrsum 0
attr recordingmode histogram
attr source symbolErrorRate(packetSentToUpper)
attr title "Symbol error rate"
bin	-inf	0
bin	0	0
bin	1	0
scalar GPSRNetworkRandom.host[19].wlan[0] packetDropInterfaceDown:count 0
attr interpolationmode none
attr recordingmode count
attr source packetDropReasonIsInterfaceDown(packetDropped)
attr title "packet drops: interface down, count"
scalar GPSRNetworkRandom.host[19].wlan[0] packetDropInterfaceDown:sum(packetBytes) 0
attr interpolationmode none
attr recordingmode sum(packetBytes)
attr source packetDropReasonIsInterfaceDown(packetDropped)
attr title "packet drops: interface down, sum(packetBytes)"
scalar GPSRNetworkRandom.host[19].wlan[0] packetDropNoCarrier:count 0
attr interpolationmode none
attr recordingmode count
attr source packetDropReasonIsNoCarrier(packetDropped)
attr title "packet drops: no carrier, count"
scalar GPSRNetworkRandom.host[19].wlan[0] packetDropNoCarrier:sum(packetBytes) 0
attr interpolationmode none
attr recordingmode sum(packetBytes)
attr source packetDropReasonIsNoCarrier(packetDropped)
attr title "packet drops: no carrier, sum(packetBytes)"
scalar GPSRNetworkRandom.host[19].ipv6.neighbourDiscovery startDad:count 1
attr recordingmode count
attr title "DAD started, count"
scalar GPSRNetworkRandom.host[19].udp packetReceived:count 0
attr interpolationmode none
attr recordingmode count
attr source packetReceived
attr title "packets received, count"
scalar GPSRNetworkRandom.host[19].udp packetReceived:sum(packetBytes) 0
attr interpolationmode none
attr recordingmode sum(packetBytes)
attr source packetReceived
attr title "packets received, sum(packetBytes)"
scalar GPSRNetworkRandom.host[19].udp packetSent:count 0
attr interpolationmode none
attr recordingmode count
attr source packetSent
attr title "packets sent, count"
scalar GPSRNetworkRandom.host[19].udp packetSent:sum(packetBytes) 0
attr interpolationmode none
attr recordingmode sum(packetBytes)
attr source packetSent
attr title "packets sent, sum(packetBytes)"
scalar GPSRNetworkRandom.host[19].udp passedUpPk:count 0
attr interpolationmode none
attr recordingmode count
attr source packetSentToUpper
attr title "packets passed up, count"
scalar GPSRNetworkRandom.host[19].udp droppedPkWrongPort:count 0
attr interpolationmode none
attr recordingmode count
attr source packetDropReasonIsNoPortFound(packetDropped)
attr title "packets dropped (wrong port), count"
scalar GPSRNetworkRandom.host[19].udp droppedPkBadChecksum:count 0
attr interpolationmode none
attr recordingmode count
attr source packetDropReasonIsIncorrectlyReceived(packetDropped)
attr title "packets dropped (checksum error), count"
scalar GPSRNetworkRandom.host[19].app[0] pingRxSeq:count 0
attr interpolationmode none
attr recordingmode count
attr title "ping rx seq, count"
scalar GPSRNetworkRandom.host[19].app[0] pingTxSeq:count 0
attr interpolationmode none
attr recordingmode count
attr title "ping tx seq, count"
scalar GPSRNetworkRandom.host[19].app[0] numOutOfOrderArrivals:last nan
attr interpolationmode none
attr recordingmode last
attr title "ping out-of-order arrivals, last"
scalar GPSRNetworkRandom.host[19].app[0] numLost:last nan
attr interpolationmode none
attr recordingmode last
attr title "pings lost, last"
statistic GPSRNetworkRandom.host[19].app[0] rtt:histogram
field count 0
field mean -nan
field stddev nan
field min nan
field max nan
field sum 0
field sqrsum 0
attr interpolationmode none
attr recordingmode histogram
attr title "ping round-trip time"
attr unit s
bin	-inf	0
bin	0	0
bin	1	0

