version 3
run IPv4-0-20260206-21:57:22-3560350
attr configname IPv4
attr datetime 20260206-21:57:22
attr datetimef 20260206-215722
attr experiment IPv4
attr inifile omnetpp.ini
attr iterationvars ""
attr iterationvarsd ""
attr iterationvarsf ""
attr measurement ""
attr network GPSRNetworkRandom
attr processid 3560350
attr repetition 0
attr replication #0
attr resultdir results
attr runnumber 0
attr seedset 0
config **.param-recording false
config image-path /home/attila/projects/inet/images
config output-scalar-file results/omnetpp.ini-IPv4-#0.sca
config output-scalar-precision 17
config output-vector-file results/omnetpp.ini-IPv4-#0.vec
config output-vector-precision 17
config record-eventlog false
config sim-time-limit 20s
config sim-time-limit 20s
config extends "Random, _IPv4"
config description "network layer for Ipv4 network protocol only (default)"
config network GPSRNetworkRandom
config *.numHosts 20
config **.host[*].mobility.typename StationaryMobility
config *.host[*].numApps 1
config *.host[*].app[0].typename PingApp
config *.host[*].app[0].startTime uniform(1s,5s)
config *.host[*].app[0].printPing true
config description "base config for Ipv4"
config *.host[0].app[0].destAddr "\"host[1](ipv4)\""
config num-rngs 3
config **.mobility.rng-0 1
config **.wlan[*].mac.rng-0 2
config **.mobility.constraintAreaMinZ 0m
config **.mobility.constraintAreaMaxZ 0m
config **.mobility.constraintAreaMinX 0m
config **.mobility.constraintAreaMinY 0m
config **.mobility.constraintAreaMaxX 1000m
config **.mobility.constraintAreaMaxY 1000m
config **.wlan[*].bitrate 2Mbps
config **.wlan[*].mac.dcf.channelAccess.cwMin 7
config **.wlan[*].radio.transmitter.power 2mW

scalar GPSRNetworkRandom.radioMedium.propagation "Arrival computation count" 7904
scalar GPSRNetworkRandom.radioMedium "transmission count" 416
scalar GPSRNetworkRandom.radioMedium "signal send count" 7904
scalar GPSRNetworkRandom.radioMedium "reception computation count" 7904
scalar GPSRNetworkRandom.radioMedium "interference computation count" 24168
scalar GPSRNetworkRandom.radioMedium "reception decision computation count" 1532
scalar GPSRNetworkRandom.radioMedium "listening decision computation count" 14732
scalar GPSRNetworkRandom.radioMedium "reception cache hit" 78.172981332155089
scalar GPSRNetworkRandom.radioMedium "interference cache hit" 66.666666666666671
scalar GPSRNetworkRandom.radioMedium "noise cache hit" 0
scalar GPSRNetworkRandom.radioMedium "snir cache hit" 50
scalar GPSRNetworkRandom.radioMedium "reception decision cache hit" 50
scalar GPSRNetworkRandom.radioMedium "reception result cache hit" 0
scalar GPSRNetworkRandom.host[0].lo[0].lo rcvdPkFromHl:count 0
scalar GPSRNetworkRandom.host[0].lo[0].lo rcvdPkFromHl:sum(packetBytes) 0
scalar GPSRNetworkRandom.host[0].lo[0].lo passedUpPk:count 0
scalar GPSRNetworkRandom.host[0].lo[0].lo passedUpPk:sum(packetBytes) 0
scalar GPSRNetworkRandom.host[0].lo[0] packetDropInterfaceDown:count 0
scalar GPSRNetworkRandom.host[0].lo[0] packetDropInterfaceDown:sum(packetBytes) 0
scalar GPSRNetworkRandom.host[0].lo[0] packetDropNoCarrier:count 0
scalar GPSRNetworkRandom.host[0].lo[0] packetDropNoCarrier:sum(packetBytes) 0
scalar GPSRNetworkRandom.host[0].wlan[0].mac.dcf.channelAccess.pendingQueue queueLength:last 0
scalar GPSRNetworkRandom.host[0].wlan[0].mac.dcf.channelAccess.pendingQueue queueLength:max 1
scalar GPSRNetworkRandom.host[0].wlan[0].mac.dcf.channelAccess.pendingQueue queueLength:timeavg 0.0001562
scalar GPSRNetworkRandom.host[0].wlan[0].mac.dcf.channelAccess.pendingQueue queueBitLength:last 0
scalar GPSRNetworkRandom.host[0].wlan[0].mac.dcf.channelAccess.pendingQueue queueBitLength:max 1280
scalar GPSRNetworkRandom.host[0].wlan[0].mac.dcf.channelAccess.pendingQueue queueBitLength:timeavg 0.19993599999999995
scalar GPSRNetworkRandom.host[0].wlan[0].mac.dcf.channelAccess.pendingQueue outgoingPackets:count 24
scalar GPSRNetworkRandom.host[0].wlan[0].mac.dcf.channelAccess.pendingQueue outgoingPacketLengths:sum 27840
scalar GPSRNetworkRandom.host[0].wlan[0].mac.dcf.channelAccess.pendingQueue incomingPackets:count 24
scalar GPSRNetworkRandom.host[0].wlan[0].mac.dcf.channelAccess.pendingQueue incomingPacketLengths:sum 27840
scalar GPSRNetworkRandom.host[0].wlan[0].mac.dcf.channelAccess.pendingQueue droppedPacketsQueueOverflow:count 0
scalar GPSRNetworkRandom.host[0].wlan[0].mac.dcf.channelAccess.pendingQueue droppedPacketLengthsQueueOverflow:sum 0
scalar GPSRNetworkRandom.host[0].wlan[0].mac.dcf.channelAccess.inProgressFrames queueLength:max 1
scalar GPSRNetworkRandom.host[0].wlan[0].mac.dcf.channelAccess.inProgressFrames queueLength:timeavg 0.0011858819588000003
scalar GPSRNetworkRandom.host[0].wlan[0].mac.dcf.channelAccess.contention channelAccessGranted:count 24
scalar GPSRNetworkRandom.host[0].wlan[0].mac.dcf.channelAccess.contention stateChanged:count 602
scalar GPSRNetworkRandom.host[0].wlan[0].mac.dcf.channelAccess channelOwnershipChanged:count 48
scalar GPSRNetworkRandom.host[0].wlan[0].mac.dcf.originatorMacDataService packetAggregated:count 0
scalar GPSRNetworkRandom.host[0].wlan[0].mac.dcf.originatorMacDataService packetFragmented:count 0
scalar GPSRNetworkRandom.host[0].wlan[0].mac.dcf.recipientMacDataService packetDeaggregated:count 0
scalar GPSRNetworkRandom.host[0].wlan[0].mac.dcf.recipientMacDataService packetDefragmented:count 20
scalar GPSRNetworkRandom.host[0].wlan[0].mac.dcf.recipientMacDataService packetDropDuplicateDetected:count 0
scalar GPSRNetworkRandom.host[0].wlan[0].mac.dcf.recipientMacDataService packetDropDuplicateDetected:sum(packetBytes) 0
scalar GPSRNetworkRandom.host[0].wlan[0].mac.dcf.recoveryProcedure retryLimitReached:count 0
scalar GPSRNetworkRandom.host[0].wlan[0].mac.dcf frameSequenceFinished:count 24
scalar GPSRNetworkRandom.host[0].wlan[0].mac.dcf packetReceivedFromPeer:count 40
scalar GPSRNetworkRandom.host[0].wlan[0].mac.dcf packetReceivedFromPeer:sum(packetBytes) 2844
scalar GPSRNetworkRandom.host[0].wlan[0].mac.dcf packetReceivedFromPeerUnicast:count 35
scalar GPSRNetworkRandom.host[0].wlan[0].mac.dcf packetReceivedFromPeerUnicast:sum(packetBytes) 2488
scalar GPSRNetworkRandom.host[0].wlan[0].mac.dcf packetReceivedFromPeerMulticast:count 5
scalar GPSRNetworkRandom.host[0].wlan[0].mac.dcf packetReceivedFromPeerMulticast:sum(packetBytes) 356
scalar GPSRNetworkRandom.host[0].wlan[0].mac.dcf packetReceivedFromPeerBroadcast:count 2
scalar GPSRNetworkRandom.host[0].wlan[0].mac.dcf packetReceivedFromPeerBroadcast:sum(packetBytes) 128
scalar GPSRNetworkRandom.host[0].wlan[0].mac.dcf packetReceivedFromPeerWithRetry:count 0
scalar GPSRNetworkRandom.host[0].wlan[0].mac.dcf packetReceivedFromPeerWithRetry:sum(packetBytes) 0
scalar GPSRNetworkRandom.host[0].wlan[0].mac.dcf packetReceivedFromPeerWithoutRetry:count 40
scalar GPSRNetworkRandom.host[0].wlan[0].mac.dcf packetReceivedFromPeerWithoutRetry:sum(packetBytes) 2844
scalar GPSRNetworkRandom.host[0].wlan[0].mac.dcf packetSentToPeer:count 39
scalar GPSRNetworkRandom.host[0].wlan[0].mac.dcf packetSentToPeer:sum(packetBytes) 3690
scalar GPSRNetworkRandom.host[0].wlan[0].mac.dcf packetSentToPeerUnicast:count 35
scalar GPSRNetworkRandom.host[0].wlan[0].mac.dcf packetSentToPeerUnicast:sum(packetBytes) 3410
scalar GPSRNetworkRandom.host[0].wlan[0].mac.dcf packetSentToPeerMulticast:count 4
scalar GPSRNetworkRandom.host[0].wlan[0].mac.dcf packetSentToPeerMulticast:sum(packetBytes) 280
scalar GPSRNetworkRandom.host[0].wlan[0].mac.dcf packetSentToPeerBroadcast:count 2
scalar GPSRNetworkRandom.host[0].wlan[0].mac.dcf packetSentToPeerBroadcast:sum(packetBytes) 128
scalar GPSRNetworkRandom.host[0].wlan[0].mac.dcf packetSentToPeerWithRetry:count 0
scalar GPSRNetworkRandom.host[0].wlan[0].mac.dcf packetSentToPeerWithRetry:sum(packetBytes) 0
scalar GPSRNetworkRandom.host[0].wlan[0].mac.dcf packetSentToPeerWithoutRetry:count 39
scalar GPSRNetworkRandom.host[0].wlan[0].mac.dcf packetSentToPeerWithoutRetry:sum(packetBytes) 3690
scalar GPSRNetworkRandom.host[0].wlan[0].mac.dcf packetDrop:count 43
scalar GPSRNetworkRandom.host[0].wlan[0].mac.dcf packetDrop:sum(packetBytes) 4106
scalar GPSRNetworkRandom.host[0].wlan[0].mac.dcf packetDropNotAddressedToUs:count 43
scalar GPSRNetworkRandom.host[0].wlan[0].mac.dcf packetDropNotAddressedToUs:sum(packetBytes) 4106
scalar GPSRNetworkRandom.host[0].wlan[0].mac.dcf packetDropQueueOverflow:count 0
scalar GPSRNetworkRandom.host[0].wlan[0].mac.dcf packetDropQueueOverflow:sum(packetBytes) 0
scalar GPSRNetworkRandom.host[0].wlan[0].mac.dcf packetDropRetryLimitReached:count 0
scalar GPSRNetworkRandom.host[0].wlan[0].mac.dcf packetDropRetryLimitReached:sum(packetBytes) 0
scalar GPSRNetworkRandom.host[0].wlan[0].mac.dcf linkBroken:count 0
scalar GPSRNetworkRandom.host[0].wlan[0].mac packetReceivedFromLower:count 83
scalar GPSRNetworkRandom.host[0].wlan[0].mac packetReceivedFromLower:sum(packetBytes) 6950
scalar GPSRNetworkRandom.host[0].wlan[0].mac packetSentToLower:count 39
scalar GPSRNetworkRandom.host[0].wlan[0].mac packetSentToLower:sum(packetBytes) 3690
scalar GPSRNetworkRandom.host[0].wlan[0].mac packetReceivedFromUpper:count 24
scalar GPSRNetworkRandom.host[0].wlan[0].mac packetReceivedFromUpper:sum(packetBytes) 2808
scalar GPSRNetworkRandom.host[0].wlan[0].mac packetSentToUpper:count 20
scalar GPSRNetworkRandom.host[0].wlan[0].mac packetSentToUpper:sum(packetBytes) 2004
scalar GPSRNetworkRandom.host[0].wlan[0].mac packetDrop:count 43
scalar GPSRNetworkRandom.host[0].wlan[0].mac packetDrop:sum(packetBytes) 4106
scalar GPSRNetworkRandom.host[0].wlan[0].mac packetDropIncorrectlyReceived:count 0
scalar GPSRNetworkRandom.host[0].wlan[0].mac packetDropIncorrectlyReceived:sum(packetBytes) 0
scalar GPSRNetworkRandom.host[0].wlan[0].mac packetDropNotAddressedToUs:count 43
scalar GPSRNetworkRandom.host[0].wlan[0].mac packetDropNotAddressedToUs:sum(packetBytes) 4106
scalar GPSRNetworkRandom.host[0].wlan[0].mac packetDropQueueOverflow:count 0
scalar GPSRNetworkRandom.host[0].wlan[0].mac packetDropQueueOverflow:sum(packetBytes) 0
scalar GPSRNetworkRandom.host[0].wlan[0].mac packetDropRetryLimitReached:count 0
scalar GPSRNetworkRandom.host[0].wlan[0].mac packetDropRetryLimitReached:sum(packetBytes) 0
scalar GPSRNetworkRandom.host[0].wlan[0].mac packetDropDuplicateDetected:count 0
scalar GPSRNetworkRandom.host[0].wlan[0].mac packetDropDuplicateDetected:sum(packetBytes) 0
scalar GPSRNetworkRandom.host[0].wlan[0].mac packetDropOther:count 0
scalar GPSRNetworkRandom.host[0].wlan[0].mac packetDropOther:sum(packetBytes) 0
scalar GPSRNetworkRandom.host[0].wlan[0].mac linkBroken:count 0
scalar GPSRNetworkRandom.host[0].wlan[0].radio radioMode:count 81
scalar GPSRNetworkRandom.host[0].wlan[0].radio receptionState:count 245
scalar GPSRNetworkRandom.host[0].wlan[0].radio transmissionState:count 156
scalar GPSRNetworkRandom.host[0].wlan[0] packetDropInterfaceDown:count 0
scalar GPSRNetworkRandom.host[0].wlan[0] packetDropInterfaceDown:sum(packetBytes) 0
scalar GPSRNetworkRandom.host[0].wlan[0] packetDropNoCarrier:count 0
scalar GPSRNetworkRandom.host[0].wlan[0] packetDropNoCarrier:sum(packetBytes) 0
scalar GPSRNetworkRandom.host[0].ipv4.ip packetDropAddressResolutionFailed:count 0
scalar GPSRNetworkRandom.host[0].ipv4.ip packetDropAddressResolutionFailed:sum(packetBytes) 0
scalar GPSRNetworkRandom.host[0].ipv4.ip packetDropHopLimitReached:count 0
scalar GPSRNetworkRandom.host[0].ipv4.ip packetDropHopLimitReached:sum(packetBytes) 0
scalar GPSRNetworkRandom.host[0].ipv4.ip packetDropForwardingDisabled:count 0
scalar GPSRNetworkRandom.host[0].ipv4.ip packetDropForwardingDisabled:sum(packetBytes) 0
scalar GPSRNetworkRandom.host[0].ipv4.ip packetDropLifetimeExpired:count 0
scalar GPSRNetworkRandom.host[0].ipv4.ip packetDropLifetimeExpired:sum(packetBytes) 0
scalar GPSRNetworkRandom.host[0].ipv4.ip packetDropNoInterfaceFound:count 0
scalar GPSRNetworkRandom.host[0].ipv4.ip packetDropNoInterfaceFound:sum(packetBytes) 0
scalar GPSRNetworkRandom.host[0].ipv4.ip packetDropNoRouteFound:count 0
scalar GPSRNetworkRandom.host[0].ipv4.ip packetDropNoRouteFound:sum(packetBytes) 0
scalar GPSRNetworkRandom.host[0].ipv4.ip packetDropUndefined:count 0
scalar GPSRNetworkRandom.host[0].ipv4.ip packetDropUndefined:sum(packetBytes) 0
scalar GPSRNetworkRandom.host[0].ipv4.arp arpResolutionFailed:count 0
scalar GPSRNetworkRandom.host[0].ipv4.arp arpResolutionCompleted:count 4
scalar GPSRNetworkRandom.host[0].ipv4.arp arpResolutionInitiated:count 2
scalar GPSRNetworkRandom.host[0].ipv4.arp arpReplySent:count 0
scalar GPSRNetworkRandom.host[0].ipv4.arp arpReplySent:sum(packetBytes) 0
scalar GPSRNetworkRandom.host[0].ipv4.arp arpRequestSent:count 2
scalar GPSRNetworkRandom.host[0].ipv4.arp arpRequestSent:sum(packetBytes) 56
scalar GPSRNetworkRandom.host[0].udp packetReceived:count 0
scalar GPSRNetworkRandom.host[0].udp packetReceived:sum(packetBytes) 0
scalar GPSRNetworkRandom.host[0].udp packetSent:count 0
scalar GPSRNetworkRandom.host[0].udp packetSent:sum(packetBytes) 0
scalar GPSRNetworkRandom.host[0].udp passedUpPk:count 0
scalar GPSRNetworkRandom.host[0].udp droppedPkWrongPort:count 0
scalar GPSRNetworkRandom.host[0].udp droppedPkBadChecksum:count 0
scalar GPSRNetworkRandom.host[0].app[0] "Pings sent" 17
scalar GPSRNetworkRandom.host[0].app[0] "ping loss rate (%)" 58.823529411764703
scalar GPSRNetworkRandom.host[0].app[0] "ping out-of-order rate (%)" 0
scalar GPSRNetworkRandom.host[0].app[0] pingRxSeq:count 7
scalar GPSRNetworkRandom.host[0].app[0] pingTxSeq:count 17
scalar GPSRNetworkRandom.host[0].app[0] numOutOfOrderArrivals:last nan
scalar GPSRNetworkRandom.host[0].app[0] numLost:last 10
scalar GPSRNetworkRandom.host[1].lo[0].lo rcvdPkFromHl:count 0
scalar GPSRNetworkRandom.host[1].lo[0].lo rcvdPkFromHl:sum(packetBytes) 0
scalar GPSRNetworkRandom.host[1].lo[0].lo passedUpPk:count 0
scalar GPSRNetworkRandom.host[1].lo[0].lo passedUpPk:sum(packetBytes) 0
scalar GPSRNetworkRandom.host[1].lo[0] packetDropInterfaceDown:count 0
scalar GPSRNetworkRandom.host[1].lo[0] packetDropInterfaceDown:sum(packetBytes) 0
scalar GPSRNetworkRandom.host[1].lo[0] packetDropNoCarrier:count 0
scalar GPSRNetworkRandom.host[1].lo[0] packetDropNoCarrier:sum(packetBytes) 0
scalar GPSRNetworkRandom.host[1].wlan[0].mac.dcf.channelAccess.pendingQueue queueLength:last 0
scalar GPSRNetworkRandom.host[1].wlan[0].mac.dcf.channelAccess.pendingQueue queueLength:max 1
scalar GPSRNetworkRandom.host[1].wlan[0].mac.dcf.channelAccess.pendingQueue queueLength:timeavg 0.00014080000000000001
scalar GPSRNetworkRandom.host[1].wlan[0].mac.dcf.channelAccess.pendingQueue queueBitLength:last 0
scalar GPSRNetworkRandom.host[1].wlan[0].mac.dcf.channelAccess.pendingQueue queueBitLength:max 1280
scalar GPSRNetworkRandom.host[1].wlan[0].mac.dcf.channelAccess.pendingQueue queueBitLength:timeavg 0.16947199999999998
scalar GPSRNetworkRandom.host[1].wlan[0].mac.dcf.channelAccess.pendingQueue outgoingPackets:count 10
scalar GPSRNetworkRandom.host[1].wlan[0].mac.dcf.channelAccess.pendingQueue outgoingPacketLengths:sum 10592
scalar GPSRNetworkRandom.host[1].wlan[0].mac.dcf.channelAccess.pendingQueue incomingPackets:count 10
scalar GPSRNetworkRandom.host[1].wlan[0].mac.dcf.channelAccess.pendingQueue incomingPacketLengths:sum 10592
scalar GPSRNetworkRandom.host[1].wlan[0].mac.dcf.channelAccess.pendingQueue droppedPacketsQueueOverflow:count 0
scalar GPSRNetworkRandom.host[1].wlan[0].mac.dcf.channelAccess.pendingQueue droppedPacketLengthsQueueOverflow:sum 0
scalar GPSRNetworkRandom.host[1].wlan[0].mac.dcf.channelAccess.inProgressFrames queueLength:max 1
scalar GPSRNetworkRandom.host[1].wlan[0].mac.dcf.channelAccess.inProgressFrames queueLength:timeavg 0.00047750725400000002
scalar GPSRNetworkRandom.host[1].wlan[0].mac.dcf.channelAccess.contention channelAccessGranted:count 10
scalar GPSRNetworkRandom.host[1].wlan[0].mac.dcf.channelAccess.contention stateChanged:count 290
scalar GPSRNetworkRandom.host[1].wlan[0].mac.dcf.channelAccess channelOwnershipChanged:count 20
scalar GPSRNetworkRandom.host[1].wlan[0].mac.dcf.originatorMacDataService packetAggregated:count 0
scalar GPSRNetworkRandom.host[1].wlan[0].mac.dcf.originatorMacDataService packetFragmented:count 0
scalar GPSRNetworkRandom.host[1].wlan[0].mac.dcf.recipientMacDataService packetDeaggregated:count 0
scalar GPSRNetworkRandom.host[1].wlan[0].mac.dcf.recipientMacDataService packetDefragmented:count 12
scalar GPSRNetworkRandom.host[1].wlan[0].mac.dcf.recipientMacDataService packetDropDuplicateDetected:count 0
scalar GPSRNetworkRandom.host[1].wlan[0].mac.dcf.recipientMacDataService packetDropDuplicateDetected:sum(packetBytes) 0
scalar GPSRNetworkRandom.host[1].wlan[0].mac.dcf.recoveryProcedure retryLimitReached:count 0
scalar GPSRNetworkRandom.host[1].wlan[0].mac.dcf frameSequenceFinished:count 10
scalar GPSRNetworkRandom.host[1].wlan[0].mac.dcf packetReceivedFromPeer:count 21
scalar GPSRNetworkRandom.host[1].wlan[0].mac.dcf packetReceivedFromPeer:sum(packetBytes) 1602
scalar GPSRNetworkRandom.host[1].wlan[0].mac.dcf packetReceivedFromPeerUnicast:count 16
scalar GPSRNetworkRandom.host[1].wlan[0].mac.dcf packetReceivedFromPeerUnicast:sum(packetBytes) 1246
scalar GPSRNetworkRandom.host[1].wlan[0].mac.dcf packetReceivedFromPeerMulticast:count 5
scalar GPSRNetworkRandom.host[1].wlan[0].mac.dcf packetReceivedFromPeerMulticast:sum(packetBytes) 356
scalar GPSRNetworkRandom.host[1].wlan[0].mac.dcf packetReceivedFromPeerBroadcast:count 2
scalar GPSRNetworkRandom.host[1].wlan[0].mac.dcf packetReceivedFromPeerBroadcast:sum(packetBytes) 128
scalar GPSRNetworkRandom.host[1].wlan[0].mac.dcf packetReceivedFromPeerWithRetry:count 0
scalar GPSRNetworkRandom.host[1].wlan[0].mac.dcf packetReceivedFromPeerWithRetry:sum(packetBytes) 0
scalar GPSRNetworkRandom.host[1].wlan[0].mac.dcf packetReceivedFromPeerWithoutRetry:count 21
scalar GPSRNetworkRandom.host[1].wlan[0].mac.dcf packetReceivedFromPeerWithoutRetry:sum(packetBytes) 1602
scalar GPSRNetworkRandom.host[1].wlan[0].mac.dcf packetSentToPeer:count 17
scalar GPSRNetworkRandom.host[1].wlan[0].mac.dcf packetSentToPeer:sum(packetBytes) 1422
scalar GPSRNetworkRandom.host[1].wlan[0].mac.dcf packetSentToPeerUnicast:count 16
scalar GPSRNetworkRandom.host[1].wlan[0].mac.dcf packetSentToPeerUnicast:sum(packetBytes) 1346
scalar GPSRNetworkRandom.host[1].wlan[0].mac.dcf packetSentToPeerMulticast:count 1
scalar GPSRNetworkRandom.host[1].wlan[0].mac.dcf packetSentToPeerMulticast:sum(packetBytes) 76
scalar GPSRNetworkRandom.host[1].wlan[0].mac.dcf packetSentToPeerBroadcast:count 0
scalar GPSRNetworkRandom.host[1].wlan[0].mac.dcf packetSentToPeerBroadcast:sum(packetBytes) 0
scalar GPSRNetworkRandom.host[1].wlan[0].mac.dcf packetSentToPeerWithRetry:count 0
scalar GPSRNetworkRandom.host[1].wlan[0].mac.dcf packetSentToPeerWithRetry:sum(packetBytes) 0
scalar GPSRNetworkRandom.host[1].wlan[0].mac.dcf packetSentToPeerWithoutRetry:count 17
scalar GPSRNetworkRandom.host[1].wlan[0].mac.dcf packetSentToPeerWithoutRetry:sum(packetBytes) 1422
scalar GPSRNetworkRandom.host[1].wlan[0].mac.dcf packetDrop:count 22
scalar GPSRNetworkRandom.host[1].wlan[0].mac.dcf packetDrop:sum(packetBytes) 1722
scalar GPSRNetworkRandom.host[1].wlan[0].mac.dcf packetDropNotAddressedToUs:count 22
scalar GPSRNetworkRandom.host[1].wlan[0].mac.dcf packetDropNotAddressedToUs:sum(packetBytes) 1722
scalar GPSRNetworkRandom.host[1].wlan[0].mac.dcf packetDropQueueOverflow:count 0
scalar GPSRNetworkRandom.host[1].wlan[0].mac.dcf packetDropQueueOverflow:sum(packetBytes) 0
scalar GPSRNetworkRandom.host[1].wlan[0].mac.dcf packetDropRetryLimitReached:count 0
scalar GPSRNetworkRandom.host[1].wlan[0].mac.dcf packetDropRetryLimitReached:sum(packetBytes) 0
scalar GPSRNetworkRandom.host[1].wlan[0].mac.dcf linkBroken:count 0
scalar GPSRNetworkRandom.host[1].wlan[0].mac packetReceivedFromLower:count 43
scalar GPSRNetworkRandom.host[1].wlan[0].mac packetReceivedFromLower:sum(packetBytes) 3324
scalar GPSRNetworkRandom.host[1].wlan[0].mac packetSentToLower:count 17
scalar GPSRNetworkRandom.host[1].wlan[0].mac packetSentToLower:sum(packetBytes) 1422
scalar GPSRNetworkRandom.host[1].wlan[0].mac packetReceivedFromUpper:count 10
scalar GPSRNetworkRandom.host[1].wlan[0].mac packetReceivedFromUpper:sum(packetBytes) 1044
scalar GPSRNetworkRandom.host[1].wlan[0].mac packetSentToUpper:count 12
scalar GPSRNetworkRandom.host[1].wlan[0].mac packetSentToUpper:sum(packetBytes) 1140
scalar GPSRNetworkRandom.host[1].wlan[0].mac packetDrop:count 22
scalar GPSRNetworkRandom.host[1].wlan[0].mac packetDrop:sum(packetBytes) 1722
scalar GPSRNetworkRandom.host[1].wlan[0].mac packetDropIncorrectlyReceived:count 0
scalar GPSRNetworkRandom.host[1].wlan[0].mac packetDropIncorrectlyReceived:sum(packetBytes) 0
scalar GPSRNetworkRandom.host[1].wlan[0].mac packetDropNotAddressedToUs:count 22
scalar GPSRNetworkRandom.host[1].wlan[0].mac packetDropNotAddressedToUs:sum(packetBytes) 1722
scalar GPSRNetworkRandom.host[1].wlan[0].mac packetDropQueueOverflow:count 0
scalar GPSRNetworkRandom.host[1].wlan[0].mac packetDropQueueOverflow:sum(packetBytes) 0
scalar GPSRNetworkRandom.host[1].wlan[0].mac packetDropRetryLimitReached:count 0
scalar GPSRNetworkRandom.host[1].wlan[0].mac packetDropRetryLimitReached:sum(packetBytes) 0
scalar GPSRNetworkRandom.host[1].wlan[0].mac packetDropDuplicateDetected:count 0
scalar GPSRNetworkRandom.host[1].wlan[0].mac packetDropDuplicateDetected:sum(packetBytes) 0
scalar GPSRNetworkRandom.host[1].wlan[0].mac packetDropOther:count 0
scalar GPSRNetworkRandom.host[1].wlan[0].mac packetDropOther:sum(packetBytes) 0
scalar GPSRNetworkRandom.host[1].wlan[0].mac linkBroken:count 0
scalar GPSRNetworkRandom.host[1].wlan[0].radio radioMode:count 37
scalar GPSRNetworkRandom.host[1].wlan[0].radio receptionState:count 121
scalar GPSRNetworkRandom.host[1].wlan[0].radio transmissionState:count 68
scalar GPSRNetworkRandom.host[1].wlan[0] packetDropInterfaceDown:count 0
scalar GPSRNetworkRandom.host[1].wlan[0] packetDropInterfaceDown:sum(packetBytes) 0
scalar GPSRNetworkRandom.host[1].wlan[0] packetDropNoCarrier:count 0
scalar GPSRNetworkRandom.host[1].wlan[0] packetDropNoCarrier:sum(packetBytes) 0
scalar GPSRNetworkRandom.host[1].ipv4.ip packetDropAddressResolutionFailed:count 0
scalar GPSRNetworkRandom.host[1].ipv4.ip packetDropAddressResolutionFailed:sum(packetBytes) 0
scalar GPSRNetworkRandom.host[1].ipv4.ip packetDropHopLimitReached:count 0
scalar GPSRNetworkRandom.host[1].ipv4.ip packetDropHopLimitReached:sum(packetBytes) 0
scalar GPSRNetworkRandom.host[1].ipv4.ip packetDropForwardingDisabled:count 0
scalar GPSRNetworkRandom.host[1].ipv4.ip packetDropForwardingDisabled:sum(packetBytes) 0
scalar GPSRNetworkRandom.host[1].ipv4.ip packetDropLifetimeExpired:count 0
scalar GPSRNetworkRandom.host[1].ipv4.ip packetDropLifetimeExpired:sum(packetBytes) 0
scalar GPSRNetworkRandom.host[1].ipv4.ip packetDropNoInterfaceFound:count 0
scalar GPSRNetworkRandom.host[1].ipv4.ip packetDropNoInterfaceFound:sum(packetBytes) 0
scalar GPSRNetworkRandom.host[1].ipv4.ip packetDropNoRouteFound:count 0
scalar GPSRNetworkRandom.host[1].ipv4.ip packetDropNoRouteFound:sum(packetBytes) 0
scalar GPSRNetworkRandom.host[1].ipv4.ip packetDropUndefined:count 0
scalar GPSRNetworkRandom.host[1].ipv4.ip packetDropUndefined:sum(packetBytes) 0
scalar GPSRNetworkRandom.host[1].ipv4.arp arpResolutionFailed:count 0
scalar GPSRNetworkRandom.host[1].ipv4.arp arpResolutionCompleted:count 2
scalar GPSRNetworkRandom.host[1].ipv4.arp arpResolutionInitiated:count 0
scalar GPSRNetworkRandom.host[1].ipv4.arp arpReplySent:count 2
scalar GPSRNetworkRandom.host[1].ipv4.arp arpReplySent:sum(packetBytes) 56
scalar GPSRNetworkRandom.host[1].ipv4.arp arpRequestSent:count 0
scalar GPSRNetworkRandom.host[1].ipv4.arp arpRequestSent:sum(packetBytes) 0
scalar GPSRNetworkRandom.host[1].udp packetReceived:count 0
scalar GPSRNetworkRandom.host[1].udp packetReceived:sum(packetBytes) 0
scalar GPSRNetworkRandom.host[1].udp packetSent:count 0
scalar GPSRNetworkRandom.host[1].udp packetSent:sum(packetBytes) 0
scalar GPSRNetworkRandom.host[1].udp passedUpPk:count 0
scalar GPSRNetworkRandom.host[1].udp droppedPkWrongPort:count 0
scalar GPSRNetworkRandom.host[1].udp droppedPkBadChecksum:count 0
scalar GPSRNetworkRandom.host[1].app[0] pingRxSeq:count 0
scalar GPSRNetworkRandom.host[1].app[0] pingTxSeq:count 0
scalar GPSRNetworkRandom.host[1].app[0] numOutOfOrderArrivals:last nan
scalar GPSRNetworkRandom.host[1].app[0] numLost:last nan
scalar GPSRNetworkRandom.host[2].lo[0].lo rcvdPkFromHl:count 0
scalar GPSRNetworkRandom.host[2].lo[0].lo rcvdPkFromHl:sum(packetBytes) 0
scalar GPSRNetworkRandom.host[2].lo[0].lo passedUpPk:count 0
scalar GPSRNetworkRandom.host[2].lo[0].lo passedUpPk:sum(packetBytes) 0
scalar GPSRNetworkRandom.host[2].lo[0] packetDropInterfaceDown:count 0
scalar GPSRNetworkRandom.host[2].lo[0] packetDropInterfaceDown:sum(packetBytes) 0
scalar GPSRNetworkRandom.host[2].lo[0] packetDropNoCarrier:count 0
scalar GPSRNetworkRandom.host[2].lo[0] packetDropNoCarrier:sum(packetBytes) 0
scalar GPSRNetworkRandom.host[2].wlan[0].mac.dcf.channelAccess.pendingQueue queueLength:last 0
scalar GPSRNetworkRandom.host[2].wlan[0].mac.dcf.channelAccess.pendingQueue queueLength:max 1
scalar GPSRNetworkRandom.host[2].wlan[0].mac.dcf.channelAccess.pendingQueue queueLength:timeavg 4.0299999999999997e-05
scalar GPSRNetworkRandom.host[2].wlan[0].mac.dcf.channelAccess.pendingQueue queueBitLength:last 0
scalar GPSRNetworkRandom.host[2].wlan[0].mac.dcf.channelAccess.pendingQueue queueBitLength:max 1280
scalar GPSRNetworkRandom.host[2].wlan[0].mac.dcf.channelAccess.pendingQueue queueBitLength:timeavg 0.045823999999999997
scalar GPSRNetworkRandom.host[2].wlan[0].mac.dcf.channelAccess.pendingQueue outgoingPackets:count 5
scalar GPSRNetworkRandom.host[2].wlan[0].mac.dcf.channelAccess.pendingQueue outgoingPacketLengths:sum 4288
scalar GPSRNetworkRandom.host[2].wlan[0].mac.dcf.channelAccess.pendingQueue incomingPackets:count 5
scalar GPSRNetworkRandom.host[2].wlan[0].mac.dcf.channelAccess.pendingQueue incomingPacketLengths:sum 4288
scalar GPSRNetworkRandom.host[2].wlan[0].mac.dcf.channelAccess.pendingQueue droppedPacketsQueueOverflow:count 0
scalar GPSRNetworkRandom.host[2].wlan[0].mac.dcf.channelAccess.pendingQueue droppedPacketLengthsQueueOverflow:sum 0
scalar GPSRNetworkRandom.host[2].wlan[0].mac.dcf.channelAccess.inProgressFrames queueLength:max 1
scalar GPSRNetworkRandom.host[2].wlan[0].mac.dcf.channelAccess.inProgressFrames queueLength:timeavg 0.00019407850360000001
scalar GPSRNetworkRandom.host[2].wlan[0].mac.dcf.channelAccess.contention channelAccessGranted:count 5
scalar GPSRNetworkRandom.host[2].wlan[0].mac.dcf.channelAccess.contention stateChanged:count 178
scalar GPSRNetworkRandom.host[2].wlan[0].mac.dcf.channelAccess channelOwnershipChanged:count 10
scalar GPSRNetworkRandom.host[2].wlan[0].mac.dcf.originatorMacDataService packetAggregated:count 0
scalar GPSRNetworkRandom.host[2].wlan[0].mac.dcf.originatorMacDataService packetFragmented:count 0
scalar GPSRNetworkRandom.host[2].wlan[0].mac.dcf.recipientMacDataService packetDeaggregated:count 0
scalar GPSRNetworkRandom.host[2].wlan[0].mac.dcf.recipientMacDataService packetDefragmented:count 7
scalar GPSRNetworkRandom.host[2].wlan[0].mac.dcf.recipientMacDataService packetDropDuplicateDetected:count 0
scalar GPSRNetworkRandom.host[2].wlan[0].mac.dcf.recipientMacDataService packetDropDuplicateDetected:sum(packetBytes) 0
scalar GPSRNetworkRandom.host[2].wlan[0].mac.dcf.recoveryProcedure retryLimitReached:count 0
scalar GPSRNetworkRandom.host[2].wlan[0].mac.dcf frameSequenceFinished:count 5
scalar GPSRNetworkRandom.host[2].wlan[0].mac.dcf packetReceivedFromPeer:count 10
scalar GPSRNetworkRandom.host[2].wlan[0].mac.dcf packetReceivedFromPeer:sum(packetBytes) 718
scalar GPSRNetworkRandom.host[2].wlan[0].mac.dcf packetReceivedFromPeerUnicast:count 5
scalar GPSRNetworkRandom.host[2].wlan[0].mac.dcf packetReceivedFromPeerUnicast:sum(packetBytes) 362
scalar GPSRNetworkRandom.host[2].wlan[0].mac.dcf packetReceivedFromPeerMulticast:count 5
scalar GPSRNetworkRandom.host[2].wlan[0].mac.dcf packetReceivedFromPeerMulticast:sum(packetBytes) 356
scalar GPSRNetworkRandom.host[2].wlan[0].mac.dcf packetReceivedFromPeerBroadcast:count 2
scalar GPSRNetworkRandom.host[2].wlan[0].mac.dcf packetReceivedFromPeerBroadcast:sum(packetBytes) 128
scalar GPSRNetworkRandom.host[2].wlan[0].mac.dcf packetReceivedFromPeerWithRetry:count 0
scalar GPSRNetworkRandom.host[2].wlan[0].mac.dcf packetReceivedFromPeerWithRetry:sum(packetBytes) 0
scalar GPSRNetworkRandom.host[2].wlan[0].mac.dcf packetReceivedFromPeerWithoutRetry:count 10
scalar GPSRNetworkRandom.host[2].wlan[0].mac.dcf packetReceivedFromPeerWithoutRetry:sum(packetBytes) 718
scalar GPSRNetworkRandom.host[2].wlan[0].mac.dcf packetSentToPeer:count 7
scalar GPSRNetworkRandom.host[2].wlan[0].mac.dcf packetSentToPeer:sum(packetBytes) 564
scalar GPSRNetworkRandom.host[2].wlan[0].mac.dcf packetSentToPeerUnicast:count 5
scalar GPSRNetworkRandom.host[2].wlan[0].mac.dcf packetSentToPeerUnicast:sum(packetBytes) 412
scalar GPSRNetworkRandom.host[2].wlan[0].mac.dcf packetSentToPeerMulticast:count 2
scalar GPSRNetworkRandom.host[2].wlan[0].mac.dcf packetSentToPeerMulticast:sum(packetBytes) 152
scalar GPSRNetworkRandom.host[2].wlan[0].mac.dcf packetSentToPeerBroadcast:count 0
scalar GPSRNetworkRandom.host[2].wlan[0].mac.dcf packetSentToPeerBroadcast:sum(packetBytes) 0
scalar GPSRNetworkRandom.host[2].wlan[0].mac.dcf packetSentToPeerWithRetry:count 0
scalar GPSRNetworkRandom.host[2].wlan[0].mac.dcf packetSentToPeerWithRetry:sum(packetBytes) 0
scalar GPSRNetworkRandom.host[2].wlan[0].mac.dcf packetSentToPeerWithoutRetry:count 7
scalar GPSRNetworkRandom.host[2].wlan[0].mac.dcf packetSentToPeerWithoutRetry:sum(packetBytes) 564
scalar GPSRNetworkRandom.host[2].wlan[0].mac.dcf packetDrop:count 21
scalar GPSRNetworkRandom.host[2].wlan[0].mac.dcf packetDrop:sum(packetBytes) 1708
scalar GPSRNetworkRandom.host[2].wlan[0].mac.dcf packetDropNotAddressedToUs:count 21
scalar GPSRNetworkRandom.host[2].wlan[0].mac.dcf packetDropNotAddressedToUs:sum(packetBytes) 1708
scalar GPSRNetworkRandom.host[2].wlan[0].mac.dcf packetDropQueueOverflow:count 0
scalar GPSRNetworkRandom.host[2].wlan[0].mac.dcf packetDropQueueOverflow:sum(packetBytes) 0
scalar GPSRNetworkRandom.host[2].wlan[0].mac.dcf packetDropRetryLimitReached:count 0
scalar GPSRNetworkRandom.host[2].wlan[0].mac.dcf packetDropRetryLimitReached:sum(packetBytes) 0
scalar GPSRNetworkRandom.host[2].wlan[0].mac.dcf linkBroken:count 0
scalar GPSRNetworkRandom.host[2].wlan[0].mac packetReceivedFromLower:count 31
scalar GPSRNetworkRandom.host[2].wlan[0].mac packetReceivedFromLower:sum(packetBytes) 2426
scalar GPSRNetworkRandom.host[2].wlan[0].mac packetSentToLower:count 7
scalar GPSRNetworkRandom.host[2].wlan[0].mac packetSentToLower:sum(packetBytes) 564
scalar GPSRNetworkRandom.host[2].wlan[0].mac packetReceivedFromUpper:count 5
scalar GPSRNetworkRandom.host[2].wlan[0].mac packetReceivedFromUpper:sum(packetBytes) 396
scalar GPSRNetworkRandom.host[2].wlan[0].mac packetSentToUpper:count 7
scalar GPSRNetworkRandom.host[2].wlan[0].mac packetSentToUpper:sum(packetBytes) 480
scalar GPSRNetworkRandom.host[2].wlan[0].mac packetDrop:count 21
scalar GPSRNetworkRandom.host[2].wlan[0].mac packetDrop:sum(packetBytes) 1708
scalar GPSRNetworkRandom.host[2].wlan[0].mac packetDropIncorrectlyReceived:count 0
scalar GPSRNetworkRandom.host[2].wlan[0].mac packetDropIncorrectlyReceived:sum(packetBytes) 0
scalar GPSRNetworkRandom.host[2].wlan[0].mac packetDropNotAddressedToUs:count 21
scalar GPSRNetworkRandom.host[2].wlan[0].mac packetDropNotAddressedToUs:sum(packetBytes) 1708
scalar GPSRNetworkRandom.host[2].wlan[0].mac packetDropQueueOverflow:count 0
scalar GPSRNetworkRandom.host[2].wlan[0].mac packetDropQueueOverflow:sum(packetBytes) 0
scalar GPSRNetworkRandom.host[2].wlan[0].mac packetDropRetryLimitReached:count 0
scalar GPSRNetworkRandom.host[2].wlan[0].mac packetDropRetryLimitReached:sum(packetBytes) 0
scalar GPSRNetworkRandom.host[2].wlan[0].mac packetDropDuplicateDetected:count 0
scalar GPSRNetworkRandom.host[2].wlan[0].mac packetDropDuplicateDetected:sum(packetBytes) 0
scalar GPSRNetworkRandom.host[2].wlan[0].mac packetDropOther:count 0
scalar GPSRNetworkRandom.host[2].wlan[0].mac packetDropOther:sum(packetBytes) 0
scalar GPSRNetworkRandom.host[2].wlan[0].mac linkBroken:count 0
scalar GPSRNetworkRandom.host[2].wlan[0].radio radioMode:count 17
scalar GPSRNetworkRandom.host[2].wlan[0].radio receptionState:count 77
scalar GPSRNetworkRandom.host[2].wlan[0].radio transmissionState:count 28
scalar GPSRNetworkRandom.host[2].wlan[0] packetDropInterfaceDown:count 0
scalar GPSRNetworkRandom.host[2].wlan[0] packetDropInterfaceDown:sum(packetBytes) 0
scalar GPSRNetworkRandom.host[2].wlan[0] packetDropNoCarrier:count 0
scalar GPSRNetworkRandom.host[2].wlan[0] packetDropNoCarrier:sum(packetBytes) 0
scalar GPSRNetworkRandom.host[2].ipv4.ip packetDropAddressResolutionFailed:count 0
scalar GPSRNetworkRandom.host[2].ipv4.ip packetDropAddressResolutionFailed:sum(packetBytes) 0
scalar GPSRNetworkRandom.host[2].ipv4.ip packetDropHopLimitReached:count 0
scalar GPSRNetworkRandom.host[2].ipv4.ip packetDropHopLimitReached:sum(packetBytes) 0
scalar GPSRNetworkRandom.host[2].ipv4.ip packetDropForwardingDisabled:count 0
scalar GPSRNetworkRandom.host[2].ipv4.ip packetDropForwardingDisabled:sum(packetBytes) 0
scalar GPSRNetworkRandom.host[2].ipv4.ip packetDropLifetimeExpired:count 0
scalar GPSRNetworkRandom.host[2].ipv4.ip packetDropLifetimeExpired:sum(packetBytes) 0
scalar GPSRNetworkRandom.host[2].ipv4.ip packetDropNoInterfaceFound:count 0
scalar GPSRNetworkRandom.host[2].ipv4.ip packetDropNoInterfaceFound:sum(packetBytes) 0
scalar GPSRNetworkRandom.host[2].ipv4.ip packetDropNoRouteFound:count 0
scalar GPSRNetworkRandom.host[2].ipv4.ip packetDropNoRouteFound:sum(packetBytes) 0
scalar GPSRNetworkRandom.host[2].ipv4.ip packetDropUndefined:count 0
scalar GPSRNetworkRandom.host[2].ipv4.ip packetDropUndefined:sum(packetBytes) 0
scalar GPSRNetworkRandom.host[2].ipv4.arp arpResolutionFailed:count 0
scalar GPSRNetworkRandom.host[2].ipv4.arp arpResolutionCompleted:count 1
scalar GPSRNetworkRandom.host[2].ipv4.arp arpResolutionInitiated:count 0
scalar GPSRNetworkRandom.host[2].ipv4.arp arpReplySent:count 1
scalar GPSRNetworkRandom.host[2].ipv4.arp arpReplySent:sum(packetBytes) 28
scalar GPSRNetworkRandom.host[2].ipv4.arp arpRequestSent:count 0
scalar GPSRNetworkRandom.host[2].ipv4.arp arpRequestSent:sum(packetBytes) 0
scalar GPSRNetworkRandom.host[2].udp packetReceived:count 0
scalar GPSRNetworkRandom.host[2].udp packetReceived:sum(packetBytes) 0
scalar GPSRNetworkRandom.host[2].udp packetSent:count 0
scalar GPSRNetworkRandom.host[2].udp packetSent:sum(packetBytes) 0
scalar GPSRNetworkRandom.host[2].udp passedUpPk:count 0
scalar GPSRNetworkRandom.host[2].udp droppedPkWrongPort:count 0
scalar GPSRNetworkRandom.host[2].udp droppedPkBadChecksum:count 0
scalar GPSRNetworkRandom.host[2].app[0] pingRxSeq:count 0
scalar GPSRNetworkRandom.host[2].app[0] pingTxSeq:count 0
scalar GPSRNetworkRandom.host[2].app[0] numOutOfOrderArrivals:last nan
scalar GPSRNetworkRandom.host[2].app[0] numLost:last nan
scalar GPSRNetworkRandom.host[3].lo[0].lo rcvdPkFromHl:count 0
scalar GPSRNetworkRandom.host[3].lo[0].lo rcvdPkFromHl:sum(packetBytes) 0
scalar GPSRNetworkRandom.host[3].lo[0].lo passedUpPk:count 0
scalar GPSRNetworkRandom.host[3].lo[0].lo passedUpPk:sum(packetBytes) 0
scalar GPSRNetworkRandom.host[3].lo[0] packetDropInterfaceDown:count 0
scalar GPSRNetworkRandom.host[3].lo[0] packetDropInterfaceDown:sum(packetBytes) 0
scalar GPSRNetworkRandom.host[3].lo[0] packetDropNoCarrier:count 0
scalar GPSRNetworkRandom.host[3].lo[0] packetDropNoCarrier:sum(packetBytes) 0
scalar GPSRNetworkRandom.host[3].wlan[0].mac.dcf.channelAccess.pendingQueue queueLength:last 0
scalar GPSRNetworkRandom.host[3].wlan[0].mac.dcf.channelAccess.pendingQueue queueLength:max 1
scalar GPSRNetworkRandom.host[3].wlan[0].mac.dcf.channelAccess.pendingQueue queueLength:timeavg 0.00013479999999999997
scalar GPSRNetworkRandom.host[3].wlan[0].mac.dcf.channelAccess.pendingQueue queueBitLength:last 0
scalar GPSRNetworkRandom.host[3].wlan[0].mac.dcf.channelAccess.pendingQueue queueBitLength:max 1280
scalar GPSRNetworkRandom.host[3].wlan[0].mac.dcf.channelAccess.pendingQueue queueBitLength:timeavg 0.15380479999999999
scalar GPSRNetworkRandom.host[3].wlan[0].mac.dcf.channelAccess.pendingQueue outgoingPackets:count 11
scalar GPSRNetworkRandom.host[3].wlan[0].mac.dcf.channelAccess.pendingQueue outgoingPacketLengths:sum 10432
scalar GPSRNetworkRandom.host[3].wlan[0].mac.dcf.channelAccess.pendingQueue incomingPackets:count 11
scalar GPSRNetworkRandom.host[3].wlan[0].mac.dcf.channelAccess.pendingQueue incomingPacketLengths:sum 10432
scalar GPSRNetworkRandom.host[3].wlan[0].mac.dcf.channelAccess.pendingQueue droppedPacketsQueueOverflow:count 0
scalar GPSRNetworkRandom.host[3].wlan[0].mac.dcf.channelAccess.pendingQueue droppedPacketLengthsQueueOverflow:sum 0
scalar GPSRNetworkRandom.host[3].wlan[0].mac.dcf.channelAccess.inProgressFrames queueLength:max 1
scalar GPSRNetworkRandom.host[3].wlan[0].mac.dcf.channelAccess.inProgressFrames queueLength:timeavg 0.00047003582200000007
scalar GPSRNetworkRandom.host[3].wlan[0].mac.dcf.channelAccess.contention channelAccessGranted:count 11
scalar GPSRNetworkRandom.host[3].wlan[0].mac.dcf.channelAccess.contention stateChanged:count 938
scalar GPSRNetworkRandom.host[3].wlan[0].mac.dcf.channelAccess channelOwnershipChanged:count 22
scalar GPSRNetworkRandom.host[3].wlan[0].mac.dcf.originatorMacDataService packetAggregated:count 0
scalar GPSRNetworkRandom.host[3].wlan[0].mac.dcf.originatorMacDataService packetFragmented:count 0
scalar GPSRNetworkRandom.host[3].wlan[0].mac.dcf.recipientMacDataService packetDeaggregated:count 0
scalar GPSRNetworkRandom.host[3].wlan[0].mac.dcf.recipientMacDataService packetDefragmented:count 24
scalar GPSRNetworkRandom.host[3].wlan[0].mac.dcf.recipientMacDataService packetDropDuplicateDetected:count 0
scalar GPSRNetworkRandom.host[3].wlan[0].mac.dcf.recipientMacDataService packetDropDuplicateDetected:sum(packetBytes) 0
scalar GPSRNetworkRandom.host[3].wlan[0].mac.dcf.recoveryProcedure retryLimitReached:count 0
scalar GPSRNetworkRandom.host[3].wlan[0].mac.dcf frameSequenceFinished:count 11
scalar GPSRNetworkRandom.host[3].wlan[0].mac.dcf packetReceivedFromPeer:count 32
scalar GPSRNetworkRandom.host[3].wlan[0].mac.dcf packetReceivedFromPeer:sum(packetBytes) 2332
scalar GPSRNetworkRandom.host[3].wlan[0].mac.dcf packetReceivedFromPeerUnicast:count 15
scalar GPSRNetworkRandom.host[3].wlan[0].mac.dcf packetReceivedFromPeerUnicast:sum(packetBytes) 1136
scalar GPSRNetworkRandom.host[3].wlan[0].mac.dcf packetReceivedFromPeerMulticast:count 17
scalar GPSRNetworkRandom.host[3].wlan[0].mac.dcf packetReceivedFromPeerMulticast:sum(packetBytes) 1196
scalar GPSRNetworkRandom.host[3].wlan[0].mac.dcf packetReceivedFromPeerBroadcast:count 8
scalar GPSRNetworkRandom.host[3].wlan[0].mac.dcf packetReceivedFromPeerBroadcast:sum(packetBytes) 512
scalar GPSRNetworkRandom.host[3].wlan[0].mac.dcf packetReceivedFromPeerWithRetry:count 0
scalar GPSRNetworkRandom.host[3].wlan[0].mac.dcf packetReceivedFromPeerWithRetry:sum(packetBytes) 0
scalar GPSRNetworkRandom.host[3].wlan[0].mac.dcf packetReceivedFromPeerWithoutRetry:count 32
scalar GPSRNetworkRandom.host[3].wlan[0].mac.dcf packetReceivedFromPeerWithoutRetry:sum(packetBytes) 2332
scalar GPSRNetworkRandom.host[3].wlan[0].mac.dcf packetSentToPeer:count 18
scalar GPSRNetworkRandom.host[3].wlan[0].mac.dcf packetSentToPeer:sum(packetBytes) 1402
scalar GPSRNetworkRandom.host[3].wlan[0].mac.dcf packetSentToPeerUnicast:count 15
scalar GPSRNetworkRandom.host[3].wlan[0].mac.dcf packetSentToPeerUnicast:sum(packetBytes) 1186
scalar GPSRNetworkRandom.host[3].wlan[0].mac.dcf packetSentToPeerMulticast:count 3
scalar GPSRNetworkRandom.host[3].wlan[0].mac.dcf packetSentToPeerMulticast:sum(packetBytes) 216
scalar GPSRNetworkRandom.host[3].wlan[0].mac.dcf packetSentToPeerBroadcast:count 1
scalar GPSRNetworkRandom.host[3].wlan[0].mac.dcf packetSentToPeerBroadcast:sum(packetBytes) 64
scalar GPSRNetworkRandom.host[3].wlan[0].mac.dcf packetSentToPeerWithRetry:count 0
scalar GPSRNetworkRandom.host[3].wlan[0].mac.dcf packetSentToPeerWithRetry:sum(packetBytes) 0
scalar GPSRNetworkRandom.host[3].wlan[0].mac.dcf packetSentToPeerWithoutRetry:count 18
scalar GPSRNetworkRandom.host[3].wlan[0].mac.dcf packetSentToPeerWithoutRetry:sum(packetBytes) 1402
scalar GPSRNetworkRandom.host[3].wlan[0].mac.dcf packetDrop:count 151
scalar GPSRNetworkRandom.host[3].wlan[0].mac.dcf packetDrop:sum(packetBytes) 12534
scalar GPSRNetworkRandom.host[3].wlan[0].mac.dcf packetDropNotAddressedToUs:count 151
scalar GPSRNetworkRandom.host[3].wlan[0].mac.dcf packetDropNotAddressedToUs:sum(packetBytes) 12534
scalar GPSRNetworkRandom.host[3].wlan[0].mac.dcf packetDropQueueOverflow:count 0
scalar GPSRNetworkRandom.host[3].wlan[0].mac.dcf packetDropQueueOverflow:sum(packetBytes) 0
scalar GPSRNetworkRandom.host[3].wlan[0].mac.dcf packetDropRetryLimitReached:count 0
scalar GPSRNetworkRandom.host[3].wlan[0].mac.dcf packetDropRetryLimitReached:sum(packetBytes) 0
scalar GPSRNetworkRandom.host[3].wlan[0].mac.dcf linkBroken:count 0
scalar GPSRNetworkRandom.host[3].wlan[0].mac packetReceivedFromLower:count 183
scalar GPSRNetworkRandom.host[3].wlan[0].mac packetReceivedFromLower:sum(packetBytes) 14866
scalar GPSRNetworkRandom.host[3].wlan[0].mac packetSentToLower:count 18
scalar GPSRNetworkRandom.host[3].wlan[0].mac packetSentToLower:sum(packetBytes) 1402
scalar GPSRNetworkRandom.host[3].wlan[0].mac packetReceivedFromUpper:count 11
scalar GPSRNetworkRandom.host[3].wlan[0].mac packetReceivedFromUpper:sum(packetBytes) 996
scalar GPSRNetworkRandom.host[3].wlan[0].mac packetSentToUpper:count 24
scalar GPSRNetworkRandom.host[3].wlan[0].mac packetSentToUpper:sum(packetBytes) 1548
scalar GPSRNetworkRandom.host[3].wlan[0].mac packetDrop:count 151
scalar GPSRNetworkRandom.host[3].wlan[0].mac packetDrop:sum(packetBytes) 12534
scalar GPSRNetworkRandom.host[3].wlan[0].mac packetDropIncorrectlyReceived:count 0
scalar GPSRNetworkRandom.host[3].wlan[0].mac packetDropIncorrectlyReceived:sum(packetBytes) 0
scalar GPSRNetworkRandom.host[3].wlan[0].mac packetDropNotAddressedToUs:count 151
scalar GPSRNetworkRandom.host[3].wlan[0].mac packetDropNotAddressedToUs:sum(packetBytes) 12534
scalar GPSRNetworkRandom.host[3].wlan[0].mac packetDropQueueOverflow:count 0
scalar GPSRNetworkRandom.host[3].wlan[0].mac packetDropQueueOverflow:sum(packetBytes) 0
scalar GPSRNetworkRandom.host[3].wlan[0].mac packetDropRetryLimitReached:count 0
scalar GPSRNetworkRandom.host[3].wlan[0].mac packetDropRetryLimitReached:sum(packetBytes) 0
scalar GPSRNetworkRandom.host[3].wlan[0].mac packetDropDuplicateDetected:count 0
scalar GPSRNetworkRandom.host[3].wlan[0].mac packetDropDuplicateDetected:sum(packetBytes) 0
scalar GPSRNetworkRandom.host[3].wlan[0].mac packetDropOther:count 0
scalar GPSRNetworkRandom.host[3].wlan[0].mac packetDropOther:sum(packetBytes) 0
scalar GPSRNetworkRandom.host[3].wlan[0].mac linkBroken:count 0
scalar GPSRNetworkRandom.host[3].wlan[0].radio radioMode:count 39
scalar GPSRNetworkRandom.host[3].wlan[0].radio receptionState:count 403
scalar GPSRNetworkRandom.host[3].wlan[0].radio transmissionState:count 72
scalar GPSRNetworkRandom.host[3].wlan[0] packetDropInterfaceDown:count 0
scalar GPSRNetworkRandom.host[3].wlan[0] packetDropInterfaceDown:sum(packetBytes) 0
scalar GPSRNetworkRandom.host[3].wlan[0] packetDropNoCarrier:count 0
scalar GPSRNetworkRandom.host[3].wlan[0] packetDropNoCarrier:sum(packetBytes) 0
scalar GPSRNetworkRandom.host[3].ipv4.ip packetDropAddressResolutionFailed:count 0
scalar GPSRNetworkRandom.host[3].ipv4.ip packetDropAddressResolutionFailed:sum(packetBytes) 0
scalar GPSRNetworkRandom.host[3].ipv4.ip packetDropHopLimitReached:count 0
scalar GPSRNetworkRandom.host[3].ipv4.ip packetDropHopLimitReached:sum(packetBytes) 0
scalar GPSRNetworkRandom.host[3].ipv4.ip packetDropForwardingDisabled:count 0
scalar GPSRNetworkRandom.host[3].ipv4.ip packetDropForwardingDisabled:sum(packetBytes) 0
scalar GPSRNetworkRandom.host[3].ipv4.ip packetDropLifetimeExpired:count 0
scalar GPSRNetworkRandom.host[3].ipv4.ip packetDropLifetimeExpired:sum(packetBytes) 0
scalar GPSRNetworkRandom.host[3].ipv4.ip packetDropNoInterfaceFound:count 0
scalar GPSRNetworkRandom.host[3].ipv4.ip packetDropNoInterfaceFound:sum(packetBytes) 0
scalar GPSRNetworkRandom.host[3].ipv4.ip packetDropNoRouteFound:count 0
scalar GPSRNetworkRandom.host[3].ipv4.ip packetDropNoRouteFound:sum(packetBytes) 0
scalar GPSRNetworkRandom.host[3].ipv4.ip packetDropUndefined:count 0
scalar GPSRNetworkRandom.host[3].ipv4.ip packetDropUndefined:sum(packetBytes) 0
scalar GPSRNetworkRandom.host[3].ipv4.arp arpResolutionFailed:count 0
scalar GPSRNetworkRandom.host[3].ipv4.arp arpResolutionCompleted:count 5
scalar GPSRNetworkRandom.host[3].ipv4.arp arpResolutionInitiated:count 1
scalar GPSRNetworkRandom.host[3].ipv4.arp arpReplySent:count 2
scalar GPSRNetworkRandom.host[3].ipv4.arp arpReplySent:sum(packetBytes) 56
scalar GPSRNetworkRandom.host[3].ipv4.arp arpRequestSent:count 1
scalar GPSRNetworkRandom.host[3].ipv4.arp arpRequestSent:sum(packetBytes) 28
scalar GPSRNetworkRandom.host[3].udp packetReceived:count 0
scalar GPSRNetworkRandom.host[3].udp packetReceived:sum(packetBytes) 0
scalar GPSRNetworkRandom.host[3].udp packetSent:count 0
scalar GPSRNetworkRandom.host[3].udp packetSent:sum(packetBytes) 0
scalar GPSRNetworkRandom.host[3].udp passedUpPk:count 0
scalar GPSRNetworkRandom.host[3].udp droppedPkWrongPort:count 0
scalar GPSRNetworkRandom.host[3].udp droppedPkBadChecksum:count 0
scalar GPSRNetworkRandom.host[3].app[0] pingRxSeq:count 0
scalar GPSRNetworkRandom.host[3].app[0] pingTxSeq:count 0
scalar GPSRNetworkRandom.host[3].app[0] numOutOfOrderArrivals:last nan
scalar GPSRNetworkRandom.host[3].app[0] numLost:last nan
scalar GPSRNetworkRandom.host[4].lo[0].lo rcvdPkFromHl:count 0
scalar GPSRNetworkRandom.host[4].lo[0].lo rcvdPkFromHl:sum(packetBytes) 0
scalar GPSRNetworkRandom.host[4].lo[0].lo passedUpPk:count 0
scalar GPSRNetworkRandom.host[4].lo[0].lo passedUpPk:sum(packetBytes) 0
scalar GPSRNetworkRandom.host[4].lo[0] packetDropInterfaceDown:count 0
scalar GPSRNetworkRandom.host[4].lo[0] packetDropInterfaceDown:sum(packetBytes) 0
scalar GPSRNetworkRandom.host[4].lo[0] packetDropNoCarrier:count 0
scalar GPSRNetworkRandom.host[4].lo[0] packetDropNoCarrier:sum(packetBytes) 0
scalar GPSRNetworkRandom.host[4].wlan[0].mac.dcf.channelAccess.pendingQueue queueLength:last 0
scalar GPSRNetworkRandom.host[4].wlan[0].mac.dcf.channelAccess.pendingQueue queueLength:max 1
scalar GPSRNetworkRandom.host[4].wlan[0].mac.dcf.channelAccess.pendingQueue queueLength:timeavg 9.5500000000000017e-05
scalar GPSRNetworkRandom.host[4].wlan[0].mac.dcf.channelAccess.pendingQueue queueBitLength:last 0
scalar GPSRNetworkRandom.host[4].wlan[0].mac.dcf.channelAccess.pendingQueue queueBitLength:max 1280
scalar GPSRNetworkRandom.host[4].wlan[0].mac.dcf.channelAccess.pendingQueue queueBitLength:timeavg 0.10234879999999999
scalar GPSRNetworkRandom.host[4].wlan[0].mac.dcf.channelAccess.pendingQueue outgoingPackets:count 7
scalar GPSRNetworkRandom.host[4].wlan[0].mac.dcf.channelAccess.pendingQueue outgoingPacketLengths:sum 6752
scalar GPSRNetworkRandom.host[4].wlan[0].mac.dcf.channelAccess.pendingQueue incomingPackets:count 7
scalar GPSRNetworkRandom.host[4].wlan[0].mac.dcf.channelAccess.pendingQueue incomingPacketLengths:sum 6752
scalar GPSRNetworkRandom.host[4].wlan[0].mac.dcf.channelAccess.pendingQueue droppedPacketsQueueOverflow:count 0
scalar GPSRNetworkRandom.host[4].wlan[0].mac.dcf.channelAccess.pendingQueue droppedPacketLengthsQueueOverflow:sum 0
scalar GPSRNetworkRandom.host[4].wlan[0].mac.dcf.channelAccess.inProgressFrames queueLength:max 1
scalar GPSRNetworkRandom.host[4].wlan[0].mac.dcf.channelAccess.inProgressFrames queueLength:timeavg 0.00030088061739999995
scalar GPSRNetworkRandom.host[4].wlan[0].mac.dcf.channelAccess.contention channelAccessGranted:count 7
scalar GPSRNetworkRandom.host[4].wlan[0].mac.dcf.channelAccess.contention stateChanged:count 442
scalar GPSRNetworkRandom.host[4].wlan[0].mac.dcf.channelAccess channelOwnershipChanged:count 14
scalar GPSRNetworkRandom.host[4].wlan[0].mac.dcf.originatorMacDataService packetAggregated:count 0
scalar GPSRNetworkRandom.host[4].wlan[0].mac.dcf.originatorMacDataService packetFragmented:count 0
scalar GPSRNetworkRandom.host[4].wlan[0].mac.dcf.recipientMacDataService packetDeaggregated:count 0
scalar GPSRNetworkRandom.host[4].wlan[0].mac.dcf.recipientMacDataService packetDefragmented:count 14
scalar GPSRNetworkRandom.host[4].wlan[0].mac.dcf.recipientMacDataService packetDropDuplicateDetected:count 0
scalar GPSRNetworkRandom.host[4].wlan[0].mac.dcf.recipientMacDataService packetDropDuplicateDetected:sum(packetBytes) 0
scalar GPSRNetworkRandom.host[4].wlan[0].mac.dcf.recoveryProcedure retryLimitReached:count 0
scalar GPSRNetworkRandom.host[4].wlan[0].mac.dcf frameSequenceFinished:count 7
scalar GPSRNetworkRandom.host[4].wlan[0].mac.dcf packetReceivedFromPeer:count 19
scalar GPSRNetworkRandom.host[4].wlan[0].mac.dcf packetReceivedFromPeer:sum(packetBytes) 1602
scalar GPSRNetworkRandom.host[4].wlan[0].mac.dcf packetReceivedFromPeerUnicast:count 12
scalar GPSRNetworkRandom.host[4].wlan[0].mac.dcf packetReceivedFromPeerUnicast:sum(packetBytes) 1094
scalar GPSRNetworkRandom.host[4].wlan[0].mac.dcf packetReceivedFromPeerMulticast:count 7
scalar GPSRNetworkRandom.host[4].wlan[0].mac.dcf packetReceivedFromPeerMulticast:sum(packetBytes) 508
scalar GPSRNetworkRandom.host[4].wlan[0].mac.dcf packetReceivedFromPeerBroadcast:count 2
scalar GPSRNetworkRandom.host[4].wlan[0].mac.dcf packetReceivedFromPeerBroadcast:sum(packetBytes) 128
scalar GPSRNetworkRandom.host[4].wlan[0].mac.dcf packetReceivedFromPeerWithRetry:count 0
scalar GPSRNetworkRandom.host[4].wlan[0].mac.dcf packetReceivedFromPeerWithRetry:sum(packetBytes) 0
scalar GPSRNetworkRandom.host[4].wlan[0].mac.dcf packetReceivedFromPeerWithoutRetry:count 19
scalar GPSRNetworkRandom.host[4].wlan[0].mac.dcf packetReceivedFromPeerWithoutRetry:sum(packetBytes) 1602
scalar GPSRNetworkRandom.host[4].wlan[0].mac.dcf packetSentToPeer:count 14
scalar GPSRNetworkRandom.host[4].wlan[0].mac.dcf packetSentToPeer:sum(packetBytes) 942
scalar GPSRNetworkRandom.host[4].wlan[0].mac.dcf packetSentToPeerUnicast:count 12
scalar GPSRNetworkRandom.host[4].wlan[0].mac.dcf packetSentToPeerUnicast:sum(packetBytes) 802
scalar GPSRNetworkRandom.host[4].wlan[0].mac.dcf packetSentToPeerMulticast:count 2
scalar GPSRNetworkRandom.host[4].wlan[0].mac.dcf packetSentToPeerMulticast:sum(packetBytes) 140
scalar GPSRNetworkRandom.host[4].wlan[0].mac.dcf packetSentToPeerBroadcast:count 1
scalar GPSRNetworkRandom.host[4].wlan[0].mac.dcf packetSentToPeerBroadcast:sum(packetBytes) 64
scalar GPSRNetworkRandom.host[4].wlan[0].mac.dcf packetSentToPeerWithRetry:count 0
scalar GPSRNetworkRandom.host[4].wlan[0].mac.dcf packetSentToPeerWithRetry:sum(packetBytes) 0
scalar GPSRNetworkRandom.host[4].wlan[0].mac.dcf packetSentToPeerWithoutRetry:count 14
scalar GPSRNetworkRandom.host[4].wlan[0].mac.dcf packetSentToPeerWithoutRetry:sum(packetBytes) 942
scalar GPSRNetworkRandom.host[4].wlan[0].mac.dcf packetDrop:count 60
scalar GPSRNetworkRandom.host[4].wlan[0].mac.dcf packetDrop:sum(packetBytes) 4640
scalar GPSRNetworkRandom.host[4].wlan[0].mac.dcf packetDropNotAddressedToUs:count 60
scalar GPSRNetworkRandom.host[4].wlan[0].mac.dcf packetDropNotAddressedToUs:sum(packetBytes) 4640
scalar GPSRNetworkRandom.host[4].wlan[0].mac.dcf packetDropQueueOverflow:count 0
scalar GPSRNetworkRandom.host[4].wlan[0].mac.dcf packetDropQueueOverflow:sum(packetBytes) 0
scalar GPSRNetworkRandom.host[4].wlan[0].mac.dcf packetDropRetryLimitReached:count 0
scalar GPSRNetworkRandom.host[4].wlan[0].mac.dcf packetDropRetryLimitReached:sum(packetBytes) 0
scalar GPSRNetworkRandom.host[4].wlan[0].mac.dcf linkBroken:count 0
scalar GPSRNetworkRandom.host[4].wlan[0].mac packetReceivedFromLower:count 79
scalar GPSRNetworkRandom.host[4].wlan[0].mac packetReceivedFromLower:sum(packetBytes) 6242
scalar GPSRNetworkRandom.host[4].wlan[0].mac packetSentToLower:count 14
scalar GPSRNetworkRandom.host[4].wlan[0].mac packetSentToLower:sum(packetBytes) 942
scalar GPSRNetworkRandom.host[4].wlan[0].mac packetReceivedFromUpper:count 7
scalar GPSRNetworkRandom.host[4].wlan[0].mac packetReceivedFromUpper:sum(packetBytes) 648
scalar GPSRNetworkRandom.host[4].wlan[0].mac packetSentToUpper:count 14
scalar GPSRNetworkRandom.host[4].wlan[0].mac packetSentToUpper:sum(packetBytes) 1140
scalar GPSRNetworkRandom.host[4].wlan[0].mac packetDrop:count 60
scalar GPSRNetworkRandom.host[4].wlan[0].mac packetDrop:sum(packetBytes) 4640
scalar GPSRNetworkRandom.host[4].wlan[0].mac packetDropIncorrectlyReceived:count 0
scalar GPSRNetworkRandom.host[4].wlan[0].mac packetDropIncorrectlyReceived:sum(packetBytes) 0
scalar GPSRNetworkRandom.host[4].wlan[0].mac packetDropNotAddressedToUs:count 60
scalar GPSRNetworkRandom.host[4].wlan[0].mac packetDropNotAddressedToUs:sum(packetBytes) 4640
scalar GPSRNetworkRandom.host[4].wlan[0].mac packetDropQueueOverflow:count 0
scalar GPSRNetworkRandom.host[4].wlan[0].mac packetDropQueueOverflow:sum(packetBytes) 0
scalar GPSRNetworkRandom.host[4].wlan[0].mac packetDropRetryLimitReached:count 0
scalar GPSRNetworkRandom.host[4].wlan[0].mac packetDropRetryLimitReached:sum(packetBytes) 0
scalar GPSRNetworkRandom.host[4].wlan[0].mac packetDropDuplicateDetected:count 0
scalar GPSRNetworkRandom.host[4].wlan[0].mac packetDropDuplicateDetected:sum(packetBytes) 0
scalar GPSRNetworkRandom.host[4].wlan[0].mac packetDropOther:count 0
scalar GPSRNetworkRandom.host[4].wlan[0].mac packetDropOther:sum(packetBytes) 0
scalar GPSRNetworkRandom.host[4].wlan[0].mac linkBroken:count 0
scalar GPSRNetworkRandom.host[4].wlan[0].radio radioMode:count 31
scalar GPSRNetworkRandom.host[4].wlan[0].radio receptionState:count 187
scalar GPSRNetworkRandom.host[4].wlan[0].radio transmissionState:count 56
scalar GPSRNetworkRandom.host[4].wlan[0] packetDropInterfaceDown:count 0
scalar GPSRNetworkRandom.host[4].wlan[0] packetDropInterfaceDown:sum(packetBytes) 0
scalar GPSRNetworkRandom.host[4].wlan[0] packetDropNoCarrier:count 0
scalar GPSRNetworkRandom.host[4].wlan[0] packetDropNoCarrier:sum(packetBytes) 0
scalar GPSRNetworkRandom.host[4].ipv4.ip packetDropAddressResolutionFailed:count 0
scalar GPSRNetworkRandom.host[4].ipv4.ip packetDropAddressResolutionFailed:sum(packetBytes) 0
scalar GPSRNetworkRandom.host[4].ipv4.ip packetDropHopLimitReached:count 0
scalar GPSRNetworkRandom.host[4].ipv4.ip packetDropHopLimitReached:sum(packetBytes) 0
scalar GPSRNetworkRandom.host[4].ipv4.ip packetDropForwardingDisabled:count 0
scalar GPSRNetworkRandom.host[4].ipv4.ip packetDropForwardingDisabled:sum(packetBytes) 0
scalar GPSRNetworkRandom.host[4].ipv4.ip packetDropLifetimeExpired:count 0
scalar GPSRNetworkRandom.host[4].ipv4.ip packetDropLifetimeExpired:sum(packetBytes) 0
scalar GPSRNetworkRandom.host[4].ipv4.ip packetDropNoInterfaceFound:count 0
scalar GPSRNetworkRandom.host[4].ipv4.ip packetDropNoInterfaceFound:sum(packetBytes) 0
scalar GPSRNetworkRandom.host[4].ipv4.ip packetDropNoRouteFound:count 0
scalar GPSRNetworkRandom.host[4].ipv4.ip packetDropNoRouteFound:sum(packetBytes) 0
scalar GPSRNetworkRandom.host[4].ipv4.ip packetDropUndefined:count 0
scalar GPSRNetworkRandom.host[4].ipv4.ip packetDropUndefined:sum(packetBytes) 0
scalar GPSRNetworkRandom.host[4].ipv4.arp arpResolutionFailed:count 0
scalar GPSRNetworkRandom.host[4].ipv4.arp arpResolutionCompleted:count 2
scalar GPSRNetworkRandom.host[4].ipv4.arp arpResolutionInitiated:count 1
scalar GPSRNetworkRandom.host[4].ipv4.arp arpReplySent:count 1
scalar GPSRNetworkRandom.host[4].ipv4.arp arpReplySent:sum(packetBytes) 28
scalar GPSRNetworkRandom.host[4].ipv4.arp arpRequestSent:count 1
scalar GPSRNetworkRandom.host[4].ipv4.arp arpRequestSent:sum(packetBytes) 28
scalar GPSRNetworkRandom.host[4].udp packetReceived:count 0
scalar GPSRNetworkRandom.host[4].udp packetReceived:sum(packetBytes) 0
scalar GPSRNetworkRandom.host[4].udp packetSent:count 0
scalar GPSRNetworkRandom.host[4].udp packetSent:sum(packetBytes) 0
scalar GPSRNetworkRandom.host[4].udp passedUpPk:count 0
scalar GPSRNetworkRandom.host[4].udp droppedPkWrongPort:count 0
scalar GPSRNetworkRandom.host[4].udp droppedPkBadChecksum:count 0
scalar GPSRNetworkRandom.host[4].app[0] pingRxSeq:count 0
scalar GPSRNetworkRandom.host[4].app[0] pingTxSeq:count 0
scalar GPSRNetworkRandom.host[4].app[0] numOutOfOrderArrivals:last nan
scalar GPSRNetworkRandom.host[4].app[0] numLost:last nan
scalar GPSRNetworkRandom.host[5].lo[0].lo rcvdPkFromHl:count 0
scalar GPSRNetworkRandom.host[5].lo[0].lo rcvdPkFromHl:sum(packetBytes) 0
scalar GPSRNetworkRandom.host[5].lo[0].lo passedUpPk:count 0
scalar GPSRNetworkRandom.host[5].lo[0].lo passedUpPk:sum(packetBytes) 0
scalar GPSRNetworkRandom.host[5].lo[0] packetDropInterfaceDown:count 0
scalar GPSRNetworkRandom.host[5].lo[0] packetDropInterfaceDown:sum(packetBytes) 0
scalar GPSRNetworkRandom.host[5].lo[0] packetDropNoCarrier:count 0
scalar GPSRNetworkRandom.host[5].lo[0] packetDropNoCarrier:sum(packetBytes) 0
scalar GPSRNetworkRandom.host[5].wlan[0].mac.dcf.channelAccess.pendingQueue queueLength:last 0
scalar GPSRNetworkRandom.host[5].wlan[0].mac.dcf.channelAccess.pendingQueue queueLength:max 1
scalar GPSRNetworkRandom.host[5].wlan[0].mac.dcf.channelAccess.pendingQueue queueLength:timeavg 0.00013630000000000001
scalar GPSRNetworkRandom.host[5].wlan[0].mac.dcf.channelAccess.pendingQueue queueBitLength:last 0
scalar GPSRNetworkRandom.host[5].wlan[0].mac.dcf.channelAccess.pendingQueue queueBitLength:max 1280
scalar GPSRNetworkRandom.host[5].wlan[0].mac.dcf.channelAccess.pendingQueue queueBitLength:timeavg 0.15610879999999999
scalar GPSRNetworkRandom.host[5].wlan[0].mac.dcf.channelAccess.pendingQueue outgoingPackets:count 9
scalar GPSRNetworkRandom.host[5].wlan[0].mac.dcf.channelAccess.pendingQueue outgoingPacketLengths:sum 9312
scalar GPSRNetworkRandom.host[5].wlan[0].mac.dcf.channelAccess.pendingQueue incomingPackets:count 9
scalar GPSRNetworkRandom.host[5].wlan[0].mac.dcf.channelAccess.pendingQueue incomingPacketLengths:sum 9312
scalar GPSRNetworkRandom.host[5].wlan[0].mac.dcf.channelAccess.pendingQueue droppedPacketsQueueOverflow:count 0
scalar GPSRNetworkRandom.host[5].wlan[0].mac.dcf.channelAccess.pendingQueue droppedPacketLengthsQueueOverflow:sum 0
scalar GPSRNetworkRandom.host[5].wlan[0].mac.dcf.channelAccess.inProgressFrames queueLength:max 1
scalar GPSRNetworkRandom.host[5].wlan[0].mac.dcf.channelAccess.inProgressFrames queueLength:timeavg 0.00040982668899999997
scalar GPSRNetworkRandom.host[5].wlan[0].mac.dcf.channelAccess.contention channelAccessGranted:count 9
scalar GPSRNetworkRandom.host[5].wlan[0].mac.dcf.channelAccess.contention stateChanged:count 314
scalar GPSRNetworkRandom.host[5].wlan[0].mac.dcf.channelAccess channelOwnershipChanged:count 18
scalar GPSRNetworkRandom.host[5].wlan[0].mac.dcf.originatorMacDataService packetAggregated:count 0
scalar GPSRNetworkRandom.host[5].wlan[0].mac.dcf.originatorMacDataService packetFragmented:count 0
scalar GPSRNetworkRandom.host[5].wlan[0].mac.dcf.recipientMacDataService packetDeaggregated:count 0
scalar GPSRNetworkRandom.host[5].wlan[0].mac.dcf.recipientMacDataService packetDefragmented:count 19
scalar GPSRNetworkRandom.host[5].wlan[0].mac.dcf.recipientMacDataService packetDropDuplicateDetected:count 0
scalar GPSRNetworkRandom.host[5].wlan[0].mac.dcf.recipientMacDataService packetDropDuplicateDetected:sum(packetBytes) 0
scalar GPSRNetworkRandom.host[5].wlan[0].mac.dcf.recoveryProcedure retryLimitReached:count 0
scalar GPSRNetworkRandom.host[5].wlan[0].mac.dcf frameSequenceFinished:count 9
scalar GPSRNetworkRandom.host[5].wlan[0].mac.dcf packetReceivedFromPeer:count 26
scalar GPSRNetworkRandom.host[5].wlan[0].mac.dcf packetReceivedFromPeer:sum(packetBytes) 1986
scalar GPSRNetworkRandom.host[5].wlan[0].mac.dcf packetReceivedFromPeerUnicast:count 14
scalar GPSRNetworkRandom.host[5].wlan[0].mac.dcf packetReceivedFromPeerUnicast:sum(packetBytes) 1122
scalar GPSRNetworkRandom.host[5].wlan[0].mac.dcf packetReceivedFromPeerMulticast:count 12
scalar GPSRNetworkRandom.host[5].wlan[0].mac.dcf packetReceivedFromPeerMulticast:sum(packetBytes) 864
scalar GPSRNetworkRandom.host[5].wlan[0].mac.dcf packetReceivedFromPeerBroadcast:count 4
scalar GPSRNetworkRandom.host[5].wlan[0].mac.dcf packetReceivedFromPeerBroadcast:sum(packetBytes) 256
scalar GPSRNetworkRandom.host[5].wlan[0].mac.dcf packetReceivedFromPeerWithRetry:count 0
scalar GPSRNetworkRandom.host[5].wlan[0].mac.dcf packetReceivedFromPeerWithRetry:sum(packetBytes) 0
scalar GPSRNetworkRandom.host[5].wlan[0].mac.dcf packetReceivedFromPeerWithoutRetry:count 26
scalar GPSRNetworkRandom.host[5].wlan[0].mac.dcf packetReceivedFromPeerWithoutRetry:sum(packetBytes) 1986
scalar GPSRNetworkRandom.host[5].wlan[0].mac.dcf packetSentToPeer:count 16
scalar GPSRNetworkRandom.host[5].wlan[0].mac.dcf packetSentToPeer:sum(packetBytes) 1262
scalar GPSRNetworkRandom.host[5].wlan[0].mac.dcf packetSentToPeerUnicast:count 14
scalar GPSRNetworkRandom.host[5].wlan[0].mac.dcf packetSentToPeerUnicast:sum(packetBytes) 1122
scalar GPSRNetworkRandom.host[5].wlan[0].mac.dcf packetSentToPeerMulticast:count 2
scalar GPSRNetworkRandom.host[5].wlan[0].mac.dcf packetSentToPeerMulticast:sum(packetBytes) 140
scalar GPSRNetworkRandom.host[5].wlan[0].mac.dcf packetSentToPeerBroadcast:count 1
scalar GPSRNetworkRandom.host[5].wlan[0].mac.dcf packetSentToPeerBroadcast:sum(packetBytes) 64
scalar GPSRNetworkRandom.host[5].wlan[0].mac.dcf packetSentToPeerWithRetry:count 0
scalar GPSRNetworkRandom.host[5].wlan[0].mac.dcf packetSentToPeerWithRetry:sum(packetBytes) 0
scalar GPSRNetworkRandom.host[5].wlan[0].mac.dcf packetSentToPeerWithoutRetry:count 16
scalar GPSRNetworkRandom.host[5].wlan[0].mac.dcf packetSentToPeerWithoutRetry:sum(packetBytes) 1262
scalar GPSRNetworkRandom.host[5].wlan[0].mac.dcf packetDrop:count 30
scalar GPSRNetworkRandom.host[5].wlan[0].mac.dcf packetDrop:sum(packetBytes) 2322
scalar GPSRNetworkRandom.host[5].wlan[0].mac.dcf packetDropNotAddressedToUs:count 30
scalar GPSRNetworkRandom.host[5].wlan[0].mac.dcf packetDropNotAddressedToUs:sum(packetBytes) 2322
scalar GPSRNetworkRandom.host[5].wlan[0].mac.dcf packetDropQueueOverflow:count 0
scalar GPSRNetworkRandom.host[5].wlan[0].mac.dcf packetDropQueueOverflow:sum(packetBytes) 0
scalar GPSRNetworkRandom.host[5].wlan[0].mac.dcf packetDropRetryLimitReached:count 0
scalar GPSRNetworkRandom.host[5].wlan[0].mac.dcf packetDropRetryLimitReached:sum(packetBytes) 0
scalar GPSRNetworkRandom.host[5].wlan[0].mac.dcf linkBroken:count 0
scalar GPSRNetworkRandom.host[5].wlan[0].mac packetReceivedFromLower:count 56
scalar GPSRNetworkRandom.host[5].wlan[0].mac packetReceivedFromLower:sum(packetBytes) 4308
scalar GPSRNetworkRandom.host[5].wlan[0].mac packetSentToLower:count 16
scalar GPSRNetworkRandom.host[5].wlan[0].mac packetSentToLower:sum(packetBytes) 1262
scalar GPSRNetworkRandom.host[5].wlan[0].mac packetReceivedFromUpper:count 9
scalar GPSRNetworkRandom.host[5].wlan[0].mac packetReceivedFromUpper:sum(packetBytes) 912
scalar GPSRNetworkRandom.host[5].wlan[0].mac packetSentToUpper:count 19
scalar GPSRNetworkRandom.host[5].wlan[0].mac packetSentToUpper:sum(packetBytes) 1356
scalar GPSRNetworkRandom.host[5].wlan[0].mac packetDrop:count 30
scalar GPSRNetworkRandom.host[5].wlan[0].mac packetDrop:sum(packetBytes) 2322
scalar GPSRNetworkRandom.host[5].wlan[0].mac packetDropIncorrectlyReceived:count 0
scalar GPSRNetworkRandom.host[5].wlan[0].mac packetDropIncorrectlyReceived:sum(packetBytes) 0
scalar GPSRNetworkRandom.host[5].wlan[0].mac packetDropNotAddressedToUs:count 30
scalar GPSRNetworkRandom.host[5].wlan[0].mac packetDropNotAddressedToUs:sum(packetBytes) 2322
scalar GPSRNetworkRandom.host[5].wlan[0].mac packetDropQueueOverflow:count 0
scalar GPSRNetworkRandom.host[5].wlan[0].mac packetDropQueueOverflow:sum(packetBytes) 0
scalar GPSRNetworkRandom.host[5].wlan[0].mac packetDropRetryLimitReached:count 0
scalar GPSRNetworkRandom.host[5].wlan[0].mac packetDropRetryLimitReached:sum(packetBytes) 0
scalar GPSRNetworkRandom.host[5].wlan[0].mac packetDropDuplicateDetected:count 0
scalar GPSRNetworkRandom.host[5].wlan[0].mac packetDropDuplicateDetected:sum(packetBytes) 0
scalar GPSRNetworkRandom.host[5].wlan[0].mac packetDropOther:count 0
scalar GPSRNetworkRandom.host[5].wlan[0].mac packetDropOther:sum(packetBytes) 0
scalar GPSRNetworkRandom.host[5].wlan[0].mac linkBroken:count 0
scalar GPSRNetworkRandom.host[5].wlan[0].radio radioMode:count 35
scalar GPSRNetworkRandom.host[5].wlan[0].radio receptionState:count 145
scalar GPSRNetworkRandom.host[5].wlan[0].radio transmissionState:count 64
scalar GPSRNetworkRandom.host[5].wlan[0] packetDropInterfaceDown:count 0
scalar GPSRNetworkRandom.host[5].wlan[0] packetDropInterfaceDown:sum(packetBytes) 0
scalar GPSRNetworkRandom.host[5].wlan[0] packetDropNoCarrier:count 0
scalar GPSRNetworkRandom.host[5].wlan[0] packetDropNoCarrier:sum(packetBytes) 0
scalar GPSRNetworkRandom.host[5].ipv4.ip packetDropAddressResolutionFailed:count 0
scalar GPSRNetworkRandom.host[5].ipv4.ip packetDropAddressResolutionFailed:sum(packetBytes) 0
scalar GPSRNetworkRandom.host[5].ipv4.ip packetDropHopLimitReached:count 0
scalar GPSRNetworkRandom.host[5].ipv4.ip packetDropHopLimitReached:sum(packetBytes) 0
scalar GPSRNetworkRandom.host[5].ipv4.ip packetDropForwardingDisabled:count 0
scalar GPSRNetworkRandom.host[5].ipv4.ip packetDropForwardingDisabled:sum(packetBytes) 0
scalar GPSRNetworkRandom.host[5].ipv4.ip packetDropLifetimeExpired:count 0
scalar GPSRNetworkRandom.host[5].ipv4.ip packetDropLifetimeExpired:sum(packetBytes) 0
scalar GPSRNetworkRandom.host[5].ipv4.ip packetDropNoInterfaceFound:count 0
scalar GPSRNetworkRandom.host[5].ipv4.ip packetDropNoInterfaceFound:sum(packetBytes) 0
scalar GPSRNetworkRandom.host[5].ipv4.ip packetDropNoRouteFound:count 0
scalar GPSRNetworkRandom.host[5].ipv4.ip packetDropNoRouteFound:sum(packetBytes) 0
scalar GPSRNetworkRandom.host[5].ipv4.ip packetDropUndefined:count 0
scalar GPSRNetworkRandom.host[5].ipv4.ip packetDropUndefined:sum(packetBytes) 0
scalar GPSRNetworkRandom.host[5].ipv4.arp arpResolutionFailed:count 0
scalar GPSRNetworkRandom.host[5].ipv4.arp arpResolutionCompleted:count 4
scalar GPSRNetworkRandom.host[5].ipv4.arp arpResolutionInitiated:count 1
scalar GPSRNetworkRandom.host[5].ipv4.arp arpReplySent:count 1
scalar GPSRNetworkRandom.host[5].ipv4.arp arpReplySent:sum(packetBytes) 28
scalar GPSRNetworkRandom.host[5].ipv4.arp arpRequestSent:count 1
scalar GPSRNetworkRandom.host[5].ipv4.arp arpRequestSent:sum(packetBytes) 28
scalar GPSRNetworkRandom.host[5].udp packetReceived:count 0
scalar GPSRNetworkRandom.host[5].udp packetReceived:sum(packetBytes) 0
scalar GPSRNetworkRandom.host[5].udp packetSent:count 0
scalar GPSRNetworkRandom.host[5].udp packetSent:sum(packetBytes) 0
scalar GPSRNetworkRandom.host[5].udp passedUpPk:count 0
scalar GPSRNetworkRandom.host[5].udp droppedPkWrongPort:count 0
scalar GPSRNetworkRandom.host[5].udp droppedPkBadChecksum:count 0
scalar GPSRNetworkRandom.host[5].app[0] pingRxSeq:count 0
scalar GPSRNetworkRandom.host[5].app[0] pingTxSeq:count 0
scalar GPSRNetworkRandom.host[5].app[0] numOutOfOrderArrivals:last nan
scalar GPSRNetworkRandom.host[5].app[0] numLost:last nan
scalar GPSRNetworkRandom.host[6].lo[0].lo rcvdPkFromHl:count 0
scalar GPSRNetworkRandom.host[6].lo[0].lo rcvdPkFromHl:sum(packetBytes) 0
scalar GPSRNetworkRandom.host[6].lo[0].lo passedUpPk:count 0
scalar GPSRNetworkRandom.host[6].lo[0].lo passedUpPk:sum(packetBytes) 0
scalar GPSRNetworkRandom.host[6].lo[0] packetDropInterfaceDown:count 0
scalar GPSRNetworkRandom.host[6].lo[0] packetDropInterfaceDown:sum(packetBytes) 0
scalar GPSRNetworkRandom.host[6].lo[0] packetDropNoCarrier:count 0
scalar GPSRNetworkRandom.host[6].lo[0] packetDropNoCarrier:sum(packetBytes) 0
scalar GPSRNetworkRandom.host[6].wlan[0].mac.dcf.channelAccess.pendingQueue queueLength:last 0
scalar GPSRNetworkRandom.host[6].wlan[0].mac.dcf.channelAccess.pendingQueue queueLength:max 1
scalar GPSRNetworkRandom.host[6].wlan[0].mac.dcf.channelAccess.pendingQueue queueLength:timeavg 0
scalar GPSRNetworkRandom.host[6].wlan[0].mac.dcf.channelAccess.pendingQueue queueBitLength:last 0
scalar GPSRNetworkRandom.host[6].wlan[0].mac.dcf.channelAccess.pendingQueue queueBitLength:max 608
scalar GPSRNetworkRandom.host[6].wlan[0].mac.dcf.channelAccess.pendingQueue queueBitLength:timeavg 0
scalar GPSRNetworkRandom.host[6].wlan[0].mac.dcf.channelAccess.pendingQueue outgoingPackets:count 1
scalar GPSRNetworkRandom.host[6].wlan[0].mac.dcf.channelAccess.pendingQueue outgoingPacketLengths:sum 608
scalar GPSRNetworkRandom.host[6].wlan[0].mac.dcf.channelAccess.pendingQueue incomingPackets:count 1
scalar GPSRNetworkRandom.host[6].wlan[0].mac.dcf.channelAccess.pendingQueue incomingPacketLengths:sum 608
scalar GPSRNetworkRandom.host[6].wlan[0].mac.dcf.channelAccess.pendingQueue droppedPacketsQueueOverflow:count 0
scalar GPSRNetworkRandom.host[6].wlan[0].mac.dcf.channelAccess.pendingQueue droppedPacketLengthsQueueOverflow:sum 0
scalar GPSRNetworkRandom.host[6].wlan[0].mac.dcf.channelAccess.inProgressFrames queueLength:max 1
scalar GPSRNetworkRandom.host[6].wlan[0].mac.dcf.channelAccess.inProgressFrames queueLength:timeavg 2.48e-05
scalar GPSRNetworkRandom.host[6].wlan[0].mac.dcf.channelAccess.contention channelAccessGranted:count 1
scalar GPSRNetworkRandom.host[6].wlan[0].mac.dcf.channelAccess.contention stateChanged:count 394
scalar GPSRNetworkRandom.host[6].wlan[0].mac.dcf.channelAccess channelOwnershipChanged:count 2
scalar GPSRNetworkRandom.host[6].wlan[0].mac.dcf.originatorMacDataService packetAggregated:count 0
scalar GPSRNetworkRandom.host[6].wlan[0].mac.dcf.originatorMacDataService packetFragmented:count 0
scalar GPSRNetworkRandom.host[6].wlan[0].mac.dcf.recipientMacDataService packetDeaggregated:count 0
scalar GPSRNetworkRandom.host[6].wlan[0].mac.dcf.recipientMacDataService packetDefragmented:count 6
scalar GPSRNetworkRandom.host[6].wlan[0].mac.dcf.recipientMacDataService packetDropDuplicateDetected:count 0
scalar GPSRNetworkRandom.host[6].wlan[0].mac.dcf.recipientMacDataService packetDropDuplicateDetected:sum(packetBytes) 0
scalar GPSRNetworkRandom.host[6].wlan[0].mac.dcf.recoveryProcedure retryLimitReached:count 0
scalar GPSRNetworkRandom.host[6].wlan[0].mac.dcf frameSequenceFinished:count 1
scalar GPSRNetworkRandom.host[6].wlan[0].mac.dcf packetReceivedFromPeer:count 6
scalar GPSRNetworkRandom.host[6].wlan[0].mac.dcf packetReceivedFromPeer:sum(packetBytes) 420
scalar GPSRNetworkRandom.host[6].wlan[0].mac.dcf packetReceivedFromPeerUnicast:count 0
scalar GPSRNetworkRandom.host[6].wlan[0].mac.dcf packetReceivedFromPeerUnicast:sum(packetBytes) 0
scalar GPSRNetworkRandom.host[6].wlan[0].mac.dcf packetReceivedFromPeerMulticast:count 6
scalar GPSRNetworkRandom.host[6].wlan[0].mac.dcf packetReceivedFromPeerMulticast:sum(packetBytes) 420
scalar GPSRNetworkRandom.host[6].wlan[0].mac.dcf packetReceivedFromPeerBroadcast:count 3
scalar GPSRNetworkRandom.host[6].wlan[0].mac.dcf packetReceivedFromPeerBroadcast:sum(packetBytes) 192
scalar GPSRNetworkRandom.host[6].wlan[0].mac.dcf packetReceivedFromPeerWithRetry:count 0
scalar GPSRNetworkRandom.host[6].wlan[0].mac.dcf packetReceivedFromPeerWithRetry:sum(packetBytes) 0
scalar GPSRNetworkRandom.host[6].wlan[0].mac.dcf packetReceivedFromPeerWithoutRetry:count 6
scalar GPSRNetworkRandom.host[6].wlan[0].mac.dcf packetReceivedFromPeerWithoutRetry:sum(packetBytes) 420
scalar GPSRNetworkRandom.host[6].wlan[0].mac.dcf packetSentToPeer:count 1
scalar GPSRNetworkRandom.host[6].wlan[0].mac.dcf packetSentToPeer:sum(packetBytes) 76
scalar GPSRNetworkRandom.host[6].wlan[0].mac.dcf packetSentToPeerUnicast:count 0
scalar GPSRNetworkRandom.host[6].wlan[0].mac.dcf packetSentToPeerUnicast:sum(packetBytes) 0
scalar GPSRNetworkRandom.host[6].wlan[0].mac.dcf packetSentToPeerMulticast:count 1
scalar GPSRNetworkRandom.host[6].wlan[0].mac.dcf packetSentToPeerMulticast:sum(packetBytes) 76
scalar GPSRNetworkRandom.host[6].wlan[0].mac.dcf packetSentToPeerBroadcast:count 0
scalar GPSRNetworkRandom.host[6].wlan[0].mac.dcf packetSentToPeerBroadcast:sum(packetBytes) 0
scalar GPSRNetworkRandom.host[6].wlan[0].mac.dcf packetSentToPeerWithRetry:count 0
scalar GPSRNetworkRandom.host[6].wlan[0].mac.dcf packetSentToPeerWithRetry:sum(packetBytes) 0
scalar GPSRNetworkRandom.host[6].wlan[0].mac.dcf packetSentToPeerWithoutRetry:count 1
scalar GPSRNetworkRandom.host[6].wlan[0].mac.dcf packetSentToPeerWithoutRetry:sum(packetBytes) 76
scalar GPSRNetworkRandom.host[6].wlan[0].mac.dcf packetDrop:count 68
scalar GPSRNetworkRandom.host[6].wlan[0].mac.dcf packetDrop:sum(packetBytes) 5190
scalar GPSRNetworkRandom.host[6].wlan[0].mac.dcf packetDropNotAddressedToUs:count 68
scalar GPSRNetworkRandom.host[6].wlan[0].mac.dcf packetDropNotAddressedToUs:sum(packetBytes) 5190
scalar GPSRNetworkRandom.host[6].wlan[0].mac.dcf packetDropQueueOverflow:count 0
scalar GPSRNetworkRandom.host[6].wlan[0].mac.dcf packetDropQueueOverflow:sum(packetBytes) 0
scalar GPSRNetworkRandom.host[6].wlan[0].mac.dcf packetDropRetryLimitReached:count 0
scalar GPSRNetworkRandom.host[6].wlan[0].mac.dcf packetDropRetryLimitReached:sum(packetBytes) 0
scalar GPSRNetworkRandom.host[6].wlan[0].mac.dcf linkBroken:count 0
scalar GPSRNetworkRandom.host[6].wlan[0].mac packetReceivedFromLower:count 74
scalar GPSRNetworkRandom.host[6].wlan[0].mac packetReceivedFromLower:sum(packetBytes) 5610
scalar GPSRNetworkRandom.host[6].wlan[0].mac packetSentToLower:count 1
scalar GPSRNetworkRandom.host[6].wlan[0].mac packetSentToLower:sum(packetBytes) 76
scalar GPSRNetworkRandom.host[6].wlan[0].mac packetReceivedFromUpper:count 1
scalar GPSRNetworkRandom.host[6].wlan[0].mac packetReceivedFromUpper:sum(packetBytes) 48
scalar GPSRNetworkRandom.host[6].wlan[0].mac packetSentToUpper:count 6
scalar GPSRNetworkRandom.host[6].wlan[0].mac packetSentToUpper:sum(packetBytes) 252
scalar GPSRNetworkRandom.host[6].wlan[0].mac packetDrop:count 68
scalar GPSRNetworkRandom.host[6].wlan[0].mac packetDrop:sum(packetBytes) 5190
scalar GPSRNetworkRandom.host[6].wlan[0].mac packetDropIncorrectlyReceived:count 0
scalar GPSRNetworkRandom.host[6].wlan[0].mac packetDropIncorrectlyReceived:sum(packetBytes) 0
scalar GPSRNetworkRandom.host[6].wlan[0].mac packetDropNotAddressedToUs:count 68
scalar GPSRNetworkRandom.host[6].wlan[0].mac packetDropNotAddressedToUs:sum(packetBytes) 5190
scalar GPSRNetworkRandom.host[6].wlan[0].mac packetDropQueueOverflow:count 0
scalar GPSRNetworkRandom.host[6].wlan[0].mac packetDropQueueOverflow:sum(packetBytes) 0
scalar GPSRNetworkRandom.host[6].wlan[0].mac packetDropRetryLimitReached:count 0
scalar GPSRNetworkRandom.host[6].wlan[0].mac packetDropRetryLimitReached:sum(packetBytes) 0
scalar GPSRNetworkRandom.host[6].wlan[0].mac packetDropDuplicateDetected:count 0
scalar GPSRNetworkRandom.host[6].wlan[0].mac packetDropDuplicateDetected:sum(packetBytes) 0
scalar GPSRNetworkRandom.host[6].wlan[0].mac packetDropOther:count 0
scalar GPSRNetworkRandom.host[6].wlan[0].mac packetDropOther:sum(packetBytes) 0
scalar GPSRNetworkRandom.host[6].wlan[0].mac linkBroken:count 0
scalar GPSRNetworkRandom.host[6].wlan[0].radio radioMode:count 5
scalar GPSRNetworkRandom.host[6].wlan[0].radio receptionState:count 151
scalar GPSRNetworkRandom.host[6].wlan[0].radio transmissionState:count 4
scalar GPSRNetworkRandom.host[6].wlan[0] packetDropInterfaceDown:count 0
scalar GPSRNetworkRandom.host[6].wlan[0] packetDropInterfaceDown:sum(packetBytes) 0
scalar GPSRNetworkRandom.host[6].wlan[0] packetDropNoCarrier:count 0
scalar GPSRNetworkRandom.host[6].wlan[0] packetDropNoCarrier:sum(packetBytes) 0
scalar GPSRNetworkRandom.host[6].ipv4.ip packetDropAddressResolutionFailed:count 0
scalar GPSRNetworkRandom.host[6].ipv4.ip packetDropAddressResolutionFailed:sum(packetBytes) 0
scalar GPSRNetworkRandom.host[6].ipv4.ip packetDropHopLimitReached:count 0
scalar GPSRNetworkRandom.host[6].ipv4.ip packetDropHopLimitReached:sum(packetBytes) 0
scalar GPSRNetworkRandom.host[6].ipv4.ip packetDropForwardingDisabled:count 0
scalar GPSRNetworkRandom.host[6].ipv4.ip packetDropForwardingDisabled:sum(packetBytes) 0
scalar GPSRNetworkRandom.host[6].ipv4.ip packetDropLifetimeExpired:count 0
scalar GPSRNetworkRandom.host[6].ipv4.ip packetDropLifetimeExpired:sum(packetBytes) 0
scalar GPSRNetworkRandom.host[6].ipv4.ip packetDropNoInterfaceFound:count 0
scalar GPSRNetworkRandom.host[6].ipv4.ip packetDropNoInterfaceFound:sum(packetBytes) 0
scalar GPSRNetworkRandom.host[6].ipv4.ip packetDropNoRouteFound:count 0
scalar GPSRNetworkRandom.host[6].ipv4.ip packetDropNoRouteFound:sum(packetBytes) 0
scalar GPSRNetworkRandom.host[6].ipv4.ip packetDropUndefined:count 0
scalar GPSRNetworkRandom.host[6].ipv4.ip packetDropUndefined:sum(packetBytes) 0
scalar GPSRNetworkRandom.host[6].ipv4.arp arpResolutionFailed:count 0
scalar GPSRNetworkRandom.host[6].ipv4.arp arpResolutionCompleted:count 0
scalar GPSRNetworkRandom.host[6].ipv4.arp arpResolutionInitiated:count 0
scalar GPSRNetworkRandom.host[6].ipv4.arp arpReplySent:count 0
scalar GPSRNetworkRandom.host[6].ipv4.arp arpReplySent:sum(packetBytes) 0
scalar GPSRNetworkRandom.host[6].ipv4.arp arpRequestSent:count 0
scalar GPSRNetworkRandom.host[6].ipv4.arp arpRequestSent:sum(packetBytes) 0
scalar GPSRNetworkRandom.host[6].udp packetReceived:count 0
scalar GPSRNetworkRandom.host[6].udp packetReceived:sum(packetBytes) 0
scalar GPSRNetworkRandom.host[6].udp packetSent:count 0
scalar GPSRNetworkRandom.host[6].udp packetSent:sum(packetBytes) 0
scalar GPSRNetworkRandom.host[6].udp passedUpPk:count 0
scalar GPSRNetworkRandom.host[6].udp droppedPkWrongPort:count 0
scalar GPSRNetworkRandom.host[6].udp droppedPkBadChecksum:count 0
scalar GPSRNetworkRandom.host[6].app[0] pingRxSeq:count 0
scalar GPSRNetworkRandom.host[6].app[0] pingTxSeq:count 0
scalar GPSRNetworkRandom.host[6].app[0] numOutOfOrderArrivals:last nan
scalar GPSRNetworkRandom.host[6].app[0] numLost:last nan
scalar GPSRNetworkRandom.host[7].lo[0].lo rcvdPkFromHl:count 0
scalar GPSRNetworkRandom.host[7].lo[0].lo rcvdPkFromHl:sum(packetBytes) 0
scalar GPSRNetworkRandom.host[7].lo[0].lo passedUpPk:count 0
scalar GPSRNetworkRandom.host[7].lo[0].lo passedUpPk:sum(packetBytes) 0
scalar GPSRNetworkRandom.host[7].lo[0] packetDropInterfaceDown:count 0
scalar GPSRNetworkRandom.host[7].lo[0] packetDropInterfaceDown:sum(packetBytes) 0
scalar GPSRNetworkRandom.host[7].lo[0] packetDropNoCarrier:count 0
scalar GPSRNetworkRandom.host[7].lo[0] packetDropNoCarrier:sum(packetBytes) 0
scalar GPSRNetworkRandom.host[7].wlan[0].mac.dcf.channelAccess.pendingQueue queueLength:last 0
scalar GPSRNetworkRandom.host[7].wlan[0].mac.dcf.channelAccess.pendingQueue queueLength:max 1
scalar GPSRNetworkRandom.host[7].wlan[0].mac.dcf.channelAccess.pendingQueue queueLength:timeavg 0.00024870000000000003
scalar GPSRNetworkRandom.host[7].wlan[0].mac.dcf.channelAccess.pendingQueue queueBitLength:last 0
scalar GPSRNetworkRandom.host[7].wlan[0].mac.dcf.channelAccess.pendingQueue queueBitLength:max 1280
scalar GPSRNetworkRandom.host[7].wlan[0].mac.dcf.channelAccess.pendingQueue queueBitLength:timeavg 0.30228479999999996
scalar GPSRNetworkRandom.host[7].wlan[0].mac.dcf.channelAccess.pendingQueue outgoingPackets:count 15
scalar GPSRNetworkRandom.host[7].wlan[0].mac.dcf.channelAccess.pendingQueue outgoingPacketLengths:sum 16992
scalar GPSRNetworkRandom.host[7].wlan[0].mac.dcf.channelAccess.pendingQueue incomingPackets:count 15
scalar GPSRNetworkRandom.host[7].wlan[0].mac.dcf.channelAccess.pendingQueue incomingPacketLengths:sum 16992
[...]
scalar GPSRNetworkRandom.host[19].wlan[0].mac packetDropOther:vector(packetBytes):starttime nan
scalar GPSRNetworkRandom.host[19].wlan[0].mac packetDropOther:vector(packetBytes):endtime nan
scalar GPSRNetworkRandom.host[19].wlan[0].radio radioMode:vector:count 31
scalar GPSRNetworkRandom.host[19].wlan[0].radio radioMode:vector:sum 72
scalar GPSRNetworkRandom.host[19].wlan[0].radio radioMode:vector:sumweights 31
scalar GPSRNetworkRandom.host[19].wlan[0].radio radioMode:vector:mean 2.3225806451612905
scalar GPSRNetworkRandom.host[19].wlan[0].radio radioMode:vector:stddev 0.79107929540148092
scalar GPSRNetworkRandom.host[19].wlan[0].radio radioMode:vector:min 0
scalar GPSRNetworkRandom.host[19].wlan[0].radio radioMode:vector:max 3
scalar GPSRNetworkRandom.host[19].wlan[0].radio radioMode:vector:starttime 0
scalar GPSRNetworkRandom.host[19].wlan[0].radio radioMode:vector:endtime 19.197306658019002
scalar GPSRNetworkRandom.host[19].wlan[0].radio receptionState:vector:count 107
scalar GPSRNetworkRandom.host[19].wlan[0].radio receptionState:vector:sum 171
scalar GPSRNetworkRandom.host[19].wlan[0].radio receptionState:vector:sumweights 107
scalar GPSRNetworkRandom.host[19].wlan[0].radio receptionState:vector:mean 1.5981308411214954
scalar GPSRNetworkRandom.host[19].wlan[0].radio receptionState:vector:stddev 1.1147367324705404
scalar GPSRNetworkRandom.host[19].wlan[0].radio receptionState:vector:min 0
scalar GPSRNetworkRandom.host[19].wlan[0].radio receptionState:vector:max 3
scalar GPSRNetworkRandom.host[19].wlan[0].radio receptionState:vector:starttime 0
scalar GPSRNetworkRandom.host[19].wlan[0].radio receptionState:vector:endtime 19.209852437249005
scalar GPSRNetworkRandom.host[19].wlan[0].radio transmissionState:vector:count 56
scalar GPSRNetworkRandom.host[19].wlan[0].radio transmissionState:vector:sum 56
scalar GPSRNetworkRandom.host[19].wlan[0].radio transmissionState:vector:sumweights 56
scalar GPSRNetworkRandom.host[19].wlan[0].radio transmissionState:vector:mean 1
scalar GPSRNetworkRandom.host[19].wlan[0].radio transmissionState:vector:stddev 0.71350606801267569
scalar GPSRNetworkRandom.host[19].wlan[0].radio transmissionState:vector:min 0
scalar GPSRNetworkRandom.host[19].wlan[0].radio transmissionState:vector:max 2
scalar GPSRNetworkRandom.host[19].wlan[0].radio transmissionState:vector:starttime 13.700872510672003
scalar GPSRNetworkRandom.host[19].wlan[0].radio transmissionState:vector:endtime 19.197306658019002
scalar GPSRNetworkRandom.host[19].wlan[0].radio radioChannel:vector:count 1
scalar GPSRNetworkRandom.host[19].wlan[0].radio radioChannel:vector:sum 0
scalar GPSRNetworkRandom.host[19].wlan[0].radio radioChannel:vector:sumweights 1
scalar GPSRNetworkRandom.host[19].wlan[0].radio radioChannel:vector:mean 0
scalar GPSRNetworkRandom.host[19].wlan[0].radio radioChannel:vector:stddev nan
scalar GPSRNetworkRandom.host[19].wlan[0].radio radioChannel:vector:min 0
scalar GPSRNetworkRandom.host[19].wlan[0].radio radioChannel:vector:max 0
scalar GPSRNetworkRandom.host[19].wlan[0].radio radioChannel:vector:starttime 0
scalar GPSRNetworkRandom.host[19].wlan[0].radio radioChannel:vector:endtime 0
scalar GPSRNetworkRandom.host[19].wlan[0] packetDropInterfaceDown:vector(packetBytes):count 0
scalar GPSRNetworkRandom.host[19].wlan[0] packetDropInterfaceDown:vector(packetBytes):sum 0
scalar GPSRNetworkRandom.host[19].wlan[0] packetDropInterfaceDown:vector(packetBytes):sumweights 0
scalar GPSRNetworkRandom.host[19].wlan[0] packetDropInterfaceDown:vector(packetBytes):mean -nan
scalar GPSRNetworkRandom.host[19].wlan[0] packetDropInterfaceDown:vector(packetBytes):stddev nan
scalar GPSRNetworkRandom.host[19].wlan[0] packetDropInterfaceDown:vector(packetBytes):min inf
scalar GPSRNetworkRandom.host[19].wlan[0] packetDropInterfaceDown:vector(packetBytes):max -inf
scalar GPSRNetworkRandom.host[19].wlan[0] packetDropInterfaceDown:vector(packetBytes):starttime nan
scalar GPSRNetworkRandom.host[19].wlan[0] packetDropInterfaceDown:vector(packetBytes):endtime nan
scalar GPSRNetworkRandom.host[19].wlan[0] packetDropNoCarrier:vector(packetBytes):count 0
scalar GPSRNetworkRandom.host[19].wlan[0] packetDropNoCarrier:vector(packetBytes):sum 0
scalar GPSRNetworkRandom.host[19].wlan[0] packetDropNoCarrier:vector(packetBytes):sumweights 0
scalar GPSRNetworkRandom.host[19].wlan[0] packetDropNoCarrier:vector(packetBytes):mean -nan
scalar GPSRNetworkRandom.host[19].wlan[0] packetDropNoCarrier:vector(packetBytes):stddev nan
scalar GPSRNetworkRandom.host[19].wlan[0] packetDropNoCarrier:vector(packetBytes):min inf
scalar GPSRNetworkRandom.host[19].wlan[0] packetDropNoCarrier:vector(packetBytes):max -inf
scalar GPSRNetworkRandom.host[19].wlan[0] packetDropNoCarrier:vector(packetBytes):starttime nan
scalar GPSRNetworkRandom.host[19].wlan[0] packetDropNoCarrier:vector(packetBytes):endtime nan
scalar GPSRNetworkRandom.host[19].ipv4.ip packetDropAddressResolutionFailed:vector(packetBytes):count 0
scalar GPSRNetworkRandom.host[19].ipv4.ip packetDropAddressResolutionFailed:vector(packetBytes):sum 0
scalar GPSRNetworkRandom.host[19].ipv4.ip packetDropAddressResolutionFailed:vector(packetBytes):sumweights 0
scalar GPSRNetworkRandom.host[19].ipv4.ip packetDropAddressResolutionFailed:vector(packetBytes):mean -nan
scalar GPSRNetworkRandom.host[19].ipv4.ip packetDropAddressResolutionFailed:vector(packetBytes):stddev nan
scalar GPSRNetworkRandom.host[19].ipv4.ip packetDropAddressResolutionFailed:vector(packetBytes):min inf
scalar GPSRNetworkRandom.host[19].ipv4.ip packetDropAddressResolutionFailed:vector(packetBytes):max -inf
scalar GPSRNetworkRandom.host[19].ipv4.ip packetDropAddressResolutionFailed:vector(packetBytes):starttime nan
scalar GPSRNetworkRandom.host[19].ipv4.ip packetDropAddressResolutionFailed:vector(packetBytes):endtime nan
scalar GPSRNetworkRandom.host[19].ipv4.ip packetDropHopLimitReached:vector(packetBytes):count 0
scalar GPSRNetworkRandom.host[19].ipv4.ip packetDropHopLimitReached:vector(packetBytes):sum 0
scalar GPSRNetworkRandom.host[19].ipv4.ip packetDropHopLimitReached:vector(packetBytes):sumweights 0
scalar GPSRNetworkRandom.host[19].ipv4.ip packetDropHopLimitReached:vector(packetBytes):mean -nan
scalar GPSRNetworkRandom.host[19].ipv4.ip packetDropHopLimitReached:vector(packetBytes):stddev nan
scalar GPSRNetworkRandom.host[19].ipv4.ip packetDropHopLimitReached:vector(packetBytes):min inf
scalar GPSRNetworkRandom.host[19].ipv4.ip packetDropHopLimitReached:vector(packetBytes):max -inf
scalar GPSRNetworkRandom.host[19].ipv4.ip packetDropHopLimitReached:vector(packetBytes):starttime nan
scalar GPSRNetworkRandom.host[19].ipv4.ip packetDropHopLimitReached:vector(packetBytes):endtime nan
scalar GPSRNetworkRandom.host[19].ipv4.ip packetDropForwardingDisabled:vector(packetBytes):count 0
scalar GPSRNetworkRandom.host[19].ipv4.ip packetDropForwardingDisabled:vector(packetBytes):sum 0
scalar GPSRNetworkRandom.host[19].ipv4.ip packetDropForwardingDisabled:vector(packetBytes):sumweights 0
scalar GPSRNetworkRandom.host[19].ipv4.ip packetDropForwardingDisabled:vector(packetBytes):mean -nan
scalar GPSRNetworkRandom.host[19].ipv4.ip packetDropForwardingDisabled:vector(packetBytes):stddev nan
scalar GPSRNetworkRandom.host[19].ipv4.ip packetDropForwardingDisabled:vector(packetBytes):min inf
scalar GPSRNetworkRandom.host[19].ipv4.ip packetDropForwardingDisabled:vector(packetBytes):max -inf
scalar GPSRNetworkRandom.host[19].ipv4.ip packetDropForwardingDisabled:vector(packetBytes):starttime nan
scalar GPSRNetworkRandom.host[19].ipv4.ip packetDropForwardingDisabled:vector(packetBytes):endtime nan
scalar GPSRNetworkRandom.host[19].ipv4.ip packetDropLifetimeExpired:vector(packetBytes):count 0
scalar GPSRNetworkRandom.host[19].ipv4.ip packetDropLifetimeExpired:vector(packetBytes):sum 0
scalar GPSRNetworkRandom.host[19].ipv4.ip packetDropLifetimeExpired:vector(packetBytes):sumweights 0
scalar GPSRNetworkRandom.host[19].ipv4.ip packetDropLifetimeExpired:vector(packetBytes):mean -nan
scalar GPSRNetworkRandom.host[19].ipv4.ip packetDropLifetimeExpired:vector(packetBytes):stddev nan
scalar GPSRNetworkRandom.host[19].ipv4.ip packetDropLifetimeExpired:vector(packetBytes):min inf
scalar GPSRNetworkRandom.host[19].ipv4.ip packetDropLifetimeExpired:vector(packetBytes):max -inf
scalar GPSRNetworkRandom.host[19].ipv4.ip packetDropLifetimeExpired:vector(packetBytes):starttime nan
scalar GPSRNetworkRandom.host[19].ipv4.ip packetDropLifetimeExpired:vector(packetBytes):endtime nan
scalar GPSRNetworkRandom.host[19].ipv4.ip packetDropNoInterfaceFound:vector(packetBytes):count 0
scalar GPSRNetworkRandom.host[19].ipv4.ip packetDropNoInterfaceFound:vector(packetBytes):sum 0
scalar GPSRNetworkRandom.host[19].ipv4.ip packetDropNoInterfaceFound:vector(packetBytes):sumweights 0
scalar GPSRNetworkRandom.host[19].ipv4.ip packetDropNoInterfaceFound:vector(packetBytes):mean -nan
scalar GPSRNetworkRandom.host[19].ipv4.ip packetDropNoInterfaceFound:vector(packetBytes):stddev nan
scalar GPSRNetworkRandom.host[19].ipv4.ip packetDropNoInterfaceFound:vector(packetBytes):min inf
scalar GPSRNetworkRandom.host[19].ipv4.ip packetDropNoInterfaceFound:vector(packetBytes):max -inf
scalar GPSRNetworkRandom.host[19].ipv4.ip packetDropNoInterfaceFound:vector(packetBytes):starttime nan
scalar GPSRNetworkRandom.host[19].ipv4.ip packetDropNoInterfaceFound:vector(packetBytes):endtime nan
scalar GPSRNetworkRandom.host[19].ipv4.ip packetDropNoRouteFound:vector(packetBytes):count 0
scalar GPSRNetworkRandom.host[19].ipv4.ip packetDropNoRouteFound:vector(packetBytes):sum 0
scalar GPSRNetworkRandom.host[19].ipv4.ip packetDropNoRouteFound:vector(packetBytes):sumweights 0
scalar GPSRNetworkRandom.host[19].ipv4.ip packetDropNoRouteFound:vector(packetBytes):mean -nan
scalar GPSRNetworkRandom.host[19].ipv4.ip packetDropNoRouteFound:vector(packetBytes):stddev nan
scalar GPSRNetworkRandom.host[19].ipv4.ip packetDropNoRouteFound:vector(packetBytes):min inf
scalar GPSRNetworkRandom.host[19].ipv4.ip packetDropNoRouteFound:vector(packetBytes):max -inf
scalar GPSRNetworkRandom.host[19].ipv4.ip packetDropNoRouteFound:vector(packetBytes):starttime nan
scalar GPSRNetworkRandom.host[19].ipv4.ip packetDropNoRouteFound:vector(packetBytes):endtime nan
scalar GPSRNetworkRandom.host[19].ipv4.ip packetDropUndefined:vector(packetBytes):count 0
scalar GPSRNetworkRandom.host[19].ipv4.ip packetDropUndefined:vector(packetBytes):sum 0
scalar GPSRNetworkRandom.host[19].ipv4.ip packetDropUndefined:vector(packetBytes):sumweights 0
scalar GPSRNetworkRandom.host[19].ipv4.ip packetDropUndefined:vector(packetBytes):mean -nan
scalar GPSRNetworkRandom.host[19].ipv4.ip packetDropUndefined:vector(packetBytes):stddev nan
scalar GPSRNetworkRandom.host[19].ipv4.ip packetDropUndefined:vector(packetBytes):min inf
scalar GPSRNetworkRandom.host[19].ipv4.ip packetDropUndefined:vector(packetBytes):max -inf
scalar GPSRNetworkRandom.host[19].ipv4.ip packetDropUndefined:vector(packetBytes):starttime nan
scalar GPSRNetworkRandom.host[19].ipv4.ip packetDropUndefined:vector(packetBytes):endtime nan
scalar GPSRNetworkRandom.host[19].ipv4.arp arpRequestSent:vector(packetBytes):count 0
scalar GPSRNetworkRandom.host[19].ipv4.arp arpRequestSent:vector(packetBytes):sum 0
scalar GPSRNetworkRandom.host[19].ipv4.arp arpRequestSent:vector(packetBytes):sumweights 0
scalar GPSRNetworkRandom.host[19].ipv4.arp arpRequestSent:vector(packetBytes):mean -nan
scalar GPSRNetworkRandom.host[19].ipv4.arp arpRequestSent:vector(packetBytes):stddev nan
scalar GPSRNetworkRandom.host[19].ipv4.arp arpRequestSent:vector(packetBytes):min inf
scalar GPSRNetworkRandom.host[19].ipv4.arp arpRequestSent:vector(packetBytes):max -inf
scalar GPSRNetworkRandom.host[19].ipv4.arp arpRequestSent:vector(packetBytes):starttime nan
scalar GPSRNetworkRandom.host[19].ipv4.arp arpRequestSent:vector(packetBytes):endtime nan
scalar GPSRNetworkRandom.host[19].ipv4.arp arpReplySent:vector(packetBytes):count 1
scalar GPSRNetworkRandom.host[19].ipv4.arp arpReplySent:vector(packetBytes):sum 28
scalar GPSRNetworkRandom.host[19].ipv4.arp arpReplySent:vector(packetBytes):sumweights 1
scalar GPSRNetworkRandom.host[19].ipv4.arp arpReplySent:vector(packetBytes):mean 28
scalar GPSRNetworkRandom.host[19].ipv4.arp arpReplySent:vector(packetBytes):stddev nan
scalar GPSRNetworkRandom.host[19].ipv4.arp arpReplySent:vector(packetBytes):min 28
scalar GPSRNetworkRandom.host[19].ipv4.arp arpReplySent:vector(packetBytes):max 28
scalar GPSRNetworkRandom.host[19].ipv4.arp arpReplySent:vector(packetBytes):starttime 14.195702658019002
scalar GPSRNetworkRandom.host[19].ipv4.arp arpReplySent:vector(packetBytes):endtime 14.195702658019002
scalar GPSRNetworkRandom.host[19].udp packetSent:vector(packetBytes):count 0
scalar GPSRNetworkRandom.host[19].udp packetSent:vector(packetBytes):sum 0
scalar GPSRNetworkRandom.host[19].udp packetSent:vector(packetBytes):sumweights 0
scalar GPSRNetworkRandom.host[19].udp packetSent:vector(packetBytes):mean -nan
scalar GPSRNetworkRandom.host[19].udp packetSent:vector(packetBytes):stddev nan
scalar GPSRNetworkRandom.host[19].udp packetSent:vector(packetBytes):min inf
scalar GPSRNetworkRandom.host[19].udp packetSent:vector(packetBytes):max -inf
scalar GPSRNetworkRandom.host[19].udp packetSent:vector(packetBytes):starttime nan
scalar GPSRNetworkRandom.host[19].udp packetSent:vector(packetBytes):endtime nan
scalar GPSRNetworkRandom.host[19].udp outgoingDataRate:vector:count 200
scalar GPSRNetworkRandom.host[19].udp outgoingDataRate:vector:sum 0
scalar GPSRNetworkRandom.host[19].udp outgoingDataRate:vector:sumweights 200
scalar GPSRNetworkRandom.host[19].udp outgoingDataRate:vector:mean 0
scalar GPSRNetworkRandom.host[19].udp outgoingDataRate:vector:stddev 0
scalar GPSRNetworkRandom.host[19].udp outgoingDataRate:vector:min 0
scalar GPSRNetworkRandom.host[19].udp outgoingDataRate:vector:max 0
scalar GPSRNetworkRandom.host[19].udp outgoingDataRate:vector:starttime 0.10000000000000001
scalar GPSRNetworkRandom.host[19].udp outgoingDataRate:vector:endtime 20
scalar GPSRNetworkRandom.host[19].udp packetReceived:vector(packetBytes):count 0
scalar GPSRNetworkRandom.host[19].udp packetReceived:vector(packetBytes):sum 0
scalar GPSRNetworkRandom.host[19].udp packetReceived:vector(packetBytes):sumweights 0
scalar GPSRNetworkRandom.host[19].udp packetReceived:vector(packetBytes):mean -nan
scalar GPSRNetworkRandom.host[19].udp packetReceived:vector(packetBytes):stddev nan
scalar GPSRNetworkRandom.host[19].udp packetReceived:vector(packetBytes):min inf
scalar GPSRNetworkRandom.host[19].udp packetReceived:vector(packetBytes):max -inf
scalar GPSRNetworkRandom.host[19].udp packetReceived:vector(packetBytes):starttime nan
scalar GPSRNetworkRandom.host[19].udp packetReceived:vector(packetBytes):endtime nan
scalar GPSRNetworkRandom.host[19].udp passedUpPk:vector(count):count 1
scalar GPSRNetworkRandom.host[19].udp passedUpPk:vector(count):sum 0
scalar GPSRNetworkRandom.host[19].udp passedUpPk:vector(count):sumweights 1
scalar GPSRNetworkRandom.host[19].udp passedUpPk:vector(count):mean 0
scalar GPSRNetworkRandom.host[19].udp passedUpPk:vector(count):stddev nan
scalar GPSRNetworkRandom.host[19].udp passedUpPk:vector(count):min 0
scalar GPSRNetworkRandom.host[19].udp passedUpPk:vector(count):max 0
scalar GPSRNetworkRandom.host[19].udp passedUpPk:vector(count):starttime 0
scalar GPSRNetworkRandom.host[19].udp passedUpPk:vector(count):endtime 0
scalar GPSRNetworkRandom.host[19].udp droppedPkWrongPort:vector(count):count 1
scalar GPSRNetworkRandom.host[19].udp droppedPkWrongPort:vector(count):sum 0
scalar GPSRNetworkRandom.host[19].udp droppedPkWrongPort:vector(count):sumweights 1
scalar GPSRNetworkRandom.host[19].udp droppedPkWrongPort:vector(count):mean 0
scalar GPSRNetworkRandom.host[19].udp droppedPkWrongPort:vector(count):stddev nan
scalar GPSRNetworkRandom.host[19].udp droppedPkWrongPort:vector(count):min 0
scalar GPSRNetworkRandom.host[19].udp droppedPkWrongPort:vector(count):max 0
scalar GPSRNetworkRandom.host[19].udp droppedPkWrongPort:vector(count):starttime 0
scalar GPSRNetworkRandom.host[19].udp droppedPkWrongPort:vector(count):endtime 0
scalar GPSRNetworkRandom.host[19].udp droppedPkBadChecksum:vector(count):count 1
scalar GPSRNetworkRandom.host[19].udp droppedPkBadChecksum:vector(count):sum 0
scalar GPSRNetworkRandom.host[19].udp droppedPkBadChecksum:vector(count):sumweights 1
scalar GPSRNetworkRandom.host[19].udp droppedPkBadChecksum:vector(count):mean 0
scalar GPSRNetworkRandom.host[19].udp droppedPkBadChecksum:vector(count):stddev nan
scalar GPSRNetworkRandom.host[19].udp droppedPkBadChecksum:vector(count):min 0
scalar GPSRNetworkRandom.host[19].udp droppedPkBadChecksum:vector(count):max 0
scalar GPSRNetworkRandom.host[19].udp droppedPkBadChecksum:vector(count):starttime 0
scalar GPSRNetworkRandom.host[19].udp droppedPkBadChecksum:vector(count):endtime 0
scalar GPSRNetworkRandom.host[19].app[0] rtt:vector:count 0
scalar GPSRNetworkRandom.host[19].app[0] rtt:vector:sum 0
scalar GPSRNetworkRandom.host[19].app[0] rtt:vector:sumweights 0
scalar GPSRNetworkRandom.host[19].app[0] rtt:vector:mean -nan
scalar GPSRNetworkRandom.host[19].app[0] rtt:vector:stddev nan
scalar GPSRNetworkRandom.host[19].app[0] rtt:vector:min inf
scalar GPSRNetworkRandom.host[19].app[0] rtt:vector:max -inf
scalar GPSRNetworkRandom.host[19].app[0] rtt:vector:starttime nan
scalar GPSRNetworkRandom.host[19].app[0] rtt:vector:endtime nan
scalar GPSRNetworkRandom.host[19].app[0] numLost:vector:count 0
scalar GPSRNetworkRandom.host[19].app[0] numLost:vector:sum 0
scalar GPSRNetworkRandom.host[19].app[0] numLost:vector:sumweights 0
scalar GPSRNetworkRandom.host[19].app[0] numLost:vector:mean -nan
scalar GPSRNetworkRandom.host[19].app[0] numLost:vector:stddev nan
scalar GPSRNetworkRandom.host[19].app[0] numLost:vector:min inf
scalar GPSRNetworkRandom.host[19].app[0] numLost:vector:max -inf
scalar GPSRNetworkRandom.host[19].app[0] numLost:vector:starttime nan
scalar GPSRNetworkRandom.host[19].app[0] numLost:vector:endtime nan
scalar GPSRNetworkRandom.host[19].app[0] numOutOfOrderArrivals:vector:count 0
scalar GPSRNetworkRandom.host[19].app[0] numOutOfOrderArrivals:vector:sum 0
scalar GPSRNetworkRandom.host[19].app[0] numOutOfOrderArrivals:vector:sumweights 0
scalar GPSRNetworkRandom.host[19].app[0] numOutOfOrderArrivals:vector:mean -nan
scalar GPSRNetworkRandom.host[19].app[0] numOutOfOrderArrivals:vector:stddev nan
scalar GPSRNetworkRandom.host[19].app[0] numOutOfOrderArrivals:vector:min inf
scalar GPSRNetworkRandom.host[19].app[0] numOutOfOrderArrivals:vector:max -inf
scalar GPSRNetworkRandom.host[19].app[0] numOutOfOrderArrivals:vector:starttime nan
scalar GPSRNetworkRandom.host[19].app[0] numOutOfOrderArrivals:vector:endtime nan
scalar GPSRNetworkRandom.host[19].app[0] pingTxSeq:vector:count 0
scalar GPSRNetworkRandom.host[19].app[0] pingTxSeq:vector:sum 0
scalar GPSRNetworkRandom.host[19].app[0] pingTxSeq:vector:sumweights 0
scalar GPSRNetworkRandom.host[19].app[0] pingTxSeq:vector:mean -nan
scalar GPSRNetworkRandom.host[19].app[0] pingTxSeq:vector:stddev nan
scalar GPSRNetworkRandom.host[19].app[0] pingTxSeq:vector:min inf
scalar GPSRNetworkRandom.host[19].app[0] pingTxSeq:vector:max -inf
scalar GPSRNetworkRandom.host[19].app[0] pingTxSeq:vector:starttime nan
scalar GPSRNetworkRandom.host[19].app[0] pingTxSeq:vector:endtime nan
scalar GPSRNetworkRandom.host[19].app[0] pingRxSeq:vector:count 0
scalar GPSRNetworkRandom.host[19].app[0] pingRxSeq:vector:sum 0
scalar GPSRNetworkRandom.host[19].app[0] pingRxSeq:vector:sumweights 0
scalar GPSRNetworkRandom.host[19].app[0] pingRxSeq:vector:mean -nan
scalar GPSRNetworkRandom.host[19].app[0] pingRxSeq:vector:stddev nan
scalar GPSRNetworkRandom.host[19].app[0] pingRxSeq:vector:min inf
scalar GPSRNetworkRandom.host[19].app[0] pingRxSeq:vector:max -inf
scalar GPSRNetworkRandom.host[19].app[0] pingRxSeq:vector:starttime nan
scalar GPSRNetworkRandom.host[19].app[0] pingRxSeq:vector:endtime nan

