version 3
run MultiIPv4-0-20260206-21:57:30-3560439
attr configname MultiIPv4
attr datetime 20260206-21:57:30
attr datetimef 20260206-215730
attr experiment MultiIPv4
attr inifile omnetpp.ini
attr iterationvars ""
attr iterationvarsd ""
attr iterationvarsf ""
attr measurement ""
attr network GPSRNetworkRandom
attr processid 3560439
attr repetition 0
attr replication #0
attr resultdir results
attr runnumber 0
attr seedset 0
config **.param-recording false
config image-path /home/attila/projects/inet/images
config output-scalar-file results/omnetpp.ini-MultiIPv4-#0.sca
config output-scalar-precision 17
config output-vector-file results/omnetpp.ini-MultiIPv4-#0.vec
config output-vector-precision 17
config record-eventlog false
config sim-time-limit 20s
config sim-time-limit 20s
config extends "Random, _Multi, _IPv4"
config network GPSRNetworkRandom
config *.numHosts 20
config **.host[*].mobility.typename StationaryMobility
config *.host[*].numApps 1
config *.host[*].app[0].typename PingApp
config *.host[*].app[0].startTime uniform(1s,5s)
config *.host[*].app[0].printPing true
config description "network layer for multiple network protocols"
config **.hasIpv4 true
config **.hasIpv6 true
config **.hasGn true
config **.generic.typename NextHopNetworkLayer
config description "base config for Ipv4"
config *.host[0].app[0].destAddr "\"host[1](ipv4)\""
config num-rngs 3
config **.mobility.rng-0 1
config **.wlan[*].mac.rng-0 2
config **.mobility.constraintAreaMinZ 0m
config **.mobility.constraintAreaMaxZ 0m
config **.mobility.constraintAreaMinX 0m
config **.mobility.constraintAreaMinY 0m
config **.mobility.constraintAreaMaxX 1000m
config **.mobility.constraintAreaMaxY 1000m
config **.wlan[*].bitrate 2Mbps
config **.wlan[*].mac.dcf.channelAccess.cwMin 7
config **.wlan[*].radio.transmitter.power 2mW

scalar GPSRNetworkRandom.radioMedium.propagation "Arrival computation count" 157605
scalar GPSRNetworkRandom.radioMedium "transmission count" 8295
scalar GPSRNetworkRandom.radioMedium "signal send count" 157605
scalar GPSRNetworkRandom.radioMedium "reception computation count" 157605
scalar GPSRNetworkRandom.radioMedium "interference computation count" 466835
scalar GPSRNetworkRandom.radioMedium "reception decision computation count" 25328
scalar GPSRNetworkRandom.radioMedium "listening decision computation count" 285572
scalar GPSRNetworkRandom.radioMedium "reception cache hit" 79.84876826946558
scalar GPSRNetworkRandom.radioMedium "interference cache hit" 66.666666666666671
scalar GPSRNetworkRandom.radioMedium "noise cache hit" 0
scalar GPSRNetworkRandom.radioMedium "snir cache hit" 50
scalar GPSRNetworkRandom.radioMedium "reception decision cache hit" 50
scalar GPSRNetworkRandom.radioMedium "reception result cache hit" 0
scalar GPSRNetworkRandom.host[0].lo[0].lo rcvdPkFromHl:count 0
scalar GPSRNetworkRandom.host[0].lo[0].lo rcvdPkFromHl:sum(packetBytes) 0
scalar GPSRNetworkRandom.host[0].lo[0].lo passedUpPk:count 0
scalar GPSRNetworkRandom.host[0].lo[0].lo passedUpPk:sum(packetBytes) 0
scalar GPSRNetworkRandom.host[0].lo[0] packetDropInterfaceDown:count 0
scalar GPSRNetworkRandom.host[0].lo[0] packetDropInterfaceDown:sum(packetBytes) 0
scalar GPSRNetworkRandom.host[0].lo[0] packetDropNoCarrier:count 0
scalar GPSRNetworkRandom.host[0].lo[0] packetDropNoCarrier:sum(packetBytes) 0
scalar GPSRNetworkRandom.host[0].wlan[0].mac.dcf.channelAccess.pendingQueue queueLength:last 0
scalar GPSRNetworkRandom.host[0].wlan[0].mac.dcf.channelAccess.pendingQueue queueLength:max 2
scalar GPSRNetworkRandom.host[0].wlan[0].mac.dcf.channelAccess.pendingQueue queueLength:timeavg 0.00061571416365000008
scalar GPSRNetworkRandom.host[0].wlan[0].mac.dcf.channelAccess.pendingQueue queueBitLength:last 0
scalar GPSRNetworkRandom.host[0].wlan[0].mac.dcf.channelAccess.pendingQueue queueBitLength:max 2560
scalar GPSRNetworkRandom.host[0].wlan[0].mac.dcf.channelAccess.pendingQueue queueBitLength:timeavg 0.67269021771999982
scalar GPSRNetworkRandom.host[0].wlan[0].mac.dcf.channelAccess.pendingQueue outgoingPackets:count 415
scalar GPSRNetworkRandom.host[0].wlan[0].mac.dcf.channelAccess.pendingQueue outgoingPacketLengths:sum 363840
scalar GPSRNetworkRandom.host[0].wlan[0].mac.dcf.channelAccess.pendingQueue incomingPackets:count 415
scalar GPSRNetworkRandom.host[0].wlan[0].mac.dcf.channelAccess.pendingQueue incomingPacketLengths:sum 363840
scalar GPSRNetworkRandom.host[0].wlan[0].mac.dcf.channelAccess.pendingQueue droppedPacketsQueueOverflow:count 0
scalar GPSRNetworkRandom.host[0].wlan[0].mac.dcf.channelAccess.pendingQueue droppedPacketLengthsQueueOverflow:sum 0
scalar GPSRNetworkRandom.host[0].wlan[0].mac.dcf.channelAccess.inProgressFrames queueLength:max 2
scalar GPSRNetworkRandom.host[0].wlan[0].mac.dcf.channelAccess.inProgressFrames queueLength:timeavg 0.014206075652400129
scalar GPSRNetworkRandom.host[0].wlan[0].mac.dcf.channelAccess.contention channelAccessGranted:count 422
scalar GPSRNetworkRandom.host[0].wlan[0].mac.dcf.channelAccess.contention stateChanged:count 7340
scalar GPSRNetworkRandom.host[0].wlan[0].mac.dcf.channelAccess channelOwnershipChanged:count 844
scalar GPSRNetworkRandom.host[0].wlan[0].mac.dcf.originatorMacDataService packetAggregated:count 0
scalar GPSRNetworkRandom.host[0].wlan[0].mac.dcf.originatorMacDataService packetFragmented:count 0
scalar GPSRNetworkRandom.host[0].wlan[0].mac.dcf.recipientMacDataService packetDeaggregated:count 0
scalar GPSRNetworkRandom.host[0].wlan[0].mac.dcf.recipientMacDataService packetDefragmented:count 625
scalar GPSRNetworkRandom.host[0].wlan[0].mac.dcf.recipientMacDataService packetDropDuplicateDetected:count 1
scalar GPSRNetworkRandom.host[0].wlan[0].mac.dcf.recipientMacDataService packetDropDuplicateDetected:sum(packetBytes) 160
scalar GPSRNetworkRandom.host[0].wlan[0].mac.dcf.recoveryProcedure retryLimitReached:count 0
scalar GPSRNetworkRandom.host[0].wlan[0].mac.dcf frameSequenceFinished:count 422
scalar GPSRNetworkRandom.host[0].wlan[0].mac.dcf packetReceivedFromPeer:count 642
scalar GPSRNetworkRandom.host[0].wlan[0].mac.dcf packetReceivedFromPeer:sum(packetBytes) 68012
scalar GPSRNetworkRandom.host[0].wlan[0].mac.dcf packetReceivedFromPeerUnicast:count 27
scalar GPSRNetworkRandom.host[0].wlan[0].mac.dcf packetReceivedFromPeerUnicast:sum(packetBytes) 1792
scalar GPSRNetworkRandom.host[0].wlan[0].mac.dcf packetReceivedFromPeerMulticast:count 615
scalar GPSRNetworkRandom.host[0].wlan[0].mac.dcf packetReceivedFromPeerMulticast:sum(packetBytes) 66220
scalar GPSRNetworkRandom.host[0].wlan[0].mac.dcf packetReceivedFromPeerBroadcast:count 612
scalar GPSRNetworkRandom.host[0].wlan[0].mac.dcf packetReceivedFromPeerBroadcast:sum(packetBytes) 65992
scalar GPSRNetworkRandom.host[0].wlan[0].mac.dcf packetReceivedFromPeerWithRetry:count 2
scalar GPSRNetworkRandom.host[0].wlan[0].mac.dcf packetReceivedFromPeerWithRetry:sum(packetBytes) 320
scalar GPSRNetworkRandom.host[0].wlan[0].mac.dcf packetReceivedFromPeerWithoutRetry:count 640
scalar GPSRNetworkRandom.host[0].wlan[0].mac.dcf packetReceivedFromPeerWithoutRetry:sum(packetBytes) 67692
scalar GPSRNetworkRandom.host[0].wlan[0].mac.dcf packetSentToPeer:count 433
scalar GPSRNetworkRandom.host[0].wlan[0].mac.dcf packetSentToPeer:sum(packetBytes) 46754
scalar GPSRNetworkRandom.host[0].wlan[0].mac.dcf packetSentToPeerUnicast:count 34
scalar GPSRNetworkRandom.host[0].wlan[0].mac.dcf packetSentToPeerUnicast:sum(packetBytes) 3834
scalar GPSRNetworkRandom.host[0].wlan[0].mac.dcf packetSentToPeerMulticast:count 399
scalar GPSRNetworkRandom.host[0].wlan[0].mac.dcf packetSentToPeerMulticast:sum(packetBytes) 42920
scalar GPSRNetworkRandom.host[0].wlan[0].mac.dcf packetSentToPeerBroadcast:count 398
scalar GPSRNetworkRandom.host[0].wlan[0].mac.dcf packetSentToPeerBroadcast:sum(packetBytes) 42844
scalar GPSRNetworkRandom.host[0].wlan[0].mac.dcf packetSentToPeerWithRetry:count 7
scalar GPSRNetworkRandom.host[0].wlan[0].mac.dcf packetSentToPeerWithRetry:sum(packetBytes) 1120
scalar GPSRNetworkRandom.host[0].wlan[0].mac.dcf packetSentToPeerWithoutRetry:count 426
scalar GPSRNetworkRandom.host[0].wlan[0].mac.dcf packetSentToPeerWithoutRetry:sum(packetBytes) 45634
scalar GPSRNetworkRandom.host[0].wlan[0].mac.dcf packetDrop:count 9
scalar GPSRNetworkRandom.host[0].wlan[0].mac.dcf packetDrop:sum(packetBytes) 710
scalar GPSRNetworkRandom.host[0].wlan[0].mac.dcf packetDropNotAddressedToUs:count 8
scalar GPSRNetworkRandom.host[0].wlan[0].mac.dcf packetDropNotAddressedToUs:sum(packetBytes) 550
scalar GPSRNetworkRandom.host[0].wlan[0].mac.dcf packetDropQueueOverflow:count 0
scalar GPSRNetworkRandom.host[0].wlan[0].mac.dcf packetDropQueueOverflow:sum(packetBytes) 0
scalar GPSRNetworkRandom.host[0].wlan[0].mac.dcf packetDropRetryLimitReached:count 0
scalar GPSRNetworkRandom.host[0].wlan[0].mac.dcf packetDropRetryLimitReached:sum(packetBytes) 0
scalar GPSRNetworkRandom.host[0].wlan[0].mac.dcf linkBroken:count 0
scalar GPSRNetworkRandom.host[0].wlan[0].mac packetReceivedFromLower:count 845
scalar GPSRNetworkRandom.host[0].wlan[0].mac packetReceivedFromLower:sum(packetBytes) 90162
scalar GPSRNetworkRandom.host[0].wlan[0].mac packetSentToLower:count 433
scalar GPSRNetworkRandom.host[0].wlan[0].mac packetSentToLower:sum(packetBytes) 46754
scalar GPSRNetworkRandom.host[0].wlan[0].mac packetReceivedFromUpper:count 415
scalar GPSRNetworkRandom.host[0].wlan[0].mac packetReceivedFromUpper:sum(packetBytes) 33860
scalar GPSRNetworkRandom.host[0].wlan[0].mac packetSentToUpper:count 625
scalar GPSRNetworkRandom.host[0].wlan[0].mac packetSentToUpper:sum(packetBytes) 50128
scalar GPSRNetworkRandom.host[0].wlan[0].mac packetDrop:count 204
scalar GPSRNetworkRandom.host[0].wlan[0].mac packetDrop:sum(packetBytes) 22310
scalar GPSRNetworkRandom.host[0].wlan[0].mac packetDropIncorrectlyReceived:count 195
scalar GPSRNetworkRandom.host[0].wlan[0].mac packetDropIncorrectlyReceived:sum(packetBytes) 21600
scalar GPSRNetworkRandom.host[0].wlan[0].mac packetDropNotAddressedToUs:count 8
scalar GPSRNetworkRandom.host[0].wlan[0].mac packetDropNotAddressedToUs:sum(packetBytes) 550
scalar GPSRNetworkRandom.host[0].wlan[0].mac packetDropQueueOverflow:count 0
scalar GPSRNetworkRandom.host[0].wlan[0].mac packetDropQueueOverflow:sum(packetBytes) 0
scalar GPSRNetworkRandom.host[0].wlan[0].mac packetDropRetryLimitReached:count 0
scalar GPSRNetworkRandom.host[0].wlan[0].mac packetDropRetryLimitReached:sum(packetBytes) 0
scalar GPSRNetworkRandom.host[0].wlan[0].mac packetDropDuplicateDetected:count 1
scalar GPSRNetworkRandom.host[0].wlan[0].mac packetDropDuplicateDetected:sum(packetBytes) 160
scalar GPSRNetworkRandom.host[0].wlan[0].mac packetDropOther:count 0
scalar GPSRNetworkRandom.host[0].wlan[0].mac packetDropOther:sum(packetBytes) 0
scalar GPSRNetworkRandom.host[0].wlan[0].mac linkBroken:count 0
scalar GPSRNetworkRandom.host[0].wlan[0].radio radioMode:count 869
scalar GPSRNetworkRandom.host[0].wlan[0].radio receptionState:count 2663
scalar GPSRNetworkRandom.host[0].wlan[0].radio transmissionState:count 1732
scalar GPSRNetworkRandom.host[0].wlan[0] packetDropInterfaceDown:count 0
scalar GPSRNetworkRandom.host[0].wlan[0] packetDropInterfaceDown:sum(packetBytes) 0
scalar GPSRNetworkRandom.host[0].wlan[0] packetDropNoCarrier:count 0
scalar GPSRNetworkRandom.host[0].wlan[0] packetDropNoCarrier:sum(packetBytes) 0
scalar GPSRNetworkRandom.host[0].ipv4.ip packetDropAddressResolutionFailed:count 0
scalar GPSRNetworkRandom.host[0].ipv4.ip packetDropAddressResolutionFailed:sum(packetBytes) 0
scalar GPSRNetworkRandom.host[0].ipv4.ip packetDropHopLimitReached:count 0
scalar GPSRNetworkRandom.host[0].ipv4.ip packetDropHopLimitReached:sum(packetBytes) 0
scalar GPSRNetworkRandom.host[0].ipv4.ip packetDropForwardingDisabled:count 0
scalar GPSRNetworkRandom.host[0].ipv4.ip packetDropForwardingDisabled:sum(packetBytes) 0
scalar GPSRNetworkRandom.host[0].ipv4.ip packetDropLifetimeExpired:count 0
scalar GPSRNetworkRandom.host[0].ipv4.ip packetDropLifetimeExpired:sum(packetBytes) 0
scalar GPSRNetworkRandom.host[0].ipv4.ip packetDropNoInterfaceFound:count 0
scalar GPSRNetworkRandom.host[0].ipv4.ip packetDropNoInterfaceFound:sum(packetBytes) 0
scalar GPSRNetworkRandom.host[0].ipv4.ip packetDropNoRouteFound:count 0
scalar GPSRNetworkRandom.host[0].ipv4.ip packetDropNoRouteFound:sum(packetBytes) 0
scalar GPSRNetworkRandom.host[0].ipv4.ip packetDropUndefined:count 0
scalar GPSRNetworkRandom.host[0].ipv4.ip packetDropUndefined:sum(packetBytes) 0
scalar GPSRNetworkRandom.host[0].ipv4.arp arpResolutionFailed:count 0
scalar GPSRNetworkRandom.host[0].ipv4.arp arpResolutionCompleted:count 4
scalar GPSRNetworkRandom.host[0].ipv4.arp arpResolutionInitiated:count 2
scalar GPSRNetworkRandom.host[0].ipv4.arp arpReplySent:count 0
scalar GPSRNetworkRandom.host[0].ipv4.arp arpReplySent:sum(packetBytes) 0
scalar GPSRNetworkRandom.host[0].ipv4.arp arpRequestSent:count 3
scalar GPSRNetworkRandom.host[0].ipv4.arp arpRequestSent:sum(packetBytes) 84
scalar GPSRNetworkRandom.host[0].ipv6.neighbourDiscovery startDad:count 1
scalar GPSRNetworkRandom.host[0].udp packetReceived:count 0
scalar GPSRNetworkRandom.host[0].udp packetReceived:sum(packetBytes) 0
scalar GPSRNetworkRandom.host[0].udp packetSent:count 0
scalar GPSRNetworkRandom.host[0].udp packetSent:sum(packetBytes) 0
scalar GPSRNetworkRandom.host[0].udp passedUpPk:count 0
scalar GPSRNetworkRandom.host[0].udp droppedPkWrongPort:count 0
scalar GPSRNetworkRandom.host[0].udp droppedPkBadChecksum:count 0
scalar GPSRNetworkRandom.host[0].app[0] "Pings sent" 17
scalar GPSRNetworkRandom.host[0].app[0] "ping loss rate (%)" 100
scalar GPSRNetworkRandom.host[0].app[0] "ping out-of-order rate (%)" 0
scalar GPSRNetworkRandom.host[0].app[0] pingRxSeq:count 0
scalar GPSRNetworkRandom.host[0].app[0] pingTxSeq:count 17
scalar GPSRNetworkRandom.host[0].app[0] numOutOfOrderArrivals:last nan
scalar GPSRNetworkRandom.host[0].app[0] numLost:last nan
scalar GPSRNetworkRandom.host[1].lo[0].lo rcvdPkFromHl:count 0
scalar GPSRNetworkRandom.host[1].lo[0].lo rcvdPkFromHl:sum(packetBytes) 0
scalar GPSRNetworkRandom.host[1].lo[0].lo passedUpPk:count 0
scalar GPSRNetworkRandom.host[1].lo[0].lo passedUpPk:sum(packetBytes) 0
scalar GPSRNetworkRandom.host[1].lo[0] packetDropInterfaceDown:count 0
scalar GPSRNetworkRandom.host[1].lo[0] packetDropInterfaceDown:sum(packetBytes) 0
scalar GPSRNetworkRandom.host[1].lo[0] packetDropNoCarrier:count 0
scalar GPSRNetworkRandom.host[1].lo[0] packetDropNoCarrier:sum(packetBytes) 0
scalar GPSRNetworkRandom.host[1].wlan[0].mac.dcf.channelAccess.pendingQueue queueLength:last 0
scalar GPSRNetworkRandom.host[1].wlan[0].mac.dcf.channelAccess.pendingQueue queueLength:max 1
scalar GPSRNetworkRandom.host[1].wlan[0].mac.dcf.channelAccess.pendingQueue queueLength:timeavg 0.00048823302980000006
scalar GPSRNetworkRandom.host[1].wlan[0].mac.dcf.channelAccess.pendingQueue queueBitLength:last 0
scalar GPSRNetworkRandom.host[1].wlan[0].mac.dcf.channelAccess.pendingQueue queueBitLength:max 1280
scalar GPSRNetworkRandom.host[1].wlan[0].mac.dcf.channelAccess.pendingQueue queueBitLength:timeavg 0.42074841287039993
scalar GPSRNetworkRandom.host[1].wlan[0].mac.dcf.channelAccess.pendingQueue outgoingPackets:count 413
scalar GPSRNetworkRandom.host[1].wlan[0].mac.dcf.channelAccess.pendingQueue outgoingPacketLengths:sum 356320
scalar GPSRNetworkRandom.host[1].wlan[0].mac.dcf.channelAccess.pendingQueue incomingPackets:count 413
scalar GPSRNetworkRandom.host[1].wlan[0].mac.dcf.channelAccess.pendingQueue incomingPacketLengths:sum 356320
scalar GPSRNetworkRandom.host[1].wlan[0].mac.dcf.channelAccess.pendingQueue droppedPacketsQueueOverflow:count 0
scalar GPSRNetworkRandom.host[1].wlan[0].mac.dcf.channelAccess.pendingQueue droppedPacketLengthsQueueOverflow:sum 0
scalar GPSRNetworkRandom.host[1].wlan[0].mac.dcf.channelAccess.inProgressFrames queueLength:max 1
scalar GPSRNetworkRandom.host[1].wlan[0].mac.dcf.channelAccess.inProgressFrames queueLength:timeavg 0.012898716884400136
scalar GPSRNetworkRandom.host[1].wlan[0].mac.dcf.channelAccess.contention channelAccessGranted:count 413
scalar GPSRNetworkRandom.host[1].wlan[0].mac.dcf.channelAccess.contention stateChanged:count 8498
scalar GPSRNetworkRandom.host[1].wlan[0].mac.dcf.channelAccess channelOwnershipChanged:count 826
scalar GPSRNetworkRandom.host[1].wlan[0].mac.dcf.originatorMacDataService packetAggregated:count 0
scalar GPSRNetworkRandom.host[1].wlan[0].mac.dcf.originatorMacDataService packetFragmented:count 0
scalar GPSRNetworkRandom.host[1].wlan[0].mac.dcf.recipientMacDataService packetDeaggregated:count 0
scalar GPSRNetworkRandom.host[1].wlan[0].mac.dcf.recipientMacDataService packetDefragmented:count 1156
scalar GPSRNetworkRandom.host[1].wlan[0].mac.dcf.recipientMacDataService packetDropDuplicateDetected:count 0
scalar GPSRNetworkRandom.host[1].wlan[0].mac.dcf.recipientMacDataService packetDropDuplicateDetected:sum(packetBytes) 0
scalar GPSRNetworkRandom.host[1].wlan[0].mac.dcf.recoveryProcedure retryLimitReached:count 0
scalar GPSRNetworkRandom.host[1].wlan[0].mac.dcf frameSequenceFinished:count 413
scalar GPSRNetworkRandom.host[1].wlan[0].mac.dcf packetReceivedFromPeer:count 1158
scalar GPSRNetworkRandom.host[1].wlan[0].mac.dcf packetReceivedFromPeer:sum(packetBytes) 124780
scalar GPSRNetworkRandom.host[1].wlan[0].mac.dcf packetReceivedFromPeerUnicast:count 4
scalar GPSRNetworkRandom.host[1].wlan[0].mac.dcf packetReceivedFromPeerUnicast:sum(packetBytes) 360
scalar GPSRNetworkRandom.host[1].wlan[0].mac.dcf packetReceivedFromPeerMulticast:count 1154
scalar GPSRNetworkRandom.host[1].wlan[0].mac.dcf packetReceivedFromPeerMulticast:sum(packetBytes) 124420
scalar GPSRNetworkRandom.host[1].wlan[0].mac.dcf packetReceivedFromPeerBroadcast:count 1152
scalar GPSRNetworkRandom.host[1].wlan[0].mac.dcf packetReceivedFromPeerBroadcast:sum(packetBytes) 124268
scalar GPSRNetworkRandom.host[1].wlan[0].mac.dcf packetReceivedFromPeerWithRetry:count 0
scalar GPSRNetworkRandom.host[1].wlan[0].mac.dcf packetReceivedFromPeerWithRetry:sum(packetBytes) 0
scalar GPSRNetworkRandom.host[1].wlan[0].mac.dcf packetReceivedFromPeerWithoutRetry:count 1158
scalar GPSRNetworkRandom.host[1].wlan[0].mac.dcf packetReceivedFromPeerWithoutRetry:sum(packetBytes) 124780
scalar GPSRNetworkRandom.host[1].wlan[0].mac.dcf packetSentToPeer:count 415
scalar GPSRNetworkRandom.host[1].wlan[0].mac.dcf packetSentToPeer:sum(packetBytes) 44568
scalar GPSRNetworkRandom.host[1].wlan[0].mac.dcf packetSentToPeerUnicast:count 4
scalar GPSRNetworkRandom.host[1].wlan[0].mac.dcf packetSentToPeerUnicast:sum(packetBytes) 252
scalar GPSRNetworkRandom.host[1].wlan[0].mac.dcf packetSentToPeerMulticast:count 411
scalar GPSRNetworkRandom.host[1].wlan[0].mac.dcf packetSentToPeerMulticast:sum(packetBytes) 44316
scalar GPSRNetworkRandom.host[1].wlan[0].mac.dcf packetSentToPeerBroadcast:count 409
scalar GPSRNetworkRandom.host[1].wlan[0].mac.dcf packetSentToPeerBroadcast:sum(packetBytes) 44164
scalar GPSRNetworkRandom.host[1].wlan[0].mac.dcf packetSentToPeerWithRetry:count 0
scalar GPSRNetworkRandom.host[1].wlan[0].mac.dcf packetSentToPeerWithRetry:sum(packetBytes) 0
scalar GPSRNetworkRandom.host[1].wlan[0].mac.dcf packetSentToPeerWithoutRetry:count 415
scalar GPSRNetworkRandom.host[1].wlan[0].mac.dcf packetSentToPeerWithoutRetry:sum(packetBytes) 44568
scalar GPSRNetworkRandom.host[1].wlan[0].mac.dcf packetDrop:count 23
scalar GPSRNetworkRandom.host[1].wlan[0].mac.dcf packetDrop:sum(packetBytes) 1640
scalar GPSRNetworkRandom.host[1].wlan[0].mac.dcf packetDropNotAddressedToUs:count 23
scalar GPSRNetworkRandom.host[1].wlan[0].mac.dcf packetDropNotAddressedToUs:sum(packetBytes) 1640
scalar GPSRNetworkRandom.host[1].wlan[0].mac.dcf packetDropQueueOverflow:count 0
scalar GPSRNetworkRandom.host[1].wlan[0].mac.dcf packetDropQueueOverflow:sum(packetBytes) 0
scalar GPSRNetworkRandom.host[1].wlan[0].mac.dcf packetDropRetryLimitReached:count 0
scalar GPSRNetworkRandom.host[1].wlan[0].mac.dcf packetDropRetryLimitReached:sum(packetBytes) 0
scalar GPSRNetworkRandom.host[1].wlan[0].mac.dcf linkBroken:count 0
scalar GPSRNetworkRandom.host[1].wlan[0].mac packetReceivedFromLower:count 1255
scalar GPSRNetworkRandom.host[1].wlan[0].mac packetReceivedFromLower:sum(packetBytes) 134580
scalar GPSRNetworkRandom.host[1].wlan[0].mac packetSentToLower:count 415
scalar GPSRNetworkRandom.host[1].wlan[0].mac packetSentToLower:sum(packetBytes) 44568
scalar GPSRNetworkRandom.host[1].wlan[0].mac packetReceivedFromUpper:count 413
scalar GPSRNetworkRandom.host[1].wlan[0].mac packetReceivedFromUpper:sum(packetBytes) 32976
scalar GPSRNetworkRandom.host[1].wlan[0].mac packetSentToUpper:count 1156
scalar GPSRNetworkRandom.host[1].wlan[0].mac packetSentToUpper:sum(packetBytes) 92384
scalar GPSRNetworkRandom.host[1].wlan[0].mac packetDrop:count 97
scalar GPSRNetworkRandom.host[1].wlan[0].mac packetDrop:sum(packetBytes) 9800
scalar GPSRNetworkRandom.host[1].wlan[0].mac packetDropIncorrectlyReceived:count 74
scalar GPSRNetworkRandom.host[1].wlan[0].mac packetDropIncorrectlyReceived:sum(packetBytes) 8160
scalar GPSRNetworkRandom.host[1].wlan[0].mac packetDropNotAddressedToUs:count 23
scalar GPSRNetworkRandom.host[1].wlan[0].mac packetDropNotAddressedToUs:sum(packetBytes) 1640
scalar GPSRNetworkRandom.host[1].wlan[0].mac packetDropQueueOverflow:count 0
scalar GPSRNetworkRandom.host[1].wlan[0].mac packetDropQueueOverflow:sum(packetBytes) 0
scalar GPSRNetworkRandom.host[1].wlan[0].mac packetDropRetryLimitReached:count 0
scalar GPSRNetworkRandom.host[1].wlan[0].mac packetDropRetryLimitReached:sum(packetBytes) 0
scalar GPSRNetworkRandom.host[1].wlan[0].mac packetDropDuplicateDetected:count 0
scalar GPSRNetworkRandom.host[1].wlan[0].mac packetDropDuplicateDetected:sum(packetBytes) 0
scalar GPSRNetworkRandom.host[1].wlan[0].mac packetDropOther:count 0
scalar GPSRNetworkRandom.host[1].wlan[0].mac packetDropOther:sum(packetBytes) 0
scalar GPSRNetworkRandom.host[1].wlan[0].mac linkBroken:count 0
scalar GPSRNetworkRandom.host[1].wlan[0].radio radioMode:count 833
scalar GPSRNetworkRandom.host[1].wlan[0].radio receptionState:count 3341
scalar GPSRNetworkRandom.host[1].wlan[0].radio transmissionState:count 1660
scalar GPSRNetworkRandom.host[1].wlan[0] packetDropInterfaceDown:count 0
scalar GPSRNetworkRandom.host[1].wlan[0] packetDropInterfaceDown:sum(packetBytes) 0
scalar GPSRNetworkRandom.host[1].wlan[0] packetDropNoCarrier:count 0
scalar GPSRNetworkRandom.host[1].wlan[0] packetDropNoCarrier:sum(packetBytes) 0
scalar GPSRNetworkRandom.host[1].ipv4.ip packetDropAddressResolutionFailed:count 0
scalar GPSRNetworkRandom.host[1].ipv4.ip packetDropAddressResolutionFailed:sum(packetBytes) 0
scalar GPSRNetworkRandom.host[1].ipv4.ip packetDropHopLimitReached:count 0
scalar GPSRNetworkRandom.host[1].ipv4.ip packetDropHopLimitReached:sum(packetBytes) 0
scalar GPSRNetworkRandom.host[1].ipv4.ip packetDropForwardingDisabled:count 0
scalar GPSRNetworkRandom.host[1].ipv4.ip packetDropForwardingDisabled:sum(packetBytes) 0
scalar GPSRNetworkRandom.host[1].ipv4.ip packetDropLifetimeExpired:count 0
scalar GPSRNetworkRandom.host[1].ipv4.ip packetDropLifetimeExpired:sum(packetBytes) 0
scalar GPSRNetworkRandom.host[1].ipv4.ip packetDropNoInterfaceFound:count 0
scalar GPSRNetworkRandom.host[1].ipv4.ip packetDropNoInterfaceFound:sum(packetBytes) 0
scalar GPSRNetworkRandom.host[1].ipv4.ip packetDropNoRouteFound:count 0
scalar GPSRNetworkRandom.host[1].ipv4.ip packetDropNoRouteFound:sum(packetBytes) 0
scalar GPSRNetworkRandom.host[1].ipv4.ip packetDropUndefined:count 0
scalar GPSRNetworkRandom.host[1].ipv4.ip packetDropUndefined:sum(packetBytes) 0
scalar GPSRNetworkRandom.host[1].ipv4.arp arpResolutionFailed:count 0
scalar GPSRNetworkRandom.host[1].ipv4.arp arpResolutionCompleted:count 2
scalar GPSRNetworkRandom.host[1].ipv4.arp arpResolutionInitiated:count 0
scalar GPSRNetworkRandom.host[1].ipv4.arp arpReplySent:count 1
scalar GPSRNetworkRandom.host[1].ipv4.arp arpReplySent:sum(packetBytes) 28
scalar GPSRNetworkRandom.host[1].ipv4.arp arpRequestSent:count 0
scalar GPSRNetworkRandom.host[1].ipv4.arp arpRequestSent:sum(packetBytes) 0
scalar GPSRNetworkRandom.host[1].ipv6.neighbourDiscovery startDad:count 1
scalar GPSRNetworkRandom.host[1].udp packetReceived:count 0
scalar GPSRNetworkRandom.host[1].udp packetReceived:sum(packetBytes) 0
scalar GPSRNetworkRandom.host[1].udp packetSent:count 0
scalar GPSRNetworkRandom.host[1].udp packetSent:sum(packetBytes) 0
scalar GPSRNetworkRandom.host[1].udp passedUpPk:count 0
scalar GPSRNetworkRandom.host[1].udp droppedPkWrongPort:count 0
scalar GPSRNetworkRandom.host[1].udp droppedPkBadChecksum:count 0
scalar GPSRNetworkRandom.host[1].app[0] pingRxSeq:count 0
scalar GPSRNetworkRandom.host[1].app[0] pingTxSeq:count 0
scalar GPSRNetworkRandom.host[1].app[0] numOutOfOrderArrivals:last nan
scalar GPSRNetworkRandom.host[1].app[0] numLost:last nan
scalar GPSRNetworkRandom.host[2].lo[0].lo rcvdPkFromHl:count 0
scalar GPSRNetworkRandom.host[2].lo[0].lo rcvdPkFromHl:sum(packetBytes) 0
scalar GPSRNetworkRandom.host[2].lo[0].lo passedUpPk:count 0
scalar GPSRNetworkRandom.host[2].lo[0].lo passedUpPk:sum(packetBytes) 0
scalar GPSRNetworkRandom.host[2].lo[0] packetDropInterfaceDown:count 0
scalar GPSRNetworkRandom.host[2].lo[0] packetDropInterfaceDown:sum(packetBytes) 0
scalar GPSRNetworkRandom.host[2].lo[0] packetDropNoCarrier:count 0
scalar GPSRNetworkRandom.host[2].lo[0] packetDropNoCarrier:sum(packetBytes) 0
scalar GPSRNetworkRandom.host[2].wlan[0].mac.dcf.channelAccess.pendingQueue queueLength:last 0
scalar GPSRNetworkRandom.host[2].wlan[0].mac.dcf.channelAccess.pendingQueue queueLength:max 1
scalar GPSRNetworkRandom.host[2].wlan[0].mac.dcf.channelAccess.pendingQueue queueLength:timeavg 0.00043927244250000001
scalar GPSRNetworkRandom.host[2].wlan[0].mac.dcf.channelAccess.pendingQueue queueBitLength:last 0
scalar GPSRNetworkRandom.host[2].wlan[0].mac.dcf.channelAccess.pendingQueue queueBitLength:max 1280
scalar GPSRNetworkRandom.host[2].wlan[0].mac.dcf.channelAccess.pendingQueue queueBitLength:timeavg 0.39232819031999999
scalar GPSRNetworkRandom.host[2].wlan[0].mac.dcf.channelAccess.pendingQueue outgoingPackets:count 406
scalar GPSRNetworkRandom.host[2].wlan[0].mac.dcf.channelAccess.pendingQueue outgoingPacketLengths:sum 350688
scalar GPSRNetworkRandom.host[2].wlan[0].mac.dcf.channelAccess.pendingQueue incomingPackets:count 406
scalar GPSRNetworkRandom.host[2].wlan[0].mac.dcf.channelAccess.pendingQueue incomingPacketLengths:sum 350688
scalar GPSRNetworkRandom.host[2].wlan[0].mac.dcf.channelAccess.pendingQueue droppedPacketsQueueOverflow:count 0
scalar GPSRNetworkRandom.host[2].wlan[0].mac.dcf.channelAccess.pendingQueue droppedPacketLengthsQueueOverflow:sum 0
scalar GPSRNetworkRandom.host[2].wlan[0].mac.dcf.channelAccess.inProgressFrames queueLength:max 1
scalar GPSRNetworkRandom.host[2].wlan[0].mac.dcf.channelAccess.inProgressFrames queueLength:timeavg 0.012743478503600131
scalar GPSRNetworkRandom.host[2].wlan[0].mac.dcf.channelAccess.contention channelAccessGranted:count 407
scalar GPSRNetworkRandom.host[2].wlan[0].mac.dcf.channelAccess.contention stateChanged:count 8102
scalar GPSRNetworkRandom.host[2].wlan[0].mac.dcf.channelAccess channelOwnershipChanged:count 814
scalar GPSRNetworkRandom.host[2].wlan[0].mac.dcf.originatorMacDataService packetAggregated:count 0
scalar GPSRNetworkRandom.host[2].wlan[0].mac.dcf.originatorMacDataService packetFragmented:count 0
scalar GPSRNetworkRandom.host[2].wlan[0].mac.dcf.recipientMacDataService packetDeaggregated:count 0
scalar GPSRNetworkRandom.host[2].wlan[0].mac.dcf.recipientMacDataService packetDefragmented:count 583
scalar GPSRNetworkRandom.host[2].wlan[0].mac.dcf.recipientMacDataService packetDropDuplicateDetected:count 0
scalar GPSRNetworkRandom.host[2].wlan[0].mac.dcf.recipientMacDataService packetDropDuplicateDetected:sum(packetBytes) 0
scalar GPSRNetworkRandom.host[2].wlan[0].mac.dcf.recoveryProcedure retryLimitReached:count 0
scalar GPSRNetworkRandom.host[2].wlan[0].mac.dcf frameSequenceFinished:count 407
scalar GPSRNetworkRandom.host[2].wlan[0].mac.dcf packetReceivedFromPeer:count 586
scalar GPSRNetworkRandom.host[2].wlan[0].mac.dcf packetReceivedFromPeer:sum(packetBytes) 62958
scalar GPSRNetworkRandom.host[2].wlan[0].mac.dcf packetReceivedFromPeerUnicast:count 5
scalar GPSRNetworkRandom.host[2].wlan[0].mac.dcf packetReceivedFromPeerUnicast:sum(packetBytes) 362
scalar GPSRNetworkRandom.host[2].wlan[0].mac.dcf packetReceivedFromPeerMulticast:count 581
scalar GPSRNetworkRandom.host[2].wlan[0].mac.dcf packetReceivedFromPeerMulticast:sum(packetBytes) 62596
scalar GPSRNetworkRandom.host[2].wlan[0].mac.dcf packetReceivedFromPeerBroadcast:count 579
scalar GPSRNetworkRandom.host[2].wlan[0].mac.dcf packetReceivedFromPeerBroadcast:sum(packetBytes) 62444
scalar GPSRNetworkRandom.host[2].wlan[0].mac.dcf packetReceivedFromPeerWithRetry:count 1
scalar GPSRNetworkRandom.host[2].wlan[0].mac.dcf packetReceivedFromPeerWithRetry:sum(packetBytes) 160
scalar GPSRNetworkRandom.host[2].wlan[0].mac.dcf packetReceivedFromPeerWithoutRetry:count 585
scalar GPSRNetworkRandom.host[2].wlan[0].mac.dcf packetReceivedFromPeerWithoutRetry:sum(packetBytes) 62798
scalar GPSRNetworkRandom.host[2].wlan[0].mac.dcf packetSentToPeer:count 409
scalar GPSRNetworkRandom.host[2].wlan[0].mac.dcf packetSentToPeer:sum(packetBytes) 43928
scalar GPSRNetworkRandom.host[2].wlan[0].mac.dcf packetSentToPeerUnicast:count 6
scalar GPSRNetworkRandom.host[2].wlan[0].mac.dcf packetSentToPeerUnicast:sum(packetBytes) 476
scalar GPSRNetworkRandom.host[2].wlan[0].mac.dcf packetSentToPeerMulticast:count 403
scalar GPSRNetworkRandom.host[2].wlan[0].mac.dcf packetSentToPeerMulticast:sum(packetBytes) 43452
scalar GPSRNetworkRandom.host[2].wlan[0].mac.dcf packetSentToPeerBroadcast:count 401
scalar GPSRNetworkRandom.host[2].wlan[0].mac.dcf packetSentToPeerBroadcast:sum(packetBytes) 43300
scalar GPSRNetworkRandom.host[2].wlan[0].mac.dcf packetSentToPeerWithRetry:count 1
scalar GPSRNetworkRandom.host[2].wlan[0].mac.dcf packetSentToPeerWithRetry:sum(packetBytes) 64
scalar GPSRNetworkRandom.host[2].wlan[0].mac.dcf packetSentToPeerWithoutRetry:count 408
scalar GPSRNetworkRandom.host[2].wlan[0].mac.dcf packetSentToPeerWithoutRetry:sum(packetBytes) 43864
scalar GPSRNetworkRandom.host[2].wlan[0].mac.dcf packetDrop:count 10
scalar GPSRNetworkRandom.host[2].wlan[0].mac.dcf packetDrop:sum(packetBytes) 678
scalar GPSRNetworkRandom.host[2].wlan[0].mac.dcf packetDropNotAddressedToUs:count 10
scalar GPSRNetworkRandom.host[2].wlan[0].mac.dcf packetDropNotAddressedToUs:sum(packetBytes) 678
scalar GPSRNetworkRandom.host[2].wlan[0].mac.dcf packetDropQueueOverflow:count 0
scalar GPSRNetworkRandom.host[2].wlan[0].mac.dcf packetDropQueueOverflow:sum(packetBytes) 0
scalar GPSRNetworkRandom.host[2].wlan[0].mac.dcf packetDropRetryLimitReached:count 0
scalar GPSRNetworkRandom.host[2].wlan[0].mac.dcf packetDropRetryLimitReached:sum(packetBytes) 0
scalar GPSRNetworkRandom.host[2].wlan[0].mac.dcf linkBroken:count 0
scalar GPSRNetworkRandom.host[2].wlan[0].mac packetReceivedFromLower:count 826
scalar GPSRNetworkRandom.host[2].wlan[0].mac packetReceivedFromLower:sum(packetBytes) 88532
scalar GPSRNetworkRandom.host[2].wlan[0].mac packetSentToLower:count 409
scalar GPSRNetworkRandom.host[2].wlan[0].mac packetSentToLower:sum(packetBytes) 43928
scalar GPSRNetworkRandom.host[2].wlan[0].mac packetReceivedFromUpper:count 406
scalar GPSRNetworkRandom.host[2].wlan[0].mac packetReceivedFromUpper:sum(packetBytes) 32468
scalar GPSRNetworkRandom.host[2].wlan[0].mac packetSentToUpper:count 583
scalar GPSRNetworkRandom.host[2].wlan[0].mac packetSentToUpper:sum(packetBytes) 46592
scalar GPSRNetworkRandom.host[2].wlan[0].mac packetDrop:count 240
scalar GPSRNetworkRandom.host[2].wlan[0].mac packetDrop:sum(packetBytes) 25574
scalar GPSRNetworkRandom.host[2].wlan[0].mac packetDropIncorrectlyReceived:count 230
scalar GPSRNetworkRandom.host[2].wlan[0].mac packetDropIncorrectlyReceived:sum(packetBytes) 24896
scalar GPSRNetworkRandom.host[2].wlan[0].mac packetDropNotAddressedToUs:count 10
scalar GPSRNetworkRandom.host[2].wlan[0].mac packetDropNotAddressedToUs:sum(packetBytes) 678
scalar GPSRNetworkRandom.host[2].wlan[0].mac packetDropQueueOverflow:count 0
scalar GPSRNetworkRandom.host[2].wlan[0].mac packetDropQueueOverflow:sum(packetBytes) 0
scalar GPSRNetworkRandom.host[2].wlan[0].mac packetDropRetryLimitReached:count 0
scalar GPSRNetworkRandom.host[2].wlan[0].mac packetDropRetryLimitReached:sum(packetBytes) 0
scalar GPSRNetworkRandom.host[2].wlan[0].mac packetDropDuplicateDetected:count 0
scalar GPSRNetworkRandom.host[2].wlan[0].mac packetDropDuplicateDetected:sum(packetBytes) 0
scalar GPSRNetworkRandom.host[2].wlan[0].mac packetDropOther:count 0
scalar GPSRNetworkRandom.host[2].wlan[0].mac packetDropOther:sum(packetBytes) 0
scalar GPSRNetworkRandom.host[2].wlan[0].mac linkBroken:count 0
scalar GPSRNetworkRandom.host[2].wlan[0].radio radioMode:count 821
scalar GPSRNetworkRandom.host[2].wlan[0].radio receptionState:count 3012
scalar GPSRNetworkRandom.host[2].wlan[0].radio transmissionState:count 1636
scalar GPSRNetworkRandom.host[2].wlan[0] packetDropInterfaceDown:count 0
scalar GPSRNetworkRandom.host[2].wlan[0] packetDropInterfaceDown:sum(packetBytes) 0
scalar GPSRNetworkRandom.host[2].wlan[0] packetDropNoCarrier:count 0
scalar GPSRNetworkRandom.host[2].wlan[0] packetDropNoCarrier:sum(packetBytes) 0
scalar GPSRNetworkRandom.host[2].ipv4.ip packetDropAddressResolutionFailed:count 0
scalar GPSRNetworkRandom.host[2].ipv4.ip packetDropAddressResolutionFailed:sum(packetBytes) 0
scalar GPSRNetworkRandom.host[2].ipv4.ip packetDropHopLimitReached:count 0
scalar GPSRNetworkRandom.host[2].ipv4.ip packetDropHopLimitReached:sum(packetBytes) 0
scalar GPSRNetworkRandom.host[2].ipv4.ip packetDropForwardingDisabled:count 0
scalar GPSRNetworkRandom.host[2].ipv4.ip packetDropForwardingDisabled:sum(packetBytes) 0
scalar GPSRNetworkRandom.host[2].ipv4.ip packetDropLifetimeExpired:count 0
scalar GPSRNetworkRandom.host[2].ipv4.ip packetDropLifetimeExpired:sum(packetBytes) 0
scalar GPSRNetworkRandom.host[2].ipv4.ip packetDropNoInterfaceFound:count 0
scalar GPSRNetworkRandom.host[2].ipv4.ip packetDropNoInterfaceFound:sum(packetBytes) 0
scalar GPSRNetworkRandom.host[2].ipv4.ip packetDropNoRouteFound:count 0
scalar GPSRNetworkRandom.host[2].ipv4.ip packetDropNoRouteFound:sum(packetBytes) 0
scalar GPSRNetworkRandom.host[2].ipv4.ip packetDropUndefined:count 0
scalar GPSRNetworkRandom.host[2].ipv4.ip packetDropUndefined:sum(packetBytes) 0
scalar GPSRNetworkRandom.host[2].ipv4.arp arpResolutionFailed:count 0
scalar GPSRNetworkRandom.host[2].ipv4.arp arpResolutionCompleted:count 1
scalar GPSRNetworkRandom.host[2].ipv4.arp arpResolutionInitiated:count 0
scalar GPSRNetworkRandom.host[2].ipv4.arp arpReplySent:count 1
scalar GPSRNetworkRandom.host[2].ipv4.arp arpReplySent:sum(packetBytes) 28
scalar GPSRNetworkRandom.host[2].ipv4.arp arpRequestSent:count 0
scalar GPSRNetworkRandom.host[2].ipv4.arp arpRequestSent:sum(packetBytes) 0
scalar GPSRNetworkRandom.host[2].ipv6.neighbourDiscovery startDad:count 1
scalar GPSRNetworkRandom.host[2].udp packetReceived:count 0
scalar GPSRNetworkRandom.host[2].udp packetReceived:sum(packetBytes) 0
scalar GPSRNetworkRandom.host[2].udp packetSent:count 0
scalar GPSRNetworkRandom.host[2].udp packetSent:sum(packetBytes) 0
scalar GPSRNetworkRandom.host[2].udp passedUpPk:count 0
scalar GPSRNetworkRandom.host[2].udp droppedPkWrongPort:count 0
scalar GPSRNetworkRandom.host[2].udp droppedPkBadChecksum:count 0
scalar GPSRNetworkRandom.host[2].app[0] pingRxSeq:count 0
scalar GPSRNetworkRandom.host[2].app[0] pingTxSeq:count 0
scalar GPSRNetworkRandom.host[2].app[0] numOutOfOrderArrivals:last nan
scalar GPSRNetworkRandom.host[2].app[0] numLost:last nan
scalar GPSRNetworkRandom.host[3].lo[0].lo rcvdPkFromHl:count 0
scalar GPSRNetworkRandom.host[3].lo[0].lo rcvdPkFromHl:sum(packetBytes) 0
scalar GPSRNetworkRandom.host[3].lo[0].lo passedUpPk:count 0
scalar GPSRNetworkRandom.host[3].lo[0].lo passedUpPk:sum(packetBytes) 0
scalar GPSRNetworkRandom.host[3].lo[0] packetDropInterfaceDown:count 0
scalar GPSRNetworkRandom.host[3].lo[0] packetDropInterfaceDown:sum(packetBytes) 0
scalar GPSRNetworkRandom.host[3].lo[0] packetDropNoCarrier:count 0
scalar GPSRNetworkRandom.host[3].lo[0] packetDropNoCarrier:sum(packetBytes) 0
scalar GPSRNetworkRandom.host[3].wlan[0].mac.dcf.channelAccess.pendingQueue queueLength:last 0
scalar GPSRNetworkRandom.host[3].wlan[0].mac.dcf.channelAccess.pendingQueue queueLength:max 1
scalar GPSRNetworkRandom.host[3].wlan[0].mac.dcf.channelAccess.pendingQueue queueLength:timeavg 0.00087422674829999996
scalar GPSRNetworkRandom.host[3].wlan[0].mac.dcf.channelAccess.pendingQueue queueBitLength:last 0
scalar GPSRNetworkRandom.host[3].wlan[0].mac.dcf.channelAccess.pendingQueue queueBitLength:max 1280
scalar GPSRNetworkRandom.host[3].wlan[0].mac.dcf.channelAccess.pendingQueue queueBitLength:timeavg 0.79655648032960014
scalar GPSRNetworkRandom.host[3].wlan[0].mac.dcf.channelAccess.pendingQueue outgoingPackets:count 403
scalar GPSRNetworkRandom.host[3].wlan[0].mac.dcf.channelAccess.pendingQueue outgoingPacketLengths:sum 348480
scalar GPSRNetworkRandom.host[3].wlan[0].mac.dcf.channelAccess.pendingQueue incomingPackets:count 403
scalar GPSRNetworkRandom.host[3].wlan[0].mac.dcf.channelAccess.pendingQueue incomingPacketLengths:sum 348480
scalar GPSRNetworkRandom.host[3].wlan[0].mac.dcf.channelAccess.pendingQueue droppedPacketsQueueOverflow:count 0
scalar GPSRNetworkRandom.host[3].wlan[0].mac.dcf.channelAccess.pendingQueue droppedPacketLengthsQueueOverflow:sum 0
scalar GPSRNetworkRandom.host[3].wlan[0].mac.dcf.channelAccess.inProgressFrames queueLength:max 1
scalar GPSRNetworkRandom.host[3].wlan[0].mac.dcf.channelAccess.inProgressFrames queueLength:timeavg 0.012658526754700129
scalar GPSRNetworkRandom.host[3].wlan[0].mac.dcf.channelAccess.contention channelAccessGranted:count 403
scalar GPSRNetworkRandom.host[3].wlan[0].mac.dcf.channelAccess.contention stateChanged:count 12642
scalar GPSRNetworkRandom.host[3].wlan[0].mac.dcf.channelAccess channelOwnershipChanged:count 806
scalar GPSRNetworkRandom.host[3].wlan[0].mac.dcf.originatorMacDataService packetAggregated:count 0
scalar GPSRNetworkRandom.host[3].wlan[0].mac.dcf.originatorMacDataService packetFragmented:count 0
scalar GPSRNetworkRandom.host[3].wlan[0].mac.dcf.recipientMacDataService packetDeaggregated:count 0
scalar GPSRNetworkRandom.host[3].wlan[0].mac.dcf.recipientMacDataService packetDefragmented:count 1542
scalar GPSRNetworkRandom.host[3].wlan[0].mac.dcf.recipientMacDataService packetDropDuplicateDetected:count 0
scalar GPSRNetworkRandom.host[3].wlan[0].mac.dcf.recipientMacDataService packetDropDuplicateDetected:sum(packetBytes) 0
scalar GPSRNetworkRandom.host[3].wlan[0].mac.dcf.recoveryProcedure retryLimitReached:count 0
scalar GPSRNetworkRandom.host[3].wlan[0].mac.dcf frameSequenceFinished:count 403
scalar GPSRNetworkRandom.host[3].wlan[0].mac.dcf packetReceivedFromPeer:count 1548
scalar GPSRNetworkRandom.host[3].wlan[0].mac.dcf packetReceivedFromPeer:sum(packetBytes) 166256
scalar GPSRNetworkRandom.host[3].wlan[0].mac.dcf packetReceivedFromPeerUnicast:count 11
scalar GPSRNetworkRandom.host[3].wlan[0].mac.dcf packetReceivedFromPeerUnicast:sum(packetBytes) 788
scalar GPSRNetworkRandom.host[3].wlan[0].mac.dcf packetReceivedFromPeerMulticast:count 1537
scalar GPSRNetworkRandom.host[3].wlan[0].mac.dcf packetReceivedFromPeerMulticast:sum(packetBytes) 165468
scalar GPSRNetworkRandom.host[3].wlan[0].mac.dcf packetReceivedFromPeerBroadcast:count 1530
scalar GPSRNetworkRandom.host[3].wlan[0].mac.dcf packetReceivedFromPeerBroadcast:sum(packetBytes) 164936
scalar GPSRNetworkRandom.host[3].wlan[0].mac.dcf packetReceivedFromPeerWithRetry:count 2
scalar GPSRNetworkRandom.host[3].wlan[0].mac.dcf packetReceivedFromPeerWithRetry:sum(packetBytes) 224
scalar GPSRNetworkRandom.host[3].wlan[0].mac.dcf packetReceivedFromPeerWithoutRetry:count 1546
scalar GPSRNetworkRandom.host[3].wlan[0].mac.dcf packetReceivedFromPeerWithoutRetry:sum(packetBytes) 166032
scalar GPSRNetworkRandom.host[3].wlan[0].mac.dcf packetSentToPeer:count 408
scalar GPSRNetworkRandom.host[3].wlan[0].mac.dcf packetSentToPeer:sum(packetBytes) 43630
scalar GPSRNetworkRandom.host[3].wlan[0].mac.dcf packetSentToPeerUnicast:count 11
scalar GPSRNetworkRandom.host[3].wlan[0].mac.dcf packetSentToPeerUnicast:sum(packetBytes) 838
scalar GPSRNetworkRandom.host[3].wlan[0].mac.dcf packetSentToPeerMulticast:count 397
scalar GPSRNetworkRandom.host[3].wlan[0].mac.dcf packetSentToPeerMulticast:sum(packetBytes) 42792
scalar GPSRNetworkRandom.host[3].wlan[0].mac.dcf packetSentToPeerBroadcast:count 396
scalar GPSRNetworkRandom.host[3].wlan[0].mac.dcf packetSentToPeerBroadcast:sum(packetBytes) 42716
scalar GPSRNetworkRandom.host[3].wlan[0].mac.dcf packetSentToPeerWithRetry:count 0
scalar GPSRNetworkRandom.host[3].wlan[0].mac.dcf packetSentToPeerWithRetry:sum(packetBytes) 0
scalar GPSRNetworkRandom.host[3].wlan[0].mac.dcf packetSentToPeerWithoutRetry:count 408
scalar GPSRNetworkRandom.host[3].wlan[0].mac.dcf packetSentToPeerWithoutRetry:sum(packetBytes) 43630
scalar GPSRNetworkRandom.host[3].wlan[0].mac.dcf packetDrop:count 32
scalar GPSRNetworkRandom.host[3].wlan[0].mac.dcf packetDrop:sum(packetBytes) 2450
scalar GPSRNetworkRandom.host[3].wlan[0].mac.dcf packetDropNotAddressedToUs:count 32
scalar GPSRNetworkRandom.host[3].wlan[0].mac.dcf packetDropNotAddressedToUs:sum(packetBytes) 2450
scalar GPSRNetworkRandom.host[3].wlan[0].mac.dcf packetDropQueueOverflow:count 0
scalar GPSRNetworkRandom.host[3].wlan[0].mac.dcf packetDropQueueOverflow:sum(packetBytes) 0
scalar GPSRNetworkRandom.host[3].wlan[0].mac.dcf packetDropRetryLimitReached:count 0
scalar GPSRNetworkRandom.host[3].wlan[0].mac.dcf packetDropRetryLimitReached:sum(packetBytes) 0
scalar GPSRNetworkRandom.host[3].wlan[0].mac.dcf linkBroken:count 0
scalar GPSRNetworkRandom.host[3].wlan[0].mac packetReceivedFromLower:count 2000
scalar GPSRNetworkRandom.host[3].wlan[0].mac packetReceivedFromLower:sum(packetBytes) 214432
scalar GPSRNetworkRandom.host[3].wlan[0].mac packetSentToLower:count 408
scalar GPSRNetworkRandom.host[3].wlan[0].mac packetSentToLower:sum(packetBytes) 43630
scalar GPSRNetworkRandom.host[3].wlan[0].mac packetReceivedFromUpper:count 403
scalar GPSRNetworkRandom.host[3].wlan[0].mac packetReceivedFromUpper:sum(packetBytes) 32276
scalar GPSRNetworkRandom.host[3].wlan[0].mac packetSentToUpper:count 1542
scalar GPSRNetworkRandom.host[3].wlan[0].mac packetSentToUpper:sum(packetBytes) 122996
scalar GPSRNetworkRandom.host[3].wlan[0].mac packetDrop:count 452
scalar GPSRNetworkRandom.host[3].wlan[0].mac packetDrop:sum(packetBytes) 48176
scalar GPSRNetworkRandom.host[3].wlan[0].mac packetDropIncorrectlyReceived:count 420
scalar GPSRNetworkRandom.host[3].wlan[0].mac packetDropIncorrectlyReceived:sum(packetBytes) 45726
scalar GPSRNetworkRandom.host[3].wlan[0].mac packetDropNotAddressedToUs:count 32
scalar GPSRNetworkRandom.host[3].wlan[0].mac packetDropNotAddressedToUs:sum(packetBytes) 2450
scalar GPSRNetworkRandom.host[3].wlan[0].mac packetDropQueueOverflow:count 0
scalar GPSRNetworkRandom.host[3].wlan[0].mac packetDropQueueOverflow:sum(packetBytes) 0
scalar GPSRNetworkRandom.host[3].wlan[0].mac packetDropRetryLimitReached:count 0
scalar GPSRNetworkRandom.host[3].wlan[0].mac packetDropRetryLimitReached:sum(packetBytes) 0
scalar GPSRNetworkRandom.host[3].wlan[0].mac packetDropDuplicateDetected:count 0
scalar GPSRNetworkRandom.host[3].wlan[0].mac packetDropDuplicateDetected:sum(packetBytes) 0
scalar GPSRNetworkRandom.host[3].wlan[0].mac packetDropOther:count 0
scalar GPSRNetworkRandom.host[3].wlan[0].mac packetDropOther:sum(packetBytes) 0
scalar GPSRNetworkRandom.host[3].wlan[0].mac linkBroken:count 0
scalar GPSRNetworkRandom.host[3].wlan[0].radio radioMode:count 819
scalar GPSRNetworkRandom.host[3].wlan[0].radio receptionState:count 5160
scalar GPSRNetworkRandom.host[3].wlan[0].radio transmissionState:count 1632
scalar GPSRNetworkRandom.host[3].wlan[0] packetDropInterfaceDown:count 0
scalar GPSRNetworkRandom.host[3].wlan[0] packetDropInterfaceDown:sum(packetBytes) 0
scalar GPSRNetworkRandom.host[3].wlan[0] packetDropNoCarrier:count 0
scalar GPSRNetworkRandom.host[3].wlan[0] packetDropNoCarrier:sum(packetBytes) 0
scalar GPSRNetworkRandom.host[3].ipv4.ip packetDropAddressResolutionFailed:count 0
scalar GPSRNetworkRandom.host[3].ipv4.ip packetDropAddressResolutionFailed:sum(packetBytes) 0
scalar GPSRNetworkRandom.host[3].ipv4.ip packetDropHopLimitReached:count 0
scalar GPSRNetworkRandom.host[3].ipv4.ip packetDropHopLimitReached:sum(packetBytes) 0
scalar GPSRNetworkRandom.host[3].ipv4.ip packetDropForwardingDisabled:count 0
scalar GPSRNetworkRandom.host[3].ipv4.ip packetDropForwardingDisabled:sum(packetBytes) 0
scalar GPSRNetworkRandom.host[3].ipv4.ip packetDropLifetimeExpired:count 0
scalar GPSRNetworkRandom.host[3].ipv4.ip packetDropLifetimeExpired:sum(packetBytes) 0
scalar GPSRNetworkRandom.host[3].ipv4.ip packetDropNoInterfaceFound:count 0
scalar GPSRNetworkRandom.host[3].ipv4.ip packetDropNoInterfaceFound:sum(packetBytes) 0
scalar GPSRNetworkRandom.host[3].ipv4.ip packetDropNoRouteFound:count 0
scalar GPSRNetworkRandom.host[3].ipv4.ip packetDropNoRouteFound:sum(packetBytes) 0
scalar GPSRNetworkRandom.host[3].ipv4.ip packetDropUndefined:count 0
scalar GPSRNetworkRandom.host[3].ipv4.ip packetDropUndefined:sum(packetBytes) 0
scalar GPSRNetworkRandom.host[3].ipv4.arp arpResolutionFailed:count 0
scalar GPSRNetworkRandom.host[3].ipv4.arp arpResolutionCompleted:count 5
scalar GPSRNetworkRandom.host[3].ipv4.arp arpResolutionInitiated:count 1
scalar GPSRNetworkRandom.host[3].ipv4.arp arpReplySent:count 2
scalar GPSRNetworkRandom.host[3].ipv4.arp arpReplySent:sum(packetBytes) 56
scalar GPSRNetworkRandom.host[3].ipv4.arp arpRequestSent:count 1
scalar GPSRNetworkRandom.host[3].ipv4.arp arpRequestSent:sum(packetBytes) 28
scalar GPSRNetworkRandom.host[3].ipv6.neighbourDiscovery startDad:count 1
scalar GPSRNetworkRandom.host[3].udp packetReceived:count 0
scalar GPSRNetworkRandom.host[3].udp packetReceived:sum(packetBytes) 0
scalar GPSRNetworkRandom.host[3].udp packetSent:count 0
scalar GPSRNetworkRandom.host[3].udp packetSent:sum(packetBytes) 0
scalar GPSRNetworkRandom.host[3].udp passedUpPk:count 0
scalar GPSRNetworkRandom.host[3].udp droppedPkWrongPort:count 0
scalar GPSRNetworkRandom.host[3].udp droppedPkBadChecksum:count 0
scalar GPSRNetworkRandom.host[3].app[0] pingRxSeq:count 0
scalar GPSRNetworkRandom.host[3].app[0] pingTxSeq:count 0
scalar GPSRNetworkRandom.host[3].app[0] numOutOfOrderArrivals:last nan
scalar GPSRNetworkRandom.host[3].app[0] numLost:last nan
scalar GPSRNetworkRandom.host[4].lo[0].lo rcvdPkFromHl:count 0
scalar GPSRNetworkRandom.host[4].lo[0].lo rcvdPkFromHl:sum(packetBytes) 0
scalar GPSRNetworkRandom.host[4].lo[0].lo passedUpPk:count 0
scalar GPSRNetworkRandom.host[4].lo[0].lo passedUpPk:sum(packetBytes) 0
scalar GPSRNetworkRandom.host[4].lo[0] packetDropInterfaceDown:count 0
scalar GPSRNetworkRandom.host[4].lo[0] packetDropInterfaceDown:sum(packetBytes) 0
scalar GPSRNetworkRandom.host[4].lo[0] packetDropNoCarrier:count 0
scalar GPSRNetworkRandom.host[4].lo[0] packetDropNoCarrier:sum(packetBytes) 0
scalar GPSRNetworkRandom.host[4].wlan[0].mac.dcf.channelAccess.pendingQueue queueLength:last 0
scalar GPSRNetworkRandom.host[4].wlan[0].mac.dcf.channelAccess.pendingQueue queueLength:max 1
scalar GPSRNetworkRandom.host[4].wlan[0].mac.dcf.channelAccess.pendingQueue queueLength:timeavg 0.00079704084184999981
scalar GPSRNetworkRandom.host[4].wlan[0].mac.dcf.channelAccess.pendingQueue queueBitLength:last 0
scalar GPSRNetworkRandom.host[4].wlan[0].mac.dcf.channelAccess.pendingQueue queueBitLength:max 1376
scalar GPSRNetworkRandom.host[4].wlan[0].mac.dcf.channelAccess.pendingQueue queueBitLength:timeavg 0.71931528735839989
scalar GPSRNetworkRandom.host[4].wlan[0].mac.dcf.channelAccess.pendingQueue outgoingPackets:count 417
scalar GPSRNetworkRandom.host[4].wlan[0].mac.dcf.channelAccess.pendingQueue outgoingPacketLengths:sum 361568
scalar GPSRNetworkRandom.host[4].wlan[0].mac.dcf.channelAccess.pendingQueue incomingPackets:count 417
scalar GPSRNetworkRandom.host[4].wlan[0].mac.dcf.channelAccess.pendingQueue incomingPacketLengths:sum 361568
scalar GPSRNetworkRandom.host[4].wlan[0].mac.dcf.channelAccess.pendingQueue droppedPacketsQueueOverflow:count 0
scalar GPSRNetworkRandom.host[4].wlan[0].mac.dcf.channelAccess.pendingQueue droppedPacketLengthsQueueOverflow:sum 0
scalar GPSRNetworkRandom.host[4].wlan[0].mac.dcf.channelAccess.inProgressFrames queueLength:max 1
scalar GPSRNetworkRandom.host[4].wlan[0].mac.dcf.channelAccess.inProgressFrames queueLength:timeavg 0.013255607971300131
scalar GPSRNetworkRandom.host[4].wlan[0].mac.dcf.channelAccess.contention channelAccessGranted:count 418
scalar GPSRNetworkRandom.host[4].wlan[0].mac.dcf.channelAccess.contention stateChanged:count 12000
scalar GPSRNetworkRandom.host[4].wlan[0].mac.dcf.channelAccess channelOwnershipChanged:count 836
scalar GPSRNetworkRandom.host[4].wlan[0].mac.dcf.originatorMacDataService packetAggregated:count 0
scalar GPSRNetworkRandom.host[4].wlan[0].mac.dcf.originatorMacDataService packetFragmented:count 0
scalar GPSRNetworkRandom.host[4].wlan[0].mac.dcf.recipientMacDataService packetDeaggregated:count 0
scalar GPSRNetworkRandom.host[4].wlan[0].mac.dcf.recipientMacDataService packetDefragmented:count 1798
scalar GPSRNetworkRandom.host[4].wlan[0].mac.dcf.recipientMacDataService packetDropDuplicateDetected:count 0
scalar GPSRNetworkRandom.host[4].wlan[0].mac.dcf.recipientMacDataService packetDropDuplicateDetected:sum(packetBytes) 0
scalar GPSRNetworkRandom.host[4].wlan[0].mac.dcf.recoveryProcedure retryLimitReached:count 0
scalar GPSRNetworkRandom.host[4].wlan[0].mac.dcf frameSequenceFinished:count 418
scalar GPSRNetworkRandom.host[4].wlan[0].mac.dcf packetReceivedFromPeer:count 1807
scalar GPSRNetworkRandom.host[4].wlan[0].mac.dcf packetReceivedFromPeer:sum(packetBytes) 194114
scalar GPSRNetworkRandom.host[4].wlan[0].mac.dcf packetReceivedFromPeerUnicast:count 18
scalar GPSRNetworkRandom.host[4].wlan[0].mac.dcf packetReceivedFromPeerUnicast:sum(packetBytes) 1374
scalar GPSRNetworkRandom.host[4].wlan[0].mac.dcf packetReceivedFromPeerMulticast:count 1789
scalar GPSRNetworkRandom.host[4].wlan[0].mac.dcf packetReceivedFromPeerMulticast:sum(packetBytes) 192740
scalar GPSRNetworkRandom.host[4].wlan[0].mac.dcf packetReceivedFromPeerBroadcast:count 1781
scalar GPSRNetworkRandom.host[4].wlan[0].mac.dcf packetReceivedFromPeerBroadcast:sum(packetBytes) 192132
scalar GPSRNetworkRandom.host[4].wlan[0].mac.dcf packetReceivedFromPeerWithRetry:count 1
scalar GPSRNetworkRandom.host[4].wlan[0].mac.dcf packetReceivedFromPeerWithRetry:sum(packetBytes) 160
scalar GPSRNetworkRandom.host[4].wlan[0].mac.dcf packetReceivedFromPeerWithoutRetry:count 1806
scalar GPSRNetworkRandom.host[4].wlan[0].mac.dcf packetReceivedFromPeerWithoutRetry:sum(packetBytes) 193954
scalar GPSRNetworkRandom.host[4].wlan[0].mac.dcf packetSentToPeer:count 427
scalar GPSRNetworkRandom.host[4].wlan[0].mac.dcf packetSentToPeer:sum(packetBytes) 45482
scalar GPSRNetworkRandom.host[4].wlan[0].mac.dcf packetSentToPeerUnicast:count 19
scalar GPSRNetworkRandom.host[4].wlan[0].mac.dcf packetSentToPeerUnicast:sum(packetBytes) 1546
scalar GPSRNetworkRandom.host[4].wlan[0].mac.dcf packetSentToPeerMulticast:count 408
scalar GPSRNetworkRandom.host[4].wlan[0].mac.dcf packetSentToPeerMulticast:sum(packetBytes) 43936
scalar GPSRNetworkRandom.host[4].wlan[0].mac.dcf packetSentToPeerBroadcast:count 407
scalar GPSRNetworkRandom.host[4].wlan[0].mac.dcf packetSentToPeerBroadcast:sum(packetBytes) 43860
scalar GPSRNetworkRandom.host[4].wlan[0].mac.dcf packetSentToPeerWithRetry:count 1
scalar GPSRNetworkRandom.host[4].wlan[0].mac.dcf packetSentToPeerWithRetry:sum(packetBytes) 160
scalar GPSRNetworkRandom.host[4].wlan[0].mac.dcf packetSentToPeerWithoutRetry:count 426
scalar GPSRNetworkRandom.host[4].wlan[0].mac.dcf packetSentToPeerWithoutRetry:sum(packetBytes) 45322
scalar GPSRNetworkRandom.host[4].wlan[0].mac.dcf packetDrop:count 17
scalar GPSRNetworkRandom.host[4].wlan[0].mac.dcf packetDrop:sum(packetBytes) 1360
scalar GPSRNetworkRandom.host[4].wlan[0].mac.dcf packetDropNotAddressedToUs:count 17
scalar GPSRNetworkRandom.host[4].wlan[0].mac.dcf packetDropNotAddressedToUs:sum(packetBytes) 1360
scalar GPSRNetworkRandom.host[4].wlan[0].mac.dcf packetDropQueueOverflow:count 0
scalar GPSRNetworkRandom.host[4].wlan[0].mac.dcf packetDropQueueOverflow:sum(packetBytes) 0
scalar GPSRNetworkRandom.host[4].wlan[0].mac.dcf packetDropRetryLimitReached:count 0
scalar GPSRNetworkRandom.host[4].wlan[0].mac.dcf packetDropRetryLimitReached:sum(packetBytes) 0
scalar GPSRNetworkRandom.host[4].wlan[0].mac.dcf linkBroken:count 0
scalar GPSRNetworkRandom.host[4].wlan[0].mac packetReceivedFromLower:count 2033
scalar GPSRNetworkRandom.host[4].wlan[0].mac packetReceivedFromLower:sum(packetBytes) 218118
scalar GPSRNetworkRandom.host[4].wlan[0].mac packetSentToLower:count 427
scalar GPSRNetworkRandom.host[4].wlan[0].mac packetSentToLower:sum(packetBytes) 45482
scalar GPSRNetworkRandom.host[4].wlan[0].mac packetReceivedFromUpper:count 417
scalar GPSRNetworkRandom.host[4].wlan[0].mac packetReceivedFromUpper:sum(packetBytes) 33520
scalar GPSRNetworkRandom.host[4].wlan[0].mac packetSentToUpper:count 1798
scalar GPSRNetworkRandom.host[4].wlan[0].mac packetSentToUpper:sum(packetBytes) 143644
scalar GPSRNetworkRandom.host[4].wlan[0].mac packetDrop:count 226
scalar GPSRNetworkRandom.host[4].wlan[0].mac packetDrop:sum(packetBytes) 24004
scalar GPSRNetworkRandom.host[4].wlan[0].mac packetDropIncorrectlyReceived:count 209
scalar GPSRNetworkRandom.host[4].wlan[0].mac packetDropIncorrectlyReceived:sum(packetBytes) 22644
scalar GPSRNetworkRandom.host[4].wlan[0].mac packetDropNotAddressedToUs:count 17
scalar GPSRNetworkRandom.host[4].wlan[0].mac packetDropNotAddressedToUs:sum(packetBytes) 1360
scalar GPSRNetworkRandom.host[4].wlan[0].mac packetDropQueueOverflow:count 0
scalar GPSRNetworkRandom.host[4].wlan[0].mac packetDropQueueOverflow:sum(packetBytes) 0
scalar GPSRNetworkRandom.host[4].wlan[0].mac packetDropRetryLimitReached:count 0
scalar GPSRNetworkRandom.host[4].wlan[0].mac packetDropRetryLimitReached:sum(packetBytes) 0
scalar GPSRNetworkRandom.host[4].wlan[0].mac packetDropDuplicateDetected:count 0
scalar GPSRNetworkRandom.host[4].wlan[0].mac packetDropDuplicateDetected:sum(packetBytes) 0
scalar GPSRNetworkRandom.host[4].wlan[0].mac packetDropOther:count 0
scalar GPSRNetworkRandom.host[4].wlan[0].mac packetDropOther:sum(packetBytes) 0
scalar GPSRNetworkRandom.host[4].wlan[0].mac linkBroken:count 0
scalar GPSRNetworkRandom.host[4].wlan[0].radio radioMode:count 857
scalar GPSRNetworkRandom.host[4].wlan[0].radio receptionState:count 5000
scalar GPSRNetworkRandom.host[4].wlan[0].radio transmissionState:count 1708
scalar GPSRNetworkRandom.host[4].wlan[0] packetDropInterfaceDown:count 0
scalar GPSRNetworkRandom.host[4].wlan[0] packetDropInterfaceDown:sum(packetBytes) 0
scalar GPSRNetworkRandom.host[4].wlan[0] packetDropNoCarrier:count 0
scalar GPSRNetworkRandom.host[4].wlan[0] packetDropNoCarrier:sum(packetBytes) 0
scalar GPSRNetworkRandom.host[4].ipv4.ip packetDropAddressResolutionFailed:count 0
scalar GPSRNetworkRandom.host[4].ipv4.ip packetDropAddressResolutionFailed:sum(packetBytes) 0
scalar GPSRNetworkRandom.host[4].ipv4.ip packetDropHopLimitReached:count 1
scalar GPSRNetworkRandom.host[4].ipv4.ip packetDropHopLimitReached:sum(packetBytes) 124
scalar GPSRNetworkRandom.host[4].ipv4.ip packetDropForwardingDisabled:count 0
scalar GPSRNetworkRandom.host[4].ipv4.ip packetDropForwardingDisabled:sum(packetBytes) 0
scalar GPSRNetworkRandom.host[4].ipv4.ip packetDropLifetimeExpired:count 0
scalar GPSRNetworkRandom.host[4].ipv4.ip packetDropLifetimeExpired:sum(packetBytes) 0
scalar GPSRNetworkRandom.host[4].ipv4.ip packetDropNoInterfaceFound:count 0
scalar GPSRNetworkRandom.host[4].ipv4.ip packetDropNoInterfaceFound:sum(packetBytes) 0
scalar GPSRNetworkRandom.host[4].ipv4.ip packetDropNoRouteFound:count 0
scalar GPSRNetworkRandom.host[4].ipv4.ip packetDropNoRouteFound:sum(packetBytes) 0
scalar GPSRNetworkRandom.host[4].ipv4.ip packetDropUndefined:count 0
scalar GPSRNetworkRandom.host[4].ipv4.ip packetDropUndefined:sum(packetBytes) 0
scalar GPSRNetworkRandom.host[4].ipv4.arp arpResolutionFailed:count 0
scalar GPSRNetworkRandom.host[4].ipv4.arp arpResolutionCompleted:count 6
scalar GPSRNetworkRandom.host[4].ipv4.arp arpResolutionInitiated:count 2
scalar GPSRNetworkRandom.host[4].ipv4.arp arpReplySent:count 2
scalar GPSRNetworkRandom.host[4].ipv4.arp arpReplySent:sum(packetBytes) 56
scalar GPSRNetworkRandom.host[4].ipv4.arp arpRequestSent:count 2
scalar GPSRNetworkRandom.host[4].ipv4.arp arpRequestSent:sum(packetBytes) 56
scalar GPSRNetworkRandom.host[4].ipv6.neighbourDiscovery startDad:count 1
scalar GPSRNetworkRandom.host[4].udp packetReceived:count 0
scalar GPSRNetworkRandom.host[4].udp packetReceived:sum(packetBytes) 0
scalar GPSRNetworkRandom.host[4].udp packetSent:count 0
scalar GPSRNetworkRandom.host[4].udp packetSent:sum(packetBytes) 0
scalar GPSRNetworkRandom.host[4].udp passedUpPk:count 0
scalar GPSRNetworkRandom.host[4].udp droppedPkWrongPort:count 0
scalar GPSRNetworkRandom.host[4].udp droppedPkBadChecksum:count 0
scalar GPSRNetworkRandom.host[4].app[0] pingRxSeq:count 0
scalar GPSRNetworkRandom.host[4].app[0] pingTxSeq:count 0
scalar GPSRNetworkRandom.host[4].app[0] numOutOfOrderArrivals:last nan
scalar GPSRNetworkRandom.host[4].app[0] numLost:last nan
scalar GPSRNetworkRandom.host[5].lo[0].lo rcvdPkFromHl:count 0
scalar GPSRNetworkRandom.host[5].lo[0].lo rcvdPkFromHl:sum(packetBytes) 0
scalar GPSRNetworkRandom.host[5].lo[0].lo passedUpPk:count 0
scalar GPSRNetworkRandom.host[5].lo[0].lo passedUpPk:sum(packetBytes) 0
scalar GPSRNetworkRandom.host[5].lo[0] packetDropInterfaceDown:count 0
scalar GPSRNetworkRandom.host[5].lo[0] packetDropInterfaceDown:sum(packetBytes) 0
scalar GPSRNetworkRandom.host[5].lo[0] packetDropNoCarrier:count 0
scalar GPSRNetworkRandom.host[5].lo[0] packetDropNoCarrier:sum(packetBytes) 0
scalar GPSRNetworkRandom.host[5].wlan[0].mac.dcf.channelAccess.pendingQueue queueLength:last 0
scalar GPSRNetworkRandom.host[5].wlan[0].mac.dcf.channelAccess.pendingQueue queueLength:max 1
scalar GPSRNetworkRandom.host[5].wlan[0].mac.dcf.channelAccess.pendingQueue queueLength:timeavg 0.00066348555704999999
scalar GPSRNetworkRandom.host[5].wlan[0].mac.dcf.channelAccess.pendingQueue queueBitLength:last 0
scalar GPSRNetworkRandom.host[5].wlan[0].mac.dcf.channelAccess.pendingQueue queueBitLength:max 1280
scalar GPSRNetworkRandom.host[5].wlan[0].mac.dcf.channelAccess.pendingQueue queueBitLength:timeavg 0.59564832129119982
scalar GPSRNetworkRandom.host[5].wlan[0].mac.dcf.channelAccess.pendingQueue outgoingPackets:count 406
scalar GPSRNetworkRandom.host[5].wlan[0].mac.dcf.channelAccess.pendingQueue outgoingPacketLengths:sum 351424
scalar GPSRNetworkRandom.host[5].wlan[0].mac.dcf.channelAccess.pendingQueue incomingPackets:count 406
scalar GPSRNetworkRandom.host[5].wlan[0].mac.dcf.channelAccess.pendingQueue incomingPacketLengths:sum 351424
scalar GPSRNetworkRandom.host[5].wlan[0].mac.dcf.channelAccess.pendingQueue droppedPacketsQueueOverflow:count 0
scalar GPSRNetworkRandom.host[5].wlan[0].mac.dcf.channelAccess.pendingQueue droppedPacketLengthsQueueOverflow:sum 0
scalar GPSRNetworkRandom.host[5].wlan[0].mac.dcf.channelAccess.inProgressFrames queueLength:max 1
scalar GPSRNetworkRandom.host[5].wlan[0].mac.dcf.channelAccess.inProgressFrames queueLength:timeavg 0.012852507727700127
scalar GPSRNetworkRandom.host[5].wlan[0].mac.dcf.channelAccess.contention channelAccessGranted:count 407
scalar GPSRNetworkRandom.host[5].wlan[0].mac.dcf.channelAccess.contention stateChanged:count 10090
scalar GPSRNetworkRandom.host[5].wlan[0].mac.dcf.channelAccess channelOwnershipChanged:count 814
scalar GPSRNetworkRandom.host[5].wlan[0].mac.dcf.originatorMacDataService packetAggregated:count 0
scalar GPSRNetworkRandom.host[5].wlan[0].mac.dcf.originatorMacDataService packetFragmented:count 0
scalar GPSRNetworkRandom.host[5].wlan[0].mac.dcf.recipientMacDataService packetDeaggregated:count 0
scalar GPSRNetworkRandom.host[5].wlan[0].mac.dcf.recipientMacDataService packetDefragmented:count 1395
scalar GPSRNetworkRandom.host[5].wlan[0].mac.dcf.recipientMacDataService packetDropDuplicateDetected:count 0
scalar GPSRNetworkRandom.host[5].wlan[0].mac.dcf.recipientMacDataService packetDropDuplicateDetected:sum(packetBytes) 0
scalar GPSRNetworkRandom.host[5].wlan[0].mac.dcf.recoveryProcedure retryLimitReached:count 0
scalar GPSRNetworkRandom.host[5].wlan[0].mac.dcf frameSequenceFinished:count 407
scalar GPSRNetworkRandom.host[5].wlan[0].mac.dcf packetReceivedFromPeer:count 1400
scalar GPSRNetworkRandom.host[5].wlan[0].mac.dcf packetReceivedFromPeer:sum(packetBytes) 150526
scalar GPSRNetworkRandom.host[5].wlan[0].mac.dcf packetReceivedFromPeerUnicast:count 10
scalar GPSRNetworkRandom.host[5].wlan[0].mac.dcf packetReceivedFromPeerUnicast:sum(packetBytes) 774
scalar GPSRNetworkRandom.host[5].wlan[0].mac.dcf packetReceivedFromPeerMulticast:count 1390
scalar GPSRNetworkRandom.host[5].wlan[0].mac.dcf packetReceivedFromPeerMulticast:sum(packetBytes) 149752
scalar GPSRNetworkRandom.host[5].wlan[0].mac.dcf packetReceivedFromPeerBroadcast:count 1385
scalar GPSRNetworkRandom.host[5].wlan[0].mac.dcf packetReceivedFromPeerBroadcast:sum(packetBytes) 149372
scalar GPSRNetworkRandom.host[5].wlan[0].mac.dcf packetReceivedFromPeerWithRetry:count 1
scalar GPSRNetworkRandom.host[5].wlan[0].mac.dcf packetReceivedFromPeerWithRetry:sum(packetBytes) 160
scalar GPSRNetworkRandom.host[5].wlan[0].mac.dcf packetReceivedFromPeerWithoutRetry:count 1399
scalar GPSRNetworkRandom.host[5].wlan[0].mac.dcf packetReceivedFromPeerWithoutRetry:sum(packetBytes) 150366
scalar GPSRNetworkRandom.host[5].wlan[0].mac.dcf packetSentToPeer:count 412
scalar GPSRNetworkRandom.host[5].wlan[0].mac.dcf packetSentToPeer:sum(packetBytes) 44158
scalar GPSRNetworkRandom.host[5].wlan[0].mac.dcf packetSentToPeerUnicast:count 11
scalar GPSRNetworkRandom.host[5].wlan[0].mac.dcf packetSentToPeerUnicast:sum(packetBytes) 934
scalar GPSRNetworkRandom.host[5].wlan[0].mac.dcf packetSentToPeerMulticast:count 401
scalar GPSRNetworkRandom.host[5].wlan[0].mac.dcf packetSentToPeerMulticast:sum(packetBytes) 43224
scalar GPSRNetworkRandom.host[5].wlan[0].mac.dcf packetSentToPeerBroadcast:count 400
scalar GPSRNetworkRandom.host[5].wlan[0].mac.dcf packetSentToPeerBroadcast:sum(packetBytes) 43148
scalar GPSRNetworkRandom.host[5].wlan[0].mac.dcf packetSentToPeerWithRetry:count 1
scalar GPSRNetworkRandom.host[5].wlan[0].mac.dcf packetSentToPeerWithRetry:sum(packetBytes) 160
scalar GPSRNetworkRandom.host[5].wlan[0].mac.dcf packetSentToPeerWithoutRetry:count 411
scalar GPSRNetworkRandom.host[5].wlan[0].mac.dcf packetSentToPeerWithoutRetry:sum(packetBytes) 43998
scalar GPSRNetworkRandom.host[5].wlan[0].mac.dcf packetDrop:count 24
scalar GPSRNetworkRandom.host[5].wlan[0].mac.dcf packetDrop:sum(packetBytes) 1850
scalar GPSRNetworkRandom.host[5].wlan[0].mac.dcf packetDropNotAddressedToUs:count 24
scalar GPSRNetworkRandom.host[5].wlan[0].mac.dcf packetDropNotAddressedToUs:sum(packetBytes) 1850
scalar GPSRNetworkRandom.host[5].wlan[0].mac.dcf packetDropQueueOverflow:count 0
scalar GPSRNetworkRandom.host[5].wlan[0].mac.dcf packetDropQueueOverflow:sum(packetBytes) 0
scalar GPSRNetworkRandom.host[5].wlan[0].mac.dcf packetDropRetryLimitReached:count 0
scalar GPSRNetworkRandom.host[5].wlan[0].mac.dcf packetDropRetryLimitReached:sum(packetBytes) 0
scalar GPSRNetworkRandom.host[5].wlan[0].mac.dcf linkBroken:count 0
scalar GPSRNetworkRandom.host[5].wlan[0].mac packetReceivedFromLower:count 1610
scalar GPSRNetworkRandom.host[5].wlan[0].mac packetReceivedFromLower:sum(packetBytes) 172552
scalar GPSRNetworkRandom.host[5].wlan[0].mac packetSentToLower:count 412
scalar GPSRNetworkRandom.host[5].wlan[0].mac packetSentToLower:sum(packetBytes) 44158
scalar GPSRNetworkRandom.host[5].wlan[0].mac packetReceivedFromUpper:count 406
scalar GPSRNetworkRandom.host[5].wlan[0].mac packetReceivedFromUpper:sum(packetBytes) 32560
scalar GPSRNetworkRandom.host[5].wlan[0].mac packetSentToUpper:count 1395
scalar GPSRNetworkRandom.host[5].wlan[0].mac packetSentToUpper:sum(packetBytes) 111396
scalar GPSRNetworkRandom.host[5].wlan[0].mac packetDrop:count 210
scalar GPSRNetworkRandom.host[5].wlan[0].mac packetDrop:sum(packetBytes) 22026
scalar GPSRNetworkRandom.host[5].wlan[0].mac packetDropIncorrectlyReceived:count 186
scalar GPSRNetworkRandom.host[5].wlan[0].mac packetDropIncorrectlyReceived:sum(packetBytes) 20176
scalar GPSRNetworkRandom.host[5].wlan[0].mac packetDropNotAddressedToUs:count 24
scalar GPSRNetworkRandom.host[5].wlan[0].mac packetDropNotAddressedToUs:sum(packetBytes) 1850
scalar GPSRNetworkRandom.host[5].wlan[0].mac packetDropQueueOverflow:count 0
scalar GPSRNetworkRandom.host[5].wlan[0].mac packetDropQueueOverflow:sum(packetBytes) 0
scalar GPSRNetworkRandom.host[5].wlan[0].mac packetDropRetryLimitReached:count 0
scalar GPSRNetworkRandom.host[5].wlan[0].mac packetDropRetryLimitReached:sum(packetBytes) 0
scalar GPSRNetworkRandom.host[5].wlan[0].mac packetDropDuplicateDetected:count 0
scalar GPSRNetworkRandom.host[5].wlan[0].mac packetDropDuplicateDetected:sum(packetBytes) 0
scalar GPSRNetworkRandom.host[5].wlan[0].mac packetDropOther:count 0
scalar GPSRNetworkRandom.host[5].wlan[0].mac packetDropOther:sum(packetBytes) 0
scalar GPSRNetworkRandom.host[5].wlan[0].mac linkBroken:count 0
scalar GPSRNetworkRandom.host[5].wlan[0].radio radioMode:count 827
scalar GPSRNetworkRandom.host[5].wlan[0].radio receptionState:count 4081
scalar GPSRNetworkRandom.host[5].wlan[0].radio transmissionState:count 1648
scalar GPSRNetworkRandom.host[5].wlan[0] packetDropInterfaceDown:count 0
scalar GPSRNetworkRandom.host[5].wlan[0] packetDropInterfaceDown:sum(packetBytes) 0
scalar GPSRNetworkRandom.host[5].wlan[0] packetDropNoCarrier:count 0
scalar GPSRNetworkRandom.host[5].wlan[0] packetDropNoCarrier:sum(packetBytes) 0
scalar GPSRNetworkRandom.host[5].ipv4.ip packetDropAddressResolutionFailed:count 0
scalar GPSRNetworkRandom.host[5].ipv4.ip packetDropAddressResolutionFailed:sum(packetBytes) 0
scalar GPSRNetworkRandom.host[5].ipv4.ip packetDropHopLimitReached:count 0
scalar GPSRNetworkRandom.host[5].ipv4.ip packetDropHopLimitReached:sum(packetBytes) 0
scalar GPSRNetworkRandom.host[5].ipv4.ip packetDropForwardingDisabled:count 0
scalar GPSRNetworkRandom.host[5].ipv4.ip packetDropForwardingDisabled:sum(packetBytes) 0
scalar GPSRNetworkRandom.host[5].ipv4.ip packetDropLifetimeExpired:count 0
scalar GPSRNetworkRandom.host[5].ipv4.ip packetDropLifetimeExpired:sum(packetBytes) 0
scalar GPSRNetworkRandom.host[5].ipv4.ip packetDropNoInterfaceFound:count 0
scalar GPSRNetworkRandom.host[5].ipv4.ip packetDropNoInterfaceFound:sum(packetBytes) 0
scalar GPSRNetworkRandom.host[5].ipv4.ip packetDropNoRouteFound:count 0
scalar GPSRNetworkRandom.host[5].ipv4.ip packetDropNoRouteFound:sum(packetBytes) 0
scalar GPSRNetworkRandom.host[5].ipv4.ip packetDropUndefined:count 0
scalar GPSRNetworkRandom.host[5].ipv4.ip packetDropUndefined:sum(packetBytes) 0
scalar GPSRNetworkRandom.host[5].ipv4.arp arpResolutionFailed:count 0
scalar GPSRNetworkRandom.host[5].ipv4.arp arpResolutionCompleted:count 4
scalar GPSRNetworkRandom.host[5].ipv4.arp arpResolutionInitiated:count 1
scalar GPSRNetworkRandom.host[5].ipv4.arp arpReplySent:count 1
scalar GPSRNetworkRandom.host[5].ipv4.arp arpReplySent:sum(packetBytes) 28
scalar GPSRNetworkRandom.host[5].ipv4.arp arpRequestSent:count 1
scalar GPSRNetworkRandom.host[5].ipv4.arp arpRequestSent:sum(packetBytes) 28
scalar GPSRNetworkRandom.host[5].ipv6.neighbourDiscovery startDad:count 1
scalar GPSRNetworkRandom.host[5].udp packetReceived:count 0
scalar GPSRNetworkRandom.host[5].udp packetReceived:sum(packetBytes) 0
scalar GPSRNetworkRandom.host[5].udp packetSent:count 0
scalar GPSRNetworkRandom.host[5].udp packetSent:sum(packetBytes) 0
scalar GPSRNetworkRandom.host[5].udp passedUpPk:count 0
scalar GPSRNetworkRandom.host[5].udp droppedPkWrongPort:count 0
scalar GPSRNetworkRandom.host[5].udp droppedPkBadChecksum:count 0
scalar GPSRNetworkRandom.host[5].app[0] pingRxSeq:count 0
scalar GPSRNetworkRandom.host[5].app[0] pingTxSeq:count 0
scalar GPSRNetworkRandom.host[5].app[0] numOutOfOrderArrivals:last nan
scalar GPSRNetworkRandom.host[5].app[0] numLost:last nan
scalar GPSRNetworkRandom.host[6].lo[0].lo rcvdPkFromHl:count 0
scalar GPSRNetworkRandom.host[6].lo[0].lo rcvdPkFromHl:sum(packetBytes) 0
scalar GPSRNetworkRandom.host[6].lo[0].lo passedUpPk:count 0
scalar GPSRNetworkRandom.host[6].lo[0].lo passedUpPk:sum(packetBytes) 0
scalar GPSRNetworkRandom.host[6].lo[0] packetDropInterfaceDown:count 0
scalar GPSRNetworkRandom.host[6].lo[0] packetDropInterfaceDown:sum(packetBytes) 0
scalar GPSRNetworkRandom.host[6].lo[0] packetDropNoCarrier:count 0
scalar GPSRNetworkRandom.host[6].lo[0] packetDropNoCarrier:sum(packetBytes) 0
scalar GPSRNetworkRandom.host[6].wlan[0].mac.dcf.channelAccess.pendingQueue queueLength:last 0
scalar GPSRNetworkRandom.host[6].wlan[0].mac.dcf.channelAccess.pendingQueue queueLength:max 1
scalar GPSRNetworkRandom.host[6].wlan[0].mac.dcf.channelAccess.pendingQueue queueLength:timeavg 0.00066433707760000008
scalar GPSRNetworkRandom.host[6].wlan[0].mac.dcf.channelAccess.pendingQueue queueBitLength:last 0
scalar GPSRNetworkRandom.host[6].wlan[0].mac.dcf.channelAccess.pendingQueue queueBitLength:max 1280
scalar GPSRNetworkRandom.host[6].wlan[0].mac.dcf.channelAccess.pendingQueue queueBitLength:timeavg 0.59651203504639994
scalar GPSRNetworkRandom.host[6].wlan[0].mac.dcf.channelAccess.pendingQueue outgoingPackets:count 402
scalar GPSRNetworkRandom.host[6].wlan[0].mac.dcf.channelAccess.pendingQueue outgoingPacketLengths:sum 347456
scalar GPSRNetworkRandom.host[6].wlan[0].mac.dcf.channelAccess.pendingQueue incomingPackets:count 402
scalar GPSRNetworkRandom.host[6].wlan[0].mac.dcf.channelAccess.pendingQueue incomingPacketLengths:sum 347456
scalar GPSRNetworkRandom.host[6].wlan[0].mac.dcf.channelAccess.pendingQueue droppedPacketsQueueOverflow:count 0
scalar GPSRNetworkRandom.host[6].wlan[0].mac.dcf.channelAccess.pendingQueue droppedPacketLengthsQueueOverflow:sum 0
scalar GPSRNetworkRandom.host[6].wlan[0].mac.dcf.channelAccess.inProgressFrames queueLength:max 1
scalar GPSRNetworkRandom.host[6].wlan[0].mac.dcf.channelAccess.inProgressFrames queueLength:timeavg 0.012667379912100124
scalar GPSRNetworkRandom.host[6].wlan[0].mac.dcf.channelAccess.contention channelAccessGranted:count 403
scalar GPSRNetworkRandom.host[6].wlan[0].mac.dcf.channelAccess.contention stateChanged:count 9310
scalar GPSRNetworkRandom.host[6].wlan[0].mac.dcf.channelAccess channelOwnershipChanged:count 806
scalar GPSRNetworkRandom.host[6].wlan[0].mac.dcf.originatorMacDataService packetAggregated:count 0
scalar GPSRNetworkRandom.host[6].wlan[0].mac.dcf.originatorMacDataService packetFragmented:count 0
scalar GPSRNetworkRandom.host[6].wlan[0].mac.dcf.recipientMacDataService packetDeaggregated:count 0
scalar GPSRNetworkRandom.host[6].wlan[0].mac.dcf.recipientMacDataService packetDefragmented:count 1088
scalar GPSRNetworkRandom.host[6].wlan[0].mac.dcf.recipientMacDataService packetDropDuplicateDetected:count 0
scalar GPSRNetworkRandom.host[6].wlan[0].mac.dcf.recipientMacDataService packetDropDuplicateDetected:sum(packetBytes) 0
scalar GPSRNetworkRandom.host[6].wlan[0].mac.dcf.recoveryProcedure retryLimitReached:count 0
scalar GPSRNetworkRandom.host[6].wlan[0].mac.dcf frameSequenceFinished:count 403
scalar GPSRNetworkRandom.host[6].wlan[0].mac.dcf packetReceivedFromPeer:count 1093
scalar GPSRNetworkRandom.host[6].wlan[0].mac.dcf packetReceivedFromPeer:sum(packetBytes) 117438
scalar GPSRNetworkRandom.host[6].wlan[0].mac.dcf packetReceivedFromPeerUnicast:count 10
scalar GPSRNetworkRandom.host[6].wlan[0].mac.dcf packetReceivedFromPeerUnicast:sum(packetBytes) 774
scalar GPSRNetworkRandom.host[6].wlan[0].mac.dcf packetReceivedFromPeerMulticast:count 1083
scalar GPSRNetworkRandom.host[6].wlan[0].mac.dcf packetReceivedFromPeerMulticast:sum(packetBytes) 116664
scalar GPSRNetworkRandom.host[6].wlan[0].mac.dcf packetReceivedFromPeerBroadcast:count 1081
scalar GPSRNetworkRandom.host[6].wlan[0].mac.dcf packetReceivedFromPeerBroadcast:sum(packetBytes) 116512
scalar GPSRNetworkRandom.host[6].wlan[0].mac.dcf packetReceivedFromPeerWithRetry:count 1
scalar GPSRNetworkRandom.host[6].wlan[0].mac.dcf packetReceivedFromPeerWithRetry:sum(packetBytes) 160
scalar GPSRNetworkRandom.host[6].wlan[0].mac.dcf packetReceivedFromPeerWithoutRetry:count 1092
scalar GPSRNetworkRandom.host[6].wlan[0].mac.dcf packetReceivedFromPeerWithoutRetry:sum(packetBytes) 117278
scalar GPSRNetworkRandom.host[6].wlan[0].mac.dcf packetSentToPeer:count 408
scalar GPSRNetworkRandom.host[6].wlan[0].mac.dcf packetSentToPeer:sum(packetBytes) 43662
scalar GPSRNetworkRandom.host[6].wlan[0].mac.dcf packetSentToPeerUnicast:count 11
scalar GPSRNetworkRandom.host[6].wlan[0].mac.dcf packetSentToPeerUnicast:sum(packetBytes) 934
scalar GPSRNetworkRandom.host[6].wlan[0].mac.dcf packetSentToPeerMulticast:count 397
scalar GPSRNetworkRandom.host[6].wlan[0].mac.dcf packetSentToPeerMulticast:sum(packetBytes) 42728
scalar GPSRNetworkRandom.host[6].wlan[0].mac.dcf packetSentToPeerBroadcast:count 394
scalar GPSRNetworkRandom.host[6].wlan[0].mac.dcf packetSentToPeerBroadcast:sum(packetBytes) 42500
scalar GPSRNetworkRandom.host[6].wlan[0].mac.dcf packetSentToPeerWithRetry:count 1
scalar GPSRNetworkRandom.host[6].wlan[0].mac.dcf packetSentToPeerWithRetry:sum(packetBytes) 160
scalar GPSRNetworkRandom.host[6].wlan[0].mac.dcf packetSentToPeerWithoutRetry:count 407
scalar GPSRNetworkRandom.host[6].wlan[0].mac.dcf packetSentToPeerWithoutRetry:sum(packetBytes) 43502
scalar GPSRNetworkRandom.host[6].wlan[0].mac.dcf packetDrop:count 28
scalar GPSRNetworkRandom.host[6].wlan[0].mac.dcf packetDrop:sum(packetBytes) 2160
scalar GPSRNetworkRandom.host[6].wlan[0].mac.dcf packetDropNotAddressedToUs:count 28
scalar GPSRNetworkRandom.host[6].wlan[0].mac.dcf packetDropNotAddressedToUs:sum(packetBytes) 2160
scalar GPSRNetworkRandom.host[6].wlan[0].mac.dcf packetDropQueueOverflow:count 0
scalar GPSRNetworkRandom.host[6].wlan[0].mac.dcf packetDropQueueOverflow:sum(packetBytes) 0
scalar GPSRNetworkRandom.host[6].wlan[0].mac.dcf packetDropRetryLimitReached:count 0
scalar GPSRNetworkRandom.host[6].wlan[0].mac.dcf packetDropRetryLimitReached:sum(packetBytes) 0
scalar GPSRNetworkRandom.host[6].wlan[0].mac.dcf linkBroken:count 0
scalar GPSRNetworkRandom.host[6].wlan[0].mac packetReceivedFromLower:count 1261
scalar GPSRNetworkRandom.host[6].wlan[0].mac packetReceivedFromLower:sum(packetBytes) 134854
scalar GPSRNetworkRandom.host[6].wlan[0].mac packetSentToLower:count 408
scalar GPSRNetworkRandom.host[6].wlan[0].mac packetSentToLower:sum(packetBytes) 43662
scalar GPSRNetworkRandom.host[6].wlan[0].mac packetReceivedFromUpper:count 402
scalar GPSRNetworkRandom.host[6].wlan[0].mac packetReceivedFromUpper:sum(packetBytes) 32176
scalar GPSRNetworkRandom.host[6].wlan[0].mac packetSentToUpper:count 1088
scalar GPSRNetworkRandom.host[6].wlan[0].mac packetSentToUpper:sum(packetBytes) 86904
scalar GPSRNetworkRandom.host[6].wlan[0].mac packetDrop:count 168
scalar GPSRNetworkRandom.host[6].wlan[0].mac packetDrop:sum(packetBytes) 17416
scalar GPSRNetworkRandom.host[6].wlan[0].mac packetDropIncorrectlyReceived:count 140
scalar GPSRNetworkRandom.host[6].wlan[0].mac packetDropIncorrectlyReceived:sum(packetBytes) 15256
scalar GPSRNetworkRandom.host[6].wlan[0].mac packetDropNotAddressedToUs:count 28
scalar GPSRNetworkRandom.host[6].wlan[0].mac packetDropNotAddressedToUs:sum(packetBytes) 2160
scalar GPSRNetworkRandom.host[6].wlan[0].mac packetDropQueueOverflow:count 0
scalar GPSRNetworkRandom.host[6].wlan[0].mac packetDropQueueOverflow:sum(packetBytes) 0
scalar GPSRNetworkRandom.host[6].wlan[0].mac packetDropRetryLimitReached:count 0
scalar GPSRNetworkRandom.host[6].wlan[0].mac packetDropRetryLimitReached:sum(packetBytes) 0
scalar GPSRNetworkRandom.host[6].wlan[0].mac packetDropDuplicateDetected:count 0
scalar GPSRNetworkRandom.host[6].wlan[0].mac packetDropDuplicateDetected:sum(packetBytes) 0
scalar GPSRNetworkRandom.host[6].wlan[0].mac packetDropOther:count 0
scalar GPSRNetworkRandom.host[6].wlan[0].mac packetDropOther:sum(packetBytes) 0
scalar GPSRNetworkRandom.host[6].wlan[0].mac linkBroken:count 0
scalar GPSRNetworkRandom.host[6].wlan[0].radio radioMode:count 819
scalar GPSRNetworkRandom.host[6].wlan[0].radio receptionState:count 3712
scalar GPSRNetworkRandom.host[6].wlan[0].radio transmissionState:count 1632
scalar GPSRNetworkRandom.host[6].wlan[0] packetDropInterfaceDown:count 0
scalar GPSRNetworkRandom.host[6].wlan[0] packetDropInterfaceDown:sum(packetBytes) 0
scalar GPSRNetworkRandom.host[6].wlan[0] packetDropNoCarrier:count 0
scalar GPSRNetworkRandom.host[6].wlan[0] packetDropNoCarrier:sum(packetBytes) 0
scalar GPSRNetworkRandom.host[6].ipv4.ip packetDropAddressResolutionFailed:count 0
scalar GPSRNetworkRandom.host[6].ipv4.ip packetDropAddressResolutionFailed:sum(packetBytes) 0
scalar GPSRNetworkRandom.host[6].ipv4.ip packetDropHopLimitReached:count 0
scalar GPSRNetworkRandom.host[6].ipv4.ip packetDropHopLimitReached:sum(packetBytes) 0
scalar GPSRNetworkRandom.host[6].ipv4.ip packetDropForwardingDisabled:count 0
scalar GPSRNetworkRandom.host[6].ipv4.ip packetDropForwardingDisabled:sum(packetBytes) 0
scalar GPSRNetworkRandom.host[6].ipv4.ip packetDropLifetimeExpired:count 0
scalar GPSRNetworkRandom.host[6].ipv4.ip packetDropLifetimeExpired:sum(packetBytes) 0
scalar GPSRNetworkRandom.host[6].ipv4.ip packetDropNoInterfaceFound:count 0
scalar GPSRNetworkRandom.host[6].ipv4.ip packetDropNoInterfaceFound:sum(packetBytes) 0
scalar GPSRNetworkRandom.host[6].ipv4.ip packetDropNoRouteFound:count 0
scalar GPSRNetworkRandom.host[6].ipv4.ip packetDropNoRouteFound:sum(packetBytes) 0
scalar GPSRNetworkRandom.host[6].ipv4.ip packetDropUndefined:count 0
scalar GPSRNetworkRandom.host[6].ipv4.ip packetDropUndefined:sum(packetBytes) 0
scalar GPSRNetworkRandom.host[6].ipv4.arp arpResolutionFailed:count 0
scalar GPSRNetworkRandom.host[6].ipv4.arp arpResolutionCompleted:count 2
scalar GPSRNetworkRandom.host[6].ipv4.arp arpResolutionInitiated:count 1
scalar GPSRNetworkRandom.host[6].ipv4.arp arpReplySent:count 1
scalar GPSRNetworkRandom.host[6].ipv4.arp arpReplySent:sum(packetBytes) 28
scalar GPSRNetworkRandom.host[6].ipv4.arp arpRequestSent:count 1
scalar GPSRNetworkRandom.host[6].ipv4.arp arpRequestSent:sum(packetBytes) 28
scalar GPSRNetworkRandom.host[6].ipv6.neighbourDiscovery startDad:count 1
scalar GPSRNetworkRandom.host[6].udp packetReceived:count 0
scalar GPSRNetworkRandom.host[6].udp packetReceived:sum(packetBytes) 0
scalar GPSRNetworkRandom.host[6].udp packetSent:count 0
scalar GPSRNetworkRandom.host[6].udp packetSent:sum(packetBytes) 0
scalar GPSRNetworkRandom.host[6].udp passedUpPk:count 0
scalar GPSRNetworkRandom.host[6].udp droppedPkWrongPort:count 0
scalar GPSRNetworkRandom.host[6].udp droppedPkBadChecksum:count 0
scalar GPSRNetworkRandom.host[6].app[0] pingRxSeq:count 0
scalar GPSRNetworkRandom.host[6].app[0] pingTxSeq:count 0
scalar GPSRNetworkRandom.host[6].app[0] numOutOfOrderArrivals:last nan
scalar GPSRNetworkRandom.host[6].app[0] numLost:last nan
scalar GPSRNetworkRandom.host[7].lo[0].lo rcvdPkFromHl:count 0
scalar GPSRNetworkRandom.host[7].lo[0].lo rcvdPkFromHl:sum(packetBytes) 0
scalar GPSRNetworkRandom.host[7].lo[0].lo passedUpPk:count 0
scalar GPSRNetworkRandom.host[7].lo[0].lo passedUpPk:sum(packetBytes) 0
scalar GPSRNetworkRandom.host[7].lo[0] packetDropInterfaceDown:count 0
scalar GPSRNetworkRandom.host[7].lo[0] packetDropInterfaceDown:sum(packetBytes) 0
[...]
scalar GPSRNetworkRandom.host[19].wlan[0].radio radioMode:vector:endtime 19.945356118034002
scalar GPSRNetworkRandom.host[19].wlan[0].radio receptionState:vector:count 2463
scalar GPSRNetworkRandom.host[19].wlan[0].radio receptionState:vector:sum 3268
scalar GPSRNetworkRandom.host[19].wlan[0].radio receptionState:vector:sumweights 2463
scalar GPSRNetworkRandom.host[19].wlan[0].radio receptionState:vector:mean 1.3268371904181893
scalar GPSRNetworkRandom.host[19].wlan[0].radio receptionState:vector:stddev 0.95977083596046986
scalar GPSRNetworkRandom.host[19].wlan[0].radio receptionState:vector:min 0
scalar GPSRNetworkRandom.host[19].wlan[0].radio receptionState:vector:max 3
scalar GPSRNetworkRandom.host[19].wlan[0].radio receptionState:vector:starttime 0
scalar GPSRNetworkRandom.host[19].wlan[0].radio receptionState:vector:endtime 19.993904428197002
scalar GPSRNetworkRandom.host[19].wlan[0].radio transmissionState:vector:count 1720
scalar GPSRNetworkRandom.host[19].wlan[0].radio transmissionState:vector:sum 1720
scalar GPSRNetworkRandom.host[19].wlan[0].radio transmissionState:vector:sumweights 1720
scalar GPSRNetworkRandom.host[19].wlan[0].radio transmissionState:vector:mean 1
scalar GPSRNetworkRandom.host[19].wlan[0].radio transmissionState:vector:stddev 0.70731242515808623
scalar GPSRNetworkRandom.host[19].wlan[0].radio transmissionState:vector:min 0
scalar GPSRNetworkRandom.host[19].wlan[0].radio transmissionState:vector:max 2
scalar GPSRNetworkRandom.host[19].wlan[0].radio transmissionState:vector:starttime 0.044548430936000007
scalar GPSRNetworkRandom.host[19].wlan[0].radio transmissionState:vector:endtime 19.945356118034002
scalar GPSRNetworkRandom.host[19].wlan[0].radio radioChannel:vector:count 1
scalar GPSRNetworkRandom.host[19].wlan[0].radio radioChannel:vector:sum 0
scalar GPSRNetworkRandom.host[19].wlan[0].radio radioChannel:vector:sumweights 1
scalar GPSRNetworkRandom.host[19].wlan[0].radio radioChannel:vector:mean 0
scalar GPSRNetworkRandom.host[19].wlan[0].radio radioChannel:vector:stddev nan
scalar GPSRNetworkRandom.host[19].wlan[0].radio radioChannel:vector:min 0
scalar GPSRNetworkRandom.host[19].wlan[0].radio radioChannel:vector:max 0
scalar GPSRNetworkRandom.host[19].wlan[0].radio radioChannel:vector:starttime 0
scalar GPSRNetworkRandom.host[19].wlan[0].radio radioChannel:vector:endtime 0
scalar GPSRNetworkRandom.host[19].wlan[0] packetDropInterfaceDown:vector(packetBytes):count 0
scalar GPSRNetworkRandom.host[19].wlan[0] packetDropInterfaceDown:vector(packetBytes):sum 0
scalar GPSRNetworkRandom.host[19].wlan[0] packetDropInterfaceDown:vector(packetBytes):sumweights 0
scalar GPSRNetworkRandom.host[19].wlan[0] packetDropInterfaceDown:vector(packetBytes):mean -nan
scalar GPSRNetworkRandom.host[19].wlan[0] packetDropInterfaceDown:vector(packetBytes):stddev nan
scalar GPSRNetworkRandom.host[19].wlan[0] packetDropInterfaceDown:vector(packetBytes):min inf
scalar GPSRNetworkRandom.host[19].wlan[0] packetDropInterfaceDown:vector(packetBytes):max -inf
scalar GPSRNetworkRandom.host[19].wlan[0] packetDropInterfaceDown:vector(packetBytes):starttime nan
scalar GPSRNetworkRandom.host[19].wlan[0] packetDropInterfaceDown:vector(packetBytes):endtime nan
scalar GPSRNetworkRandom.host[19].wlan[0] packetDropNoCarrier:vector(packetBytes):count 0
scalar GPSRNetworkRandom.host[19].wlan[0] packetDropNoCarrier:vector(packetBytes):sum 0
scalar GPSRNetworkRandom.host[19].wlan[0] packetDropNoCarrier:vector(packetBytes):sumweights 0
scalar GPSRNetworkRandom.host[19].wlan[0] packetDropNoCarrier:vector(packetBytes):mean -nan
scalar GPSRNetworkRandom.host[19].wlan[0] packetDropNoCarrier:vector(packetBytes):stddev nan
scalar GPSRNetworkRandom.host[19].wlan[0] packetDropNoCarrier:vector(packetBytes):min inf
scalar GPSRNetworkRandom.host[19].wlan[0] packetDropNoCarrier:vector(packetBytes):max -inf
scalar GPSRNetworkRandom.host[19].wlan[0] packetDropNoCarrier:vector(packetBytes):starttime nan
scalar GPSRNetworkRandom.host[19].wlan[0] packetDropNoCarrier:vector(packetBytes):endtime nan
scalar GPSRNetworkRandom.host[19].ipv4.ip packetDropAddressResolutionFailed:vector(packetBytes):count 0
scalar GPSRNetworkRandom.host[19].ipv4.ip packetDropAddressResolutionFailed:vector(packetBytes):sum 0
scalar GPSRNetworkRandom.host[19].ipv4.ip packetDropAddressResolutionFailed:vector(packetBytes):sumweights 0
scalar GPSRNetworkRandom.host[19].ipv4.ip packetDropAddressResolutionFailed:vector(packetBytes):mean -nan
scalar GPSRNetworkRandom.host[19].ipv4.ip packetDropAddressResolutionFailed:vector(packetBytes):stddev nan
scalar GPSRNetworkRandom.host[19].ipv4.ip packetDropAddressResolutionFailed:vector(packetBytes):min inf
scalar GPSRNetworkRandom.host[19].ipv4.ip packetDropAddressResolutionFailed:vector(packetBytes):max -inf
scalar GPSRNetworkRandom.host[19].ipv4.ip packetDropAddressResolutionFailed:vector(packetBytes):starttime nan
scalar GPSRNetworkRandom.host[19].ipv4.ip packetDropAddressResolutionFailed:vector(packetBytes):endtime nan
scalar GPSRNetworkRandom.host[19].ipv4.ip packetDropHopLimitReached:vector(packetBytes):count 0
scalar GPSRNetworkRandom.host[19].ipv4.ip packetDropHopLimitReached:vector(packetBytes):sum 0
scalar GPSRNetworkRandom.host[19].ipv4.ip packetDropHopLimitReached:vector(packetBytes):sumweights 0
scalar GPSRNetworkRandom.host[19].ipv4.ip packetDropHopLimitReached:vector(packetBytes):mean -nan
scalar GPSRNetworkRandom.host[19].ipv4.ip packetDropHopLimitReached:vector(packetBytes):stddev nan
scalar GPSRNetworkRandom.host[19].ipv4.ip packetDropHopLimitReached:vector(packetBytes):min inf
scalar GPSRNetworkRandom.host[19].ipv4.ip packetDropHopLimitReached:vector(packetBytes):max -inf
scalar GPSRNetworkRandom.host[19].ipv4.ip packetDropHopLimitReached:vector(packetBytes):starttime nan
scalar GPSRNetworkRandom.host[19].ipv4.ip packetDropHopLimitReached:vector(packetBytes):endtime nan
scalar GPSRNetworkRandom.host[19].ipv4.ip packetDropForwardingDisabled:vector(packetBytes):count 0
scalar GPSRNetworkRandom.host[19].ipv4.ip packetDropForwardingDisabled:vector(packetBytes):sum 0
scalar GPSRNetworkRandom.host[19].ipv4.ip packetDropForwardingDisabled:vector(packetBytes):sumweights 0
scalar GPSRNetworkRandom.host[19].ipv4.ip packetDropForwardingDisabled:vector(packetBytes):mean -nan
scalar GPSRNetworkRandom.host[19].ipv4.ip packetDropForwardingDisabled:vector(packetBytes):stddev nan
scalar GPSRNetworkRandom.host[19].ipv4.ip packetDropForwardingDisabled:vector(packetBytes):min inf
scalar GPSRNetworkRandom.host[19].ipv4.ip packetDropForwardingDisabled:vector(packetBytes):max -inf
scalar GPSRNetworkRandom.host[19].ipv4.ip packetDropForwardingDisabled:vector(packetBytes):starttime nan
scalar GPSRNetworkRandom.host[19].ipv4.ip packetDropForwardingDisabled:vector(packetBytes):endtime nan
scalar GPSRNetworkRandom.host[19].ipv4.ip packetDropLifetimeExpired:vector(packetBytes):count 0
scalar GPSRNetworkRandom.host[19].ipv4.ip packetDropLifetimeExpired:vector(packetBytes):sum 0
scalar GPSRNetworkRandom.host[19].ipv4.ip packetDropLifetimeExpired:vector(packetBytes):sumweights 0
scalar GPSRNetworkRandom.host[19].ipv4.ip packetDropLifetimeExpired:vector(packetBytes):mean -nan
scalar GPSRNetworkRandom.host[19].ipv4.ip packetDropLifetimeExpired:vector(packetBytes):stddev nan
scalar GPSRNetworkRandom.host[19].ipv4.ip packetDropLifetimeExpired:vector(packetBytes):min inf
scalar GPSRNetworkRandom.host[19].ipv4.ip packetDropLifetimeExpired:vector(packetBytes):max -inf
scalar GPSRNetworkRandom.host[19].ipv4.ip packetDropLifetimeExpired:vector(packetBytes):starttime nan
scalar GPSRNetworkRandom.host[19].ipv4.ip packetDropLifetimeExpired:vector(packetBytes):endtime nan
scalar GPSRNetworkRandom.host[19].ipv4.ip packetDropNoInterfaceFound:vector(packetBytes):count 0
scalar GPSRNetworkRandom.host[19].ipv4.ip packetDropNoInterfaceFound:vector(packetBytes):sum 0
scalar GPSRNetworkRandom.host[19].ipv4.ip packetDropNoInterfaceFound:vector(packetBytes):sumweights 0
scalar GPSRNetworkRandom.host[19].ipv4.ip packetDropNoInterfaceFound:vector(packetBytes):mean -nan
scalar GPSRNetworkRandom.host[19].ipv4.ip packetDropNoInterfaceFound:vector(packetBytes):stddev nan
scalar GPSRNetworkRandom.host[19].ipv4.ip packetDropNoInterfaceFound:vector(packetBytes):min inf
scalar GPSRNetworkRandom.host[19].ipv4.ip packetDropNoInterfaceFound:vector(packetBytes):max -inf
scalar GPSRNetworkRandom.host[19].ipv4.ip packetDropNoInterfaceFound:vector(packetBytes):starttime nan
scalar GPSRNetworkRandom.host[19].ipv4.ip packetDropNoInterfaceFound:vector(packetBytes):endtime nan
scalar GPSRNetworkRandom.host[19].ipv4.ip packetDropNoRouteFound:vector(packetBytes):count 0
scalar GPSRNetworkRandom.host[19].ipv4.ip packetDropNoRouteFound:vector(packetBytes):sum 0
scalar GPSRNetworkRandom.host[19].ipv4.ip packetDropNoRouteFound:vector(packetBytes):sumweights 0
scalar GPSRNetworkRandom.host[19].ipv4.ip packetDropNoRouteFound:vector(packetBytes):mean -nan
scalar GPSRNetworkRandom.host[19].ipv4.ip packetDropNoRouteFound:vector(packetBytes):stddev nan
scalar GPSRNetworkRandom.host[19].ipv4.ip packetDropNoRouteFound:vector(packetBytes):min inf
scalar GPSRNetworkRandom.host[19].ipv4.ip packetDropNoRouteFound:vector(packetBytes):max -inf
scalar GPSRNetworkRandom.host[19].ipv4.ip packetDropNoRouteFound:vector(packetBytes):starttime nan
scalar GPSRNetworkRandom.host[19].ipv4.ip packetDropNoRouteFound:vector(packetBytes):endtime nan
scalar GPSRNetworkRandom.host[19].ipv4.ip packetDropUndefined:vector(packetBytes):count 0
scalar GPSRNetworkRandom.host[19].ipv4.ip packetDropUndefined:vector(packetBytes):sum 0
scalar GPSRNetworkRandom.host[19].ipv4.ip packetDropUndefined:vector(packetBytes):sumweights 0
scalar GPSRNetworkRandom.host[19].ipv4.ip packetDropUndefined:vector(packetBytes):mean -nan
scalar GPSRNetworkRandom.host[19].ipv4.ip packetDropUndefined:vector(packetBytes):stddev nan
scalar GPSRNetworkRandom.host[19].ipv4.ip packetDropUndefined:vector(packetBytes):min inf
scalar GPSRNetworkRandom.host[19].ipv4.ip packetDropUndefined:vector(packetBytes):max -inf
scalar GPSRNetworkRandom.host[19].ipv4.ip packetDropUndefined:vector(packetBytes):starttime nan
scalar GPSRNetworkRandom.host[19].ipv4.ip packetDropUndefined:vector(packetBytes):endtime nan
scalar GPSRNetworkRandom.host[19].ipv4.arp arpRequestSent:vector(packetBytes):count 0
scalar GPSRNetworkRandom.host[19].ipv4.arp arpRequestSent:vector(packetBytes):sum 0
scalar GPSRNetworkRandom.host[19].ipv4.arp arpRequestSent:vector(packetBytes):sumweights 0
scalar GPSRNetworkRandom.host[19].ipv4.arp arpRequestSent:vector(packetBytes):mean -nan
scalar GPSRNetworkRandom.host[19].ipv4.arp arpRequestSent:vector(packetBytes):stddev nan
scalar GPSRNetworkRandom.host[19].ipv4.arp arpRequestSent:vector(packetBytes):min inf
scalar GPSRNetworkRandom.host[19].ipv4.arp arpRequestSent:vector(packetBytes):max -inf
scalar GPSRNetworkRandom.host[19].ipv4.arp arpRequestSent:vector(packetBytes):starttime nan
scalar GPSRNetworkRandom.host[19].ipv4.arp arpRequestSent:vector(packetBytes):endtime nan
scalar GPSRNetworkRandom.host[19].ipv4.arp arpReplySent:vector(packetBytes):count 1
scalar GPSRNetworkRandom.host[19].ipv4.arp arpReplySent:vector(packetBytes):sum 28
scalar GPSRNetworkRandom.host[19].ipv4.arp arpReplySent:vector(packetBytes):sumweights 1
scalar GPSRNetworkRandom.host[19].ipv4.arp arpReplySent:vector(packetBytes):mean 28
scalar GPSRNetworkRandom.host[19].ipv4.arp arpReplySent:vector(packetBytes):stddev nan
scalar GPSRNetworkRandom.host[19].ipv4.arp arpReplySent:vector(packetBytes):min 28
scalar GPSRNetworkRandom.host[19].ipv4.arp arpReplySent:vector(packetBytes):max 28
scalar GPSRNetworkRandom.host[19].ipv4.arp arpReplySent:vector(packetBytes):starttime 13.195702658019002
scalar GPSRNetworkRandom.host[19].ipv4.arp arpReplySent:vector(packetBytes):endtime 13.195702658019002
scalar GPSRNetworkRandom.host[19].ipv6.neighbourDiscovery startDad:vector:count 1
scalar GPSRNetworkRandom.host[19].ipv6.neighbourDiscovery startDad:vector:sum 1
scalar GPSRNetworkRandom.host[19].ipv6.neighbourDiscovery startDad:vector:sumweights 1
scalar GPSRNetworkRandom.host[19].ipv6.neighbourDiscovery startDad:vector:mean 1
scalar GPSRNetworkRandom.host[19].ipv6.neighbourDiscovery startDad:vector:stddev nan
scalar GPSRNetworkRandom.host[19].ipv6.neighbourDiscovery startDad:vector:min 1
scalar GPSRNetworkRandom.host[19].ipv6.neighbourDiscovery startDad:vector:max 1
scalar GPSRNetworkRandom.host[19].ipv6.neighbourDiscovery startDad:vector:starttime 0.097514168266000012
scalar GPSRNetworkRandom.host[19].ipv6.neighbourDiscovery startDad:vector:endtime 0.097514168266000012
scalar GPSRNetworkRandom.host[19].udp packetSent:vector(packetBytes):count 0
scalar GPSRNetworkRandom.host[19].udp packetSent:vector(packetBytes):sum 0
scalar GPSRNetworkRandom.host[19].udp packetSent:vector(packetBytes):sumweights 0
scalar GPSRNetworkRandom.host[19].udp packetSent:vector(packetBytes):mean -nan
scalar GPSRNetworkRandom.host[19].udp packetSent:vector(packetBytes):stddev nan
scalar GPSRNetworkRandom.host[19].udp packetSent:vector(packetBytes):min inf
scalar GPSRNetworkRandom.host[19].udp packetSent:vector(packetBytes):max -inf
scalar GPSRNetworkRandom.host[19].udp packetSent:vector(packetBytes):starttime nan
scalar GPSRNetworkRandom.host[19].udp packetSent:vector(packetBytes):endtime nan
scalar GPSRNetworkRandom.host[19].udp outgoingDataRate:vector:count 200
scalar GPSRNetworkRandom.host[19].udp outgoingDataRate:vector:sum 0
scalar GPSRNetworkRandom.host[19].udp outgoingDataRate:vector:sumweights 200
scalar GPSRNetworkRandom.host[19].udp outgoingDataRate:vector:mean 0
scalar GPSRNetworkRandom.host[19].udp outgoingDataRate:vector:stddev 0
scalar GPSRNetworkRandom.host[19].udp outgoingDataRate:vector:min 0
scalar GPSRNetworkRandom.host[19].udp outgoingDataRate:vector:max 0
scalar GPSRNetworkRandom.host[19].udp outgoingDataRate:vector:starttime 0.10000000000000001
scalar GPSRNetworkRandom.host[19].udp outgoingDataRate:vector:endtime 20
scalar GPSRNetworkRandom.host[19].udp packetReceived:vector(packetBytes):count 0
scalar GPSRNetworkRandom.host[19].udp packetReceived:vector(packetBytes):sum 0
scalar GPSRNetworkRandom.host[19].udp packetReceived:vector(packetBytes):sumweights 0
scalar GPSRNetworkRandom.host[19].udp packetReceived:vector(packetBytes):mean -nan
scalar GPSRNetworkRandom.host[19].udp packetReceived:vector(packetBytes):stddev nan
scalar GPSRNetworkRandom.host[19].udp packetReceived:vector(packetBytes):min inf
scalar GPSRNetworkRandom.host[19].udp packetReceived:vector(packetBytes):max -inf
scalar GPSRNetworkRandom.host[19].udp packetReceived:vector(packetBytes):starttime nan
scalar GPSRNetworkRandom.host[19].udp packetReceived:vector(packetBytes):endtime nan
scalar GPSRNetworkRandom.host[19].udp passedUpPk:vector(count):count 1
scalar GPSRNetworkRandom.host[19].udp passedUpPk:vector(count):sum 0
scalar GPSRNetworkRandom.host[19].udp passedUpPk:vector(count):sumweights 1
scalar GPSRNetworkRandom.host[19].udp passedUpPk:vector(count):mean 0
scalar GPSRNetworkRandom.host[19].udp passedUpPk:vector(count):stddev nan
scalar GPSRNetworkRandom.host[19].udp passedUpPk:vector(count):min 0
scalar GPSRNetworkRandom.host[19].udp passedUpPk:vector(count):max 0
scalar GPSRNetworkRandom.host[19].udp passedUpPk:vector(count):starttime 0
scalar GPSRNetworkRandom.host[19].udp passedUpPk:vector(count):endtime 0
scalar GPSRNetworkRandom.host[19].udp droppedPkWrongPort:vector(count):count 1
scalar GPSRNetworkRandom.host[19].udp droppedPkWrongPort:vector(count):sum 0
scalar GPSRNetworkRandom.host[19].udp droppedPkWrongPort:vector(count):sumweights 1
scalar GPSRNetworkRandom.host[19].udp droppedPkWrongPort:vector(count):mean 0
scalar GPSRNetworkRandom.host[19].udp droppedPkWrongPort:vector(count):stddev nan
scalar GPSRNetworkRandom.host[19].udp droppedPkWrongPort:vector(count):min 0
scalar GPSRNetworkRandom.host[19].udp droppedPkWrongPort:vector(count):max 0
scalar GPSRNetworkRandom.host[19].udp droppedPkWrongPort:vector(count):starttime 0
scalar GPSRNetworkRandom.host[19].udp droppedPkWrongPort:vector(count):endtime 0
scalar GPSRNetworkRandom.host[19].udp droppedPkBadChecksum:vector(count):count 1
scalar GPSRNetworkRandom.host[19].udp droppedPkBadChecksum:vector(count):sum 0
scalar GPSRNetworkRandom.host[19].udp droppedPkBadChecksum:vector(count):sumweights 1
scalar GPSRNetworkRandom.host[19].udp droppedPkBadChecksum:vector(count):mean 0
scalar GPSRNetworkRandom.host[19].udp droppedPkBadChecksum:vector(count):stddev nan
scalar GPSRNetworkRandom.host[19].udp droppedPkBadChecksum:vector(count):min 0
scalar GPSRNetworkRandom.host[19].udp droppedPkBadChecksum:vector(count):max 0
scalar GPSRNetworkRandom.host[19].udp droppedPkBadChecksum:vector(count):starttime 0
scalar GPSRNetworkRandom.host[19].udp droppedPkBadChecksum:vector(count):endtime 0
scalar GPSRNetworkRandom.host[19].app[0] rtt:vector:count 0
scalar GPSRNetworkRandom.host[19].app[0] rtt:vector:sum 0
scalar GPSRNetworkRandom.host[19].app[0] rtt:vector:sumweights 0
scalar GPSRNetworkRandom.host[19].app[0] rtt:vector:mean -nan
scalar GPSRNetworkRandom.host[19].app[0] rtt:vector:stddev nan
scalar GPSRNetworkRandom.host[19].app[0] rtt:vector:min inf
scalar GPSRNetworkRandom.host[19].app[0] rtt:vector:max -inf
scalar GPSRNetworkRandom.host[19].app[0] rtt:vector:starttime nan
scalar GPSRNetworkRandom.host[19].app[0] rtt:vector:endtime nan
scalar GPSRNetworkRandom.host[19].app[0] numLost:vector:count 0
scalar GPSRNetworkRandom.host[19].app[0] numLost:vector:sum 0
scalar GPSRNetworkRandom.host[19].app[0] numLost:vector:sumweights 0
scalar GPSRNetworkRandom.host[19].app[0] numLost:vector:mean -nan
scalar GPSRNetworkRandom.host[19].app[0] numLost:vector:stddev nan
scalar GPSRNetworkRandom.host[19].app[0] numLost:vector:min inf
scalar GPSRNetworkRandom.host[19].app[0] numLost:vector:max -inf
scalar GPSRNetworkRandom.host[19].app[0] numLost:vector:starttime nan
scalar GPSRNetworkRandom.host[19].app[0] numLost:vector:endtime nan
scalar GPSRNetworkRandom.host[19].app[0] numOutOfOrderArrivals:vector:count 0
scalar GPSRNetworkRandom.host[19].app[0] numOutOfOrderArrivals:vector:sum 0
scalar GPSRNetworkRandom.host[19].app[0] numOutOfOrderArrivals:vector:sumweights 0
scalar GPSRNetworkRandom.host[19].app[0] numOutOfOrderArrivals:vector:mean -nan
scalar GPSRNetworkRandom.host[19].app[0] numOutOfOrderArrivals:vector:stddev nan
scalar GPSRNetworkRandom.host[19].app[0] numOutOfOrderArrivals:vector:min inf
scalar GPSRNetworkRandom.host[19].app[0] numOutOfOrderArrivals:vector:max -inf
scalar GPSRNetworkRandom.host[19].app[0] numOutOfOrderArrivals:vector:starttime nan
scalar GPSRNetworkRandom.host[19].app[0] numOutOfOrderArrivals:vector:endtime nan
scalar GPSRNetworkRandom.host[19].app[0] pingTxSeq:vector:count 0
scalar GPSRNetworkRandom.host[19].app[0] pingTxSeq:vector:sum 0
scalar GPSRNetworkRandom.host[19].app[0] pingTxSeq:vector:sumweights 0
scalar GPSRNetworkRandom.host[19].app[0] pingTxSeq:vector:mean -nan
scalar GPSRNetworkRandom.host[19].app[0] pingTxSeq:vector:stddev nan
scalar GPSRNetworkRandom.host[19].app[0] pingTxSeq:vector:min inf
scalar GPSRNetworkRandom.host[19].app[0] pingTxSeq:vector:max -inf
scalar GPSRNetworkRandom.host[19].app[0] pingTxSeq:vector:starttime nan
scalar GPSRNetworkRandom.host[19].app[0] pingTxSeq:vector:endtime nan
scalar GPSRNetworkRandom.host[19].app[0] pingRxSeq:vector:count 0
scalar GPSRNetworkRandom.host[19].app[0] pingRxSeq:vector:sum 0
scalar GPSRNetworkRandom.host[19].app[0] pingRxSeq:vector:sumweights 0
scalar GPSRNetworkRandom.host[19].app[0] pingRxSeq:vector:mean -nan
scalar GPSRNetworkRandom.host[19].app[0] pingRxSeq:vector:stddev nan
scalar GPSRNetworkRandom.host[19].app[0] pingRxSeq:vector:min inf
scalar GPSRNetworkRandom.host[19].app[0] pingRxSeq:vector:max -inf
scalar GPSRNetworkRandom.host[19].app[0] pingRxSeq:vector:starttime nan
scalar GPSRNetworkRandom.host[19].app[0] pingRxSeq:vector:endtime nan

