version 3
run General-0-20251118-11:40:32-109400
attr configname General
attr datetime 20251118-11:40:32
attr datetimef 20251118-114032
attr experiment General
attr inifile omnetpp.ini
attr iterationvars ""
attr iterationvarsd ""
attr iterationvarsf ""
attr measurement ""
attr network BgpNetwork
attr processid 109400
attr repetition 0
attr replication #0
attr resultdir results
attr runnumber 0
attr seedset 0
config **.param-recording false
config image-path /home/zoli/Projects/OMNET/inet/images
config output-scalar-file results/omnetpp.ini-General-#0.sca
config output-scalar-precision 17
config output-vector-file results/omnetpp.ini-General-#0.vec
config output-vector-precision 17
config record-eventlog false
config sim-time-limit 100s
config description "Multi OSPF + BGP"
config network BgpNetwork
config sim-time-limit 100s
config output-scalar-file results.sca
config output-scalar-precision 3
config **.app[0].**.scalar-recording true
config **.scalar-recording false
config **.vector-recording false
config **.eth[*].queue.packetCapacity 100
config **.tcp.typename Tcp
config **.tcp.mss 1024
config **.tcp.advertisedWindow 14336
config **.tcp.tcpAlgorithmClass "\"TcpReno\""
config **.ospfConfig "xmldoc(\"OSPFConfig.xml\")"
config **.bgpConfig "xmldoc(\"BGPConfig.xml\")"
config **.bgp.redistributeOspf "\"O IA E2\""
config *.visualizer.interfaceTableVisualizer.displayInterfaceTables true
config **.HA*.numApps 1
config **.HB*.numApps 1
config **.HC*.numApps 1
config **.app[0].messageLength "32 bytes"
config **.app[0].sendInterval 2s
config **.app[0].localPort 1234
config **.app[0].destPort 1234
config **.HA11.app[*].typename UdpBasicApp
config **.HA11.app[0].destAddresses "\"192.170.1.2\""
config **.HA21.app[*].typename UdpBasicApp
config **.HA21.app[0].destAddresses "\"192.172.1.2\""
config **.HB11.app[*].typename UdpBasicApp
config **.HB11.app[0].destAddresses "\"192.169.1.2\""
config **.HB21.app[*].typename UdpBasicApp
config **.HB21.app[0].destAddresses "\"192.173.1.2\""
config **.HC11.app[*].typename UdpBasicApp
config **.HC11.app[0].destAddresses "\"192.171.1.2\""
config **.HC21.app[*].typename UdpBasicApp
config **.HC21.app[0].destAddresses "\"192.168.1.2\""
config **.HA12.app[*].typename UdpSink
config **.HA22.app[*].typename UdpSink
config **.HB12.app[*].typename UdpSink
config **.HB22.app[*].typename UdpSink
config **.HC12.app[*].typename UdpSink
config **.HC22.app[*].typename UdpSink

scalar BgpNetwork.HA11.app[0] "packets sent" 50
scalar BgpNetwork.HA11.app[0] "packets received" 0
scalar BgpNetwork.HA11.app[0] packetReceived:count 0
scalar BgpNetwork.HA11.app[0] packetReceived:sum(packetBytes) 0
scalar BgpNetwork.HA11.app[0] packetSent:count 50
scalar BgpNetwork.HA11.app[0] packetSent:sum(packetBytes) 1600
scalar BgpNetwork.HA12.app[0] packetReceived:count 41
scalar BgpNetwork.HA12.app[0] packetReceived:sum(packetBytes) 1312
scalar BgpNetwork.HA21.app[0] "packets sent" 50
scalar BgpNetwork.HA21.app[0] "packets received" 0
scalar BgpNetwork.HA21.app[0] packetReceived:count 0
scalar BgpNetwork.HA21.app[0] packetReceived:sum(packetBytes) 0
scalar BgpNetwork.HA21.app[0] packetSent:count 50
scalar BgpNetwork.HA21.app[0] packetSent:sum(packetBytes) 1600
scalar BgpNetwork.HA22.app[0] packetReceived:count 41
scalar BgpNetwork.HA22.app[0] packetReceived:sum(packetBytes) 1312
scalar BgpNetwork.HB11.app[0] "packets sent" 50
scalar BgpNetwork.HB11.app[0] "packets received" 0
scalar BgpNetwork.HB11.app[0] packetReceived:count 0
scalar BgpNetwork.HB11.app[0] packetReceived:sum(packetBytes) 0
scalar BgpNetwork.HB11.app[0] packetSent:count 50
scalar BgpNetwork.HB11.app[0] packetSent:sum(packetBytes) 1600
scalar BgpNetwork.HB12.app[0] packetReceived:count 41
scalar BgpNetwork.HB12.app[0] packetReceived:sum(packetBytes) 1312
scalar BgpNetwork.HB21.app[0] "packets sent" 50
scalar BgpNetwork.HB21.app[0] "packets received" 0
scalar BgpNetwork.HB21.app[0] packetReceived:count 0
scalar BgpNetwork.HB21.app[0] packetReceived:sum(packetBytes) 0
scalar BgpNetwork.HB21.app[0] packetSent:count 50
scalar BgpNetwork.HB21.app[0] packetSent:sum(packetBytes) 1600
scalar BgpNetwork.HB22.app[0] packetReceived:count 0
scalar BgpNetwork.HB22.app[0] packetReceived:sum(packetBytes) 0
scalar BgpNetwork.HC11.app[0] "packets sent" 50
scalar BgpNetwork.HC11.app[0] "packets received" 0
scalar BgpNetwork.HC11.app[0] packetReceived:count 0
scalar BgpNetwork.HC11.app[0] packetReceived:sum(packetBytes) 0
scalar BgpNetwork.HC11.app[0] packetSent:count 50
scalar BgpNetwork.HC11.app[0] packetSent:sum(packetBytes) 1600
scalar BgpNetwork.HC12.app[0] packetReceived:count 0
scalar BgpNetwork.HC12.app[0] packetReceived:sum(packetBytes) 0
scalar BgpNetwork.HC21.app[0] "packets sent" 50
scalar BgpNetwork.HC21.app[0] "packets received" 0
scalar BgpNetwork.HC21.app[0] packetReceived:count 0
scalar BgpNetwork.HC21.app[0] packetReceived:sum(packetBytes) 0
scalar BgpNetwork.HC21.app[0] packetSent:count 50
scalar BgpNetwork.HC21.app[0] packetSent:sum(packetBytes) 1600
scalar BgpNetwork.HC22.app[0] packetReceived:count 41
scalar BgpNetwork.HC22.app[0] packetReceived:sum(packetBytes) 1312
scalar BgpNetwork.HA11.app[0] rcvdPkLifetime:stats:count 0
scalar BgpNetwork.HA11.app[0] rcvdPkLifetime:stats:sumweights 0
scalar BgpNetwork.HA11.app[0] rcvdPkLifetime:stats:mean -nan
scalar BgpNetwork.HA11.app[0] rcvdPkLifetime:stats:stddev nan
scalar BgpNetwork.HA11.app[0] rcvdPkLifetime:stats:min nan
scalar BgpNetwork.HA11.app[0] rcvdPkLifetime:stats:max nan
scalar BgpNetwork.HA11.app[0] rcvdPkLifetime:stats:numbins 0
scalar BgpNetwork.HA21.app[0] rcvdPkLifetime:stats:count 0
scalar BgpNetwork.HA21.app[0] rcvdPkLifetime:stats:sumweights 0
scalar BgpNetwork.HA21.app[0] rcvdPkLifetime:stats:mean -nan
scalar BgpNetwork.HA21.app[0] rcvdPkLifetime:stats:stddev nan
scalar BgpNetwork.HA21.app[0] rcvdPkLifetime:stats:min nan
scalar BgpNetwork.HA21.app[0] rcvdPkLifetime:stats:max nan
scalar BgpNetwork.HA21.app[0] rcvdPkLifetime:stats:numbins 0
scalar BgpNetwork.HB11.app[0] rcvdPkLifetime:stats:count 0
scalar BgpNetwork.HB11.app[0] rcvdPkLifetime:stats:sumweights 0
scalar BgpNetwork.HB11.app[0] rcvdPkLifetime:stats:mean -nan
scalar BgpNetwork.HB11.app[0] rcvdPkLifetime:stats:stddev nan
scalar BgpNetwork.HB11.app[0] rcvdPkLifetime:stats:min nan
scalar BgpNetwork.HB11.app[0] rcvdPkLifetime:stats:max nan
scalar BgpNetwork.HB11.app[0] rcvdPkLifetime:stats:numbins 0
scalar BgpNetwork.HB21.app[0] rcvdPkLifetime:stats:count 0
scalar BgpNetwork.HB21.app[0] rcvdPkLifetime:stats:sumweights 0
scalar BgpNetwork.HB21.app[0] rcvdPkLifetime:stats:mean -nan
scalar BgpNetwork.HB21.app[0] rcvdPkLifetime:stats:stddev nan
scalar BgpNetwork.HB21.app[0] rcvdPkLifetime:stats:min nan
scalar BgpNetwork.HB21.app[0] rcvdPkLifetime:stats:max nan
scalar BgpNetwork.HB21.app[0] rcvdPkLifetime:stats:numbins 0
scalar BgpNetwork.HC11.app[0] rcvdPkLifetime:stats:count 0
scalar BgpNetwork.HC11.app[0] rcvdPkLifetime:stats:sumweights 0
scalar BgpNetwork.HC11.app[0] rcvdPkLifetime:stats:mean -nan
scalar BgpNetwork.HC11.app[0] rcvdPkLifetime:stats:stddev nan
scalar BgpNetwork.HC11.app[0] rcvdPkLifetime:stats:min nan
scalar BgpNetwork.HC11.app[0] rcvdPkLifetime:stats:max nan
scalar BgpNetwork.HC11.app[0] rcvdPkLifetime:stats:numbins 0
scalar BgpNetwork.HC21.app[0] rcvdPkLifetime:stats:count 0
scalar BgpNetwork.HC21.app[0] rcvdPkLifetime:stats:sumweights 0
scalar BgpNetwork.HC21.app[0] rcvdPkLifetime:stats:mean -nan
scalar BgpNetwork.HC21.app[0] rcvdPkLifetime:stats:stddev nan
scalar BgpNetwork.HC21.app[0] rcvdPkLifetime:stats:min nan
scalar BgpNetwork.HC21.app[0] rcvdPkLifetime:stats:max nan
scalar BgpNetwork.HC21.app[0] rcvdPkLifetime:stats:numbins 0
scalar BgpNetwork.HA12.app[0] endToEndDelay:histogram:count 41
scalar BgpNetwork.HA12.app[0] endToEndDelay:histogram:sumweights 41
scalar BgpNetwork.HA12.app[0] endToEndDelay:histogram:mean 0.00039903999999999965
scalar BgpNetwork.HA12.app[0] endToEndDelay:histogram:stddev 3.4832995851636839e-05
scalar BgpNetwork.HA12.app[0] endToEndDelay:histogram:min 0.00039359999999999997
scalar BgpNetwork.HA12.app[0] endToEndDelay:histogram:max 0.00061664
scalar BgpNetwork.HA12.app[0] endToEndDelay:histogram:numbins 68
scalar BgpNetwork.HA12.app[0] endToEndDelay:histogram:rangemin 0.00033500000000000007
scalar BgpNetwork.HA12.app[0] endToEndDelay:histogram:rangemax 0.00067500000000000014
scalar BgpNetwork.HA12.app[0] endToEndDelay:histogram:underflows 0
scalar BgpNetwork.HA12.app[0] endToEndDelay:histogram:overflows 0
scalar BgpNetwork.HA22.app[0] endToEndDelay:histogram:count 41
scalar BgpNetwork.HA22.app[0] endToEndDelay:histogram:sumweights 41
scalar BgpNetwork.HA22.app[0] endToEndDelay:histogram:mean 0.00039903999999999965
scalar BgpNetwork.HA22.app[0] endToEndDelay:histogram:stddev 3.4832995851636839e-05
scalar BgpNetwork.HA22.app[0] endToEndDelay:histogram:min 0.00039359999999999997
scalar BgpNetwork.HA22.app[0] endToEndDelay:histogram:max 0.00061664
scalar BgpNetwork.HA22.app[0] endToEndDelay:histogram:numbins 68
scalar BgpNetwork.HA22.app[0] endToEndDelay:histogram:rangemin 0.00033500000000000007
scalar BgpNetwork.HA22.app[0] endToEndDelay:histogram:rangemax 0.00067500000000000014
scalar BgpNetwork.HA22.app[0] endToEndDelay:histogram:underflows 0
scalar BgpNetwork.HA22.app[0] endToEndDelay:histogram:overflows 0
scalar BgpNetwork.HB12.app[0] endToEndDelay:histogram:count 41
scalar BgpNetwork.HB12.app[0] endToEndDelay:histogram:sumweights 41
scalar BgpNetwork.HB12.app[0] endToEndDelay:histogram:mean 0.00039903999999999965
scalar BgpNetwork.HB12.app[0] endToEndDelay:histogram:stddev 3.4832995851636839e-05
scalar BgpNetwork.HB12.app[0] endToEndDelay:histogram:min 0.00039359999999999997
scalar BgpNetwork.HB12.app[0] endToEndDelay:histogram:max 0.00061664
scalar BgpNetwork.HB12.app[0] endToEndDelay:histogram:numbins 68
scalar BgpNetwork.HB12.app[0] endToEndDelay:histogram:rangemin 0.00033500000000000007
scalar BgpNetwork.HB12.app[0] endToEndDelay:histogram:rangemax 0.00067500000000000014
scalar BgpNetwork.HB12.app[0] endToEndDelay:histogram:underflows 0
scalar BgpNetwork.HB12.app[0] endToEndDelay:histogram:overflows 0
scalar BgpNetwork.HB22.app[0] endToEndDelay:histogram:count 0
scalar BgpNetwork.HB22.app[0] endToEndDelay:histogram:sumweights 0
scalar BgpNetwork.HB22.app[0] endToEndDelay:histogram:mean -nan
scalar BgpNetwork.HB22.app[0] endToEndDelay:histogram:stddev nan
scalar BgpNetwork.HB22.app[0] endToEndDelay:histogram:min nan
scalar BgpNetwork.HB22.app[0] endToEndDelay:histogram:max nan
scalar BgpNetwork.HB22.app[0] endToEndDelay:histogram:numbins 1
scalar BgpNetwork.HB22.app[0] endToEndDelay:histogram:rangemin 0
scalar BgpNetwork.HB22.app[0] endToEndDelay:histogram:rangemax 1
scalar BgpNetwork.HB22.app[0] endToEndDelay:histogram:underflows 0
scalar BgpNetwork.HB22.app[0] endToEndDelay:histogram:overflows 0
scalar BgpNetwork.HC12.app[0] endToEndDelay:histogram:count 0
scalar BgpNetwork.HC12.app[0] endToEndDelay:histogram:sumweights 0
scalar BgpNetwork.HC12.app[0] endToEndDelay:histogram:mean -nan
scalar BgpNetwork.HC12.app[0] endToEndDelay:histogram:stddev nan
scalar BgpNetwork.HC12.app[0] endToEndDelay:histogram:min nan
scalar BgpNetwork.HC12.app[0] endToEndDelay:histogram:max nan
scalar BgpNetwork.HC12.app[0] endToEndDelay:histogram:numbins 1
scalar BgpNetwork.HC12.app[0] endToEndDelay:histogram:rangemin 0
scalar BgpNetwork.HC12.app[0] endToEndDelay:histogram:rangemax 1
scalar BgpNetwork.HC12.app[0] endToEndDelay:histogram:underflows 0
scalar BgpNetwork.HC12.app[0] endToEndDelay:histogram:overflows 0
scalar BgpNetwork.HC22.app[0] endToEndDelay:histogram:count 41
scalar BgpNetwork.HC22.app[0] endToEndDelay:histogram:sumweights 41
scalar BgpNetwork.HC22.app[0] endToEndDelay:histogram:mean 0.00040052097560975576
scalar BgpNetwork.HC22.app[0] endToEndDelay:histogram:stddev 4.4315866673512204e-05
scalar BgpNetwork.HC22.app[0] endToEndDelay:histogram:min 0.00039359999999999997
scalar BgpNetwork.HC22.app[0] endToEndDelay:histogram:max 0.00067736000000000001
scalar BgpNetwork.HC22.app[0] endToEndDelay:histogram:numbins 86
scalar BgpNetwork.HC22.app[0] endToEndDelay:histogram:rangemin 0.00032000000000000008
scalar BgpNetwork.HC22.app[0] endToEndDelay:histogram:rangemax 0.00075000000000000023
scalar BgpNetwork.HC22.app[0] endToEndDelay:histogram:underflows 0
scalar BgpNetwork.HC22.app[0] endToEndDelay:histogram:overflows 0
statistic BgpNetwork.HA11.app[0] rcvdPkLifetime:stats
field count 0
field mean -nan
field stddev nan
field min nan
field max nan
field sum 0
field sqrsum 0
statistic BgpNetwork.HA21.app[0] rcvdPkLifetime:stats
field count 0
field mean -nan
field stddev nan
field min nan
field max nan
field sum 0
field sqrsum 0
statistic BgpNetwork.HB11.app[0] rcvdPkLifetime:stats
field count 0
field mean -nan
field stddev nan
field min nan
field max nan
field sum 0
field sqrsum 0
statistic BgpNetwork.HB21.app[0] rcvdPkLifetime:stats
field count 0
field mean -nan
field stddev nan
field min nan
field max nan
field sum 0
field sqrsum 0
statistic BgpNetwork.HC11.app[0] rcvdPkLifetime:stats
field count 0
field mean -nan
field stddev nan
field min nan
field max nan
field sum 0
field sqrsum 0
statistic BgpNetwork.HC21.app[0] rcvdPkLifetime:stats
field count 0
field mean -nan
field stddev nan
field min nan
field max nan
field sum 0
field sqrsum 0
statistic BgpNetwork.HA12.app[0] endToEndDelay:histogram
field count 41
field mean 0.00039903999999999965
field stddev 3.4832995851636839e-05
field min 0.00039359999999999997
field max 0.00061664
field sum 0.016360639999999985
field sqrsum 6.577083289599994e-06
bin	-inf	0
bin	0.00033500000000000007	0
bin	0.00034000000000000008	0
bin	0.00034500000000000009	0
bin	0.00035000000000000005	0
bin	0.00035500000000000006	0
bin	0.00036000000000000008	0
bin	0.00036500000000000009	0
bin	0.0003700000000000001	0
bin	0.00037500000000000006	0
bin	0.00038000000000000008	0
bin	0.00038500000000000009	0
bin	0.0003900000000000001	40
bin	0.00039500000000000006	0
bin	0.00040000000000000007	0
bin	0.00040500000000000009	0
bin	0.0004100000000000001	0
bin	0.00041500000000000011	0
bin	0.00042000000000000007	0
bin	0.00042500000000000008	0
bin	0.0004300000000000001	0
bin	0.00043500000000000006	0
bin	0.00044000000000000007	0
bin	0.00044500000000000008	0
bin	0.0004500000000000001	0
bin	0.00045500000000000011	0
bin	0.00046000000000000012	0
bin	0.00046500000000000014	0
bin	0.00047000000000000009	0
bin	0.00047500000000000011	0
bin	0.00048000000000000007	0
bin	0.00048500000000000008	0
bin	0.00049000000000000009	0
bin	0.00049500000000000011	0
bin	0.00050000000000000012	0
bin	0.00050500000000000013	0
bin	0.00051000000000000015	0
bin	0.00051500000000000005	0
bin	0.00052000000000000006	0
bin	0.00052500000000000008	0
bin	0.00053000000000000009	0
bin	0.0005350000000000001	0
bin	0.00054000000000000012	0
bin	0.00054500000000000013	0
bin	0.00055000000000000014	0
bin	0.00055500000000000015	0
bin	0.00056000000000000017	0
bin	0.00056500000000000018	0
bin	0.00057000000000000009	0
bin	0.0005750000000000001	0
bin	0.00058000000000000011	0
bin	0.00058500000000000012	0
bin	0.00059000000000000014	0
bin	0.00059500000000000015	0
bin	0.00060000000000000006	0
bin	0.00060500000000000007	0
bin	0.00061000000000000008	0
bin	0.0006150000000000001	1
bin	0.00062000000000000011	0
bin	0.00062500000000000012	0
bin	0.00063000000000000013	0
bin	0.00063500000000000015	0
bin	0.00064000000000000016	0
bin	0.00064500000000000017	0
bin	0.00065000000000000019	0
bin	0.0006550000000000002	0
bin	0.00066000000000000021	0
bin	0.00066500000000000023	0
bin	0.00067000000000000013	0
bin	0.00067500000000000014	0
statistic BgpNetwork.HA22.app[0] endToEndDelay:histogram
field count 41
field mean 0.00039903999999999965
field stddev 3.4832995851636839e-05
field min 0.00039359999999999997
field max 0.00061664
field sum 0.016360639999999985
field sqrsum 6.577083289599994e-06
bin	-inf	0
bin	0.00033500000000000007	0
bin	0.00034000000000000008	0
bin	0.00034500000000000009	0
bin	0.00035000000000000005	0
bin	0.00035500000000000006	0
bin	0.00036000000000000008	0
bin	0.00036500000000000009	0
bin	0.0003700000000000001	0
bin	0.00037500000000000006	0
bin	0.00038000000000000008	0
bin	0.00038500000000000009	0
bin	0.0003900000000000001	40
bin	0.00039500000000000006	0
bin	0.00040000000000000007	0
bin	0.00040500000000000009	0
bin	0.0004100000000000001	0
bin	0.00041500000000000011	0
bin	0.00042000000000000007	0
bin	0.00042500000000000008	0
bin	0.0004300000000000001	0
bin	0.00043500000000000006	0
bin	0.00044000000000000007	0
bin	0.00044500000000000008	0
bin	0.0004500000000000001	0
bin	0.00045500000000000011	0
bin	0.00046000000000000012	0
bin	0.00046500000000000014	0
bin	0.00047000000000000009	0
bin	0.00047500000000000011	0
bin	0.00048000000000000007	0
bin	0.00048500000000000008	0
bin	0.00049000000000000009	0
bin	0.00049500000000000011	0
bin	0.00050000000000000012	0
bin	0.00050500000000000013	0
bin	0.00051000000000000015	0
bin	0.00051500000000000005	0
bin	0.00052000000000000006	0
bin	0.00052500000000000008	0
bin	0.00053000000000000009	0
bin	0.0005350000000000001	0
bin	0.00054000000000000012	0
bin	0.00054500000000000013	0
bin	0.00055000000000000014	0
bin	0.00055500000000000015	0
bin	0.00056000000000000017	0
bin	0.00056500000000000018	0
bin	0.00057000000000000009	0
bin	0.0005750000000000001	0
bin	0.00058000000000000011	0
bin	0.00058500000000000012	0
bin	0.00059000000000000014	0
bin	0.00059500000000000015	0
bin	0.00060000000000000006	0
bin	0.00060500000000000007	0
bin	0.00061000000000000008	0
bin	0.0006150000000000001	1
bin	0.00062000000000000011	0
bin	0.00062500000000000012	0
bin	0.00063000000000000013	0
bin	0.00063500000000000015	0
bin	0.00064000000000000016	0
bin	0.00064500000000000017	0
bin	0.00065000000000000019	0
bin	0.0006550000000000002	0
bin	0.00066000000000000021	0
bin	0.00066500000000000023	0
bin	0.00067000000000000013	0
bin	0.00067500000000000014	0
statistic BgpNetwork.HB12.app[0] endToEndDelay:histogram
field count 41
field mean 0.00039903999999999965
field stddev 3.4832995851636839e-05
field min 0.00039359999999999997
field max 0.00061664
field sum 0.016360639999999985
field sqrsum 6.577083289599994e-06
bin	-inf	0
bin	0.00033500000000000007	0
bin	0.00034000000000000008	0
bin	0.00034500000000000009	0
bin	0.00035000000000000005	0
bin	0.00035500000000000006	0
bin	0.00036000000000000008	0
bin	0.00036500000000000009	0
bin	0.0003700000000000001	0
bin	0.00037500000000000006	0
bin	0.00038000000000000008	0
bin	0.00038500000000000009	0
bin	0.0003900000000000001	40
bin	0.00039500000000000006	0
bin	0.00040000000000000007	0
bin	0.00040500000000000009	0
bin	0.0004100000000000001	0
bin	0.00041500000000000011	0
bin	0.00042000000000000007	0
bin	0.00042500000000000008	0
bin	0.0004300000000000001	0
bin	0.00043500000000000006	0
bin	0.00044000000000000007	0
bin	0.00044500000000000008	0
bin	0.0004500000000000001	0
bin	0.00045500000000000011	0
bin	0.00046000000000000012	0
bin	0.00046500000000000014	0
bin	0.00047000000000000009	0
bin	0.00047500000000000011	0
bin	0.00048000000000000007	0
bin	0.00048500000000000008	0
bin	0.00049000000000000009	0
bin	0.00049500000000000011	0
bin	0.00050000000000000012	0
bin	0.00050500000000000013	0
bin	0.00051000000000000015	0
bin	0.00051500000000000005	0
bin	0.00052000000000000006	0
bin	0.00052500000000000008	0
bin	0.00053000000000000009	0
bin	0.0005350000000000001	0
bin	0.00054000000000000012	0
bin	0.00054500000000000013	0
bin	0.00055000000000000014	0
bin	0.00055500000000000015	0
bin	0.00056000000000000017	0
bin	0.00056500000000000018	0
bin	0.00057000000000000009	0
bin	0.0005750000000000001	0
bin	0.00058000000000000011	0
bin	0.00058500000000000012	0
bin	0.00059000000000000014	0
bin	0.00059500000000000015	0
bin	0.00060000000000000006	0
bin	0.00060500000000000007	0
bin	0.00061000000000000008	0
bin	0.0006150000000000001	1
bin	0.00062000000000000011	0
bin	0.00062500000000000012	0
bin	0.00063000000000000013	0
bin	0.00063500000000000015	0
bin	0.00064000000000000016	0
bin	0.00064500000000000017	0
bin	0.00065000000000000019	0
bin	0.0006550000000000002	0
bin	0.00066000000000000021	0
bin	0.00066500000000000023	0
bin	0.00067000000000000013	0
bin	0.00067500000000000014	0
statistic BgpNetwork.HB22.app[0] endToEndDelay:histogram
field count 0
field mean -nan
field stddev nan
field min nan
field max nan
field sum 0
field sqrsum 0
bin	-inf	0
bin	0	0
bin	1	0
statistic BgpNetwork.HC12.app[0] endToEndDelay:histogram
field count 0
field mean -nan
field stddev nan
field min nan
field max nan
field sum 0
field sqrsum 0
bin	-inf	0
bin	0	0
bin	1	0
statistic BgpNetwork.HC22.app[0] endToEndDelay:histogram
field count 41
field mean 0.00040052097560975576
field stddev 4.4315866673512204e-05
field min 0.00039359999999999997
field max 0.00067736000000000001
field sum 0.016421359999999986
field sqrsum 6.6556549695999933e-06
bin	-inf	0
bin	0.00032000000000000008	0
bin	0.00032500000000000009	0
bin	0.00033000000000000011	0
bin	0.00033500000000000007	0
bin	0.00034000000000000008	0
bin	0.00034500000000000009	0
bin	0.0003500000000000001	0
bin	0.00035500000000000006	0
bin	0.00036000000000000008	0
bin	0.00036500000000000009	0
bin	0.0003700000000000001	0
bin	0.00037500000000000012	0
bin	0.00038000000000000008	0
bin	0.00038500000000000009	0
bin	0.0003900000000000001	40
bin	0.00039500000000000011	0
bin	0.00040000000000000007	0
bin	0.00040500000000000009	0
bin	0.0004100000000000001	0
bin	0.00041500000000000011	0
bin	0.00042000000000000013	0
bin	0.00042500000000000014	0
bin	0.0004300000000000001	0
bin	0.00043500000000000011	0
bin	0.00044000000000000012	0
bin	0.00044500000000000008	0
bin	0.0004500000000000001	0
bin	0.00045500000000000011	0
bin	0.00046000000000000012	0
bin	0.00046500000000000014	0
bin	0.00047000000000000015	0
bin	0.00047500000000000011	0
bin	0.00048000000000000012	0
bin	0.00048500000000000013	0
bin	0.00049000000000000009	0
bin	0.00049500000000000011	0
bin	0.00050000000000000012	0
bin	0.00050500000000000013	0
bin	0.00051000000000000015	0
bin	0.00051500000000000016	0
bin	0.00052000000000000006	0
bin	0.00052500000000000008	0
bin	0.00053000000000000009	0
bin	0.0005350000000000001	0
bin	0.00054000000000000012	0
bin	0.00054500000000000013	0
bin	0.00055000000000000014	0
bin	0.00055500000000000015	0
bin	0.00056000000000000017	0
bin	0.00056500000000000018	0
bin	0.00057000000000000019	0
bin	0.00057500000000000021	0
bin	0.00058000000000000022	0
bin	0.00058500000000000012	0
bin	0.00059000000000000014	0
bin	0.00059500000000000015	0
bin	0.00060000000000000016	0
bin	0.00060500000000000018	0
bin	0.00061000000000000008	0
bin	0.0006150000000000001	0
bin	0.00062000000000000011	0
bin	0.00062500000000000012	0
bin	0.00063000000000000013	0
bin	0.00063500000000000015	0
bin	0.00064000000000000016	0
bin	0.00064500000000000017	0
bin	0.00065000000000000019	0
bin	0.0006550000000000002	0
bin	0.00066000000000000021	0
bin	0.00066500000000000023	0
bin	0.00067000000000000024	0
bin	0.00067500000000000014	1
bin	0.00068000000000000016	0
bin	0.00068500000000000017	0
bin	0.00069000000000000018	0
bin	0.0006950000000000002	0
bin	0.0007000000000000001	0
bin	0.00070500000000000011	0
bin	0.00071000000000000013	0
bin	0.00071500000000000014	0
bin	0.00072000000000000015	0
bin	0.00072500000000000017	0
bin	0.00073000000000000018	0
bin	0.00073500000000000019	0
bin	0.00074000000000000021	0
bin	0.00074500000000000022	0
bin	0.00075000000000000023	0
scalar BgpNetwork.A.lo[0].lo rcvdPkFromHl:vector(packetBytes):count 0
scalar BgpNetwork.A.lo[0].lo rcvdPkFromHl:vector(packetBytes):sum 0
scalar BgpNetwork.A.lo[0].lo rcvdPkFromHl:vector(packetBytes):sumweights 0
scalar BgpNetwork.A.lo[0].lo rcvdPkFromHl:vector(packetBytes):mean -nan
scalar BgpNetwork.A.lo[0].lo rcvdPkFromHl:vector(packetBytes):stddev nan
scalar BgpNetwork.A.lo[0].lo rcvdPkFromHl:vector(packetBytes):min inf
scalar BgpNetwork.A.lo[0].lo rcvdPkFromHl:vector(packetBytes):max -inf
scalar BgpNetwork.A.lo[0].lo rcvdPkFromHl:vector(packetBytes):starttime nan
scalar BgpNetwork.A.lo[0].lo rcvdPkFromHl:vector(packetBytes):endtime nan
scalar BgpNetwork.A.lo[0].lo passedUpPk:vector(packetBytes):count 0
scalar BgpNetwork.A.lo[0].lo passedUpPk:vector(packetBytes):sum 0
scalar BgpNetwork.A.lo[0].lo passedUpPk:vector(packetBytes):sumweights 0
scalar BgpNetwork.A.lo[0].lo passedUpPk:vector(packetBytes):mean -nan
scalar BgpNetwork.A.lo[0].lo passedUpPk:vector(packetBytes):stddev nan
scalar BgpNetwork.A.lo[0].lo passedUpPk:vector(packetBytes):min inf
scalar BgpNetwork.A.lo[0].lo passedUpPk:vector(packetBytes):max -inf
scalar BgpNetwork.A.lo[0].lo passedUpPk:vector(packetBytes):starttime nan
scalar BgpNetwork.A.lo[0].lo passedUpPk:vector(packetBytes):endtime nan
scalar BgpNetwork.A.lo[0] packetDropInterfaceDown:vector(packetBytes):count 0
scalar BgpNetwork.A.lo[0] packetDropInterfaceDown:vector(packetBytes):sum 0
scalar BgpNetwork.A.lo[0] packetDropInterfaceDown:vector(packetBytes):sumweights 0
scalar BgpNetwork.A.lo[0] packetDropInterfaceDown:vector(packetBytes):mean -nan
scalar BgpNetwork.A.lo[0] packetDropInterfaceDown:vector(packetBytes):stddev nan
scalar BgpNetwork.A.lo[0] packetDropInterfaceDown:vector(packetBytes):min inf
scalar BgpNetwork.A.lo[0] packetDropInterfaceDown:vector(packetBytes):max -inf
scalar BgpNetwork.A.lo[0] packetDropInterfaceDown:vector(packetBytes):starttime nan
scalar BgpNetwork.A.lo[0] packetDropInterfaceDown:vector(packetBytes):endtime nan
scalar BgpNetwork.A.lo[0] packetDropNoCarrier:vector(packetBytes):count 0
scalar BgpNetwork.A.lo[0] packetDropNoCarrier:vector(packetBytes):sum 0
scalar BgpNetwork.A.lo[0] packetDropNoCarrier:vector(packetBytes):sumweights 0
scalar BgpNetwork.A.lo[0] packetDropNoCarrier:vector(packetBytes):mean -nan
scalar BgpNetwork.A.lo[0] packetDropNoCarrier:vector(packetBytes):stddev nan
scalar BgpNetwork.A.lo[0] packetDropNoCarrier:vector(packetBytes):min inf
scalar BgpNetwork.A.lo[0] packetDropNoCarrier:vector(packetBytes):max -inf
scalar BgpNetwork.A.lo[0] packetDropNoCarrier:vector(packetBytes):starttime nan
scalar BgpNetwork.A.lo[0] packetDropNoCarrier:vector(packetBytes):endtime nan
scalar BgpNetwork.A.ppp[0].queue queueLength:vector:count 0
scalar BgpNetwork.A.ppp[0].queue queueLength:vector:sum 0
scalar BgpNetwork.A.ppp[0].queue queueLength:vector:sumweights 0
scalar BgpNetwork.A.ppp[0].queue queueLength:vector:mean -nan
scalar BgpNetwork.A.ppp[0].queue queueLength:vector:stddev nan
scalar BgpNetwork.A.ppp[0].queue queueLength:vector:min inf
scalar BgpNetwork.A.ppp[0].queue queueLength:vector:max -inf
scalar BgpNetwork.A.ppp[0].queue queueLength:vector:starttime nan
scalar BgpNetwork.A.ppp[0].queue queueLength:vector:endtime nan
scalar BgpNetwork.A.ppp[0].queue queueBitLength:vector:count 0
scalar BgpNetwork.A.ppp[0].queue queueBitLength:vector:sum 0
scalar BgpNetwork.A.ppp[0].queue queueBitLength:vector:sumweights 0
scalar BgpNetwork.A.ppp[0].queue queueBitLength:vector:mean -nan
scalar BgpNetwork.A.ppp[0].queue queueBitLength:vector:stddev nan
scalar BgpNetwork.A.ppp[0].queue queueBitLength:vector:min inf
scalar BgpNetwork.A.ppp[0].queue queueBitLength:vector:max -inf
scalar BgpNetwork.A.ppp[0].queue queueBitLength:vector:starttime nan
scalar BgpNetwork.A.ppp[0].queue queueBitLength:vector:endtime nan
scalar BgpNetwork.A.ppp[0].queue queueingTime:vector:count 0
scalar BgpNetwork.A.ppp[0].queue queueingTime:vector:sum 0
scalar BgpNetwork.A.ppp[0].queue queueingTime:vector:sumweights 0
scalar BgpNetwork.A.ppp[0].queue queueingTime:vector:mean -nan
scalar BgpNetwork.A.ppp[0].queue queueingTime:vector:stddev nan
scalar BgpNetwork.A.ppp[0].queue queueingTime:vector:min inf
scalar BgpNetwork.A.ppp[0].queue queueingTime:vector:max -inf
scalar BgpNetwork.A.ppp[0].queue queueingTime:vector:starttime nan
scalar BgpNetwork.A.ppp[0].queue queueingTime:vector:endtime nan
scalar BgpNetwork.A.ppp[0].queue incomingPacketLengths:vector:count 0
scalar BgpNetwork.A.ppp[0].queue incomingPacketLengths:vector:sum 0
scalar BgpNetwork.A.ppp[0].queue incomingPacketLengths:vector:sumweights 0
scalar BgpNetwork.A.ppp[0].queue incomingPacketLengths:vector:mean -nan
scalar BgpNetwork.A.ppp[0].queue incomingPacketLengths:vector:stddev nan
scalar BgpNetwork.A.ppp[0].queue incomingPacketLengths:vector:min inf
scalar BgpNetwork.A.ppp[0].queue incomingPacketLengths:vector:max -inf
scalar BgpNetwork.A.ppp[0].queue incomingPacketLengths:vector:starttime nan
scalar BgpNetwork.A.ppp[0].queue incomingPacketLengths:vector:endtime nan
scalar BgpNetwork.A.ppp[0].queue incomingDataRate:vector:count 0
scalar BgpNetwork.A.ppp[0].queue incomingDataRate:vector:sum 0
scalar BgpNetwork.A.ppp[0].queue incomingDataRate:vector:sumweights 0
scalar BgpNetwork.A.ppp[0].queue incomingDataRate:vector:mean -nan
scalar BgpNetwork.A.ppp[0].queue incomingDataRate:vector:stddev nan
scalar BgpNetwork.A.ppp[0].queue incomingDataRate:vector:min inf
scalar BgpNetwork.A.ppp[0].queue incomingDataRate:vector:max -inf
scalar BgpNetwork.A.ppp[0].queue incomingDataRate:vector:starttime nan
scalar BgpNetwork.A.ppp[0].queue incomingDataRate:vector:endtime nan
scalar BgpNetwork.A.ppp[0].queue outgoingPacketLengths:vector:count 0
scalar BgpNetwork.A.ppp[0].queue outgoingPacketLengths:vector:sum 0
scalar BgpNetwork.A.ppp[0].queue outgoingPacketLengths:vector:sumweights 0
scalar BgpNetwork.A.ppp[0].queue outgoingPacketLengths:vector:mean -nan
scalar BgpNetwork.A.ppp[0].queue outgoingPacketLengths:vector:stddev nan
scalar BgpNetwork.A.ppp[0].queue outgoingPacketLengths:vector:min inf
scalar BgpNetwork.A.ppp[0].queue outgoingPacketLengths:vector:max -inf
scalar BgpNetwork.A.ppp[0].queue outgoingPacketLengths:vector:starttime nan
scalar BgpNetwork.A.ppp[0].queue outgoingPacketLengths:vector:endtime nan
scalar BgpNetwork.A.ppp[0].queue outgoingDataRate:vector:count 0
scalar BgpNetwork.A.ppp[0].queue outgoingDataRate:vector:sum 0
scalar BgpNetwork.A.ppp[0].queue outgoingDataRate:vector:sumweights 0
scalar BgpNetwork.A.ppp[0].queue outgoingDataRate:vector:mean -nan
scalar BgpNetwork.A.ppp[0].queue outgoingDataRate:vector:stddev nan
scalar BgpNetwork.A.ppp[0].queue outgoingDataRate:vector:min inf
scalar BgpNetwork.A.ppp[0].queue outgoingDataRate:vector:max -inf
scalar BgpNetwork.A.ppp[0].queue outgoingDataRate:vector:starttime nan
scalar BgpNetwork.A.ppp[0].queue outgoingDataRate:vector:endtime nan
scalar BgpNetwork.A.ppp[0].queue droppedPacketLengthsQueueOverflow:vector:count 0
scalar BgpNetwork.A.ppp[0].queue droppedPacketLengthsQueueOverflow:vector:sum 0
scalar BgpNetwork.A.ppp[0].queue droppedPacketLengthsQueueOverflow:vector:sumweights 0
scalar BgpNetwork.A.ppp[0].queue droppedPacketLengthsQueueOverflow:vector:mean -nan
scalar BgpNetwork.A.ppp[0].queue droppedPacketLengthsQueueOverflow:vector:stddev nan
scalar BgpNetwork.A.ppp[0].queue droppedPacketLengthsQueueOverflow:vector:min inf
scalar BgpNetwork.A.ppp[0].queue droppedPacketLengthsQueueOverflow:vector:max -inf
scalar BgpNetwork.A.ppp[0].queue droppedPacketLengthsQueueOverflow:vector:starttime nan
scalar BgpNetwork.A.ppp[0].queue droppedPacketLengthsQueueOverflow:vector:endtime nan
scalar BgpNetwork.A.ppp[0].queue flowQueueingTime:vector:count 0
scalar BgpNetwork.A.ppp[0].queue flowQueueingTime:vector:sum 0
scalar BgpNetwork.A.ppp[0].queue flowQueueingTime:vector:sumweights 0
scalar BgpNetwork.A.ppp[0].queue flowQueueingTime:vector:mean -nan
scalar BgpNetwork.A.ppp[0].queue flowQueueingTime:vector:stddev nan
scalar BgpNetwork.A.ppp[0].queue flowQueueingTime:vector:min inf
scalar BgpNetwork.A.ppp[0].queue flowQueueingTime:vector:max -inf
scalar BgpNetwork.A.ppp[0].queue flowQueueingTime:vector:starttime nan
scalar BgpNetwork.A.ppp[0].queue flowQueueingTime:vector:endtime nan
scalar BgpNetwork.A.ppp[0].queue flowIncomingDataRate:vector:count 0
scalar BgpNetwork.A.ppp[0].queue flowIncomingDataRate:vector:sum 0
scalar BgpNetwork.A.ppp[0].queue flowIncomingDataRate:vector:sumweights 0
scalar BgpNetwork.A.ppp[0].queue flowIncomingDataRate:vector:mean -nan
scalar BgpNetwork.A.ppp[0].queue flowIncomingDataRate:vector:stddev nan
scalar BgpNetwork.A.ppp[0].queue flowIncomingDataRate:vector:min inf
scalar BgpNetwork.A.ppp[0].queue flowIncomingDataRate:vector:max -inf
scalar BgpNetwork.A.ppp[0].queue flowIncomingDataRate:vector:starttime nan
scalar BgpNetwork.A.ppp[0].queue flowIncomingDataRate:vector:endtime nan
scalar BgpNetwork.A.ppp[0].queue flowOutgoingDataRate:vector:count 0
scalar BgpNetwork.A.ppp[0].queue flowOutgoingDataRate:vector:sum 0
scalar BgpNetwork.A.ppp[0].queue flowOutgoingDataRate:vector:sumweights 0
scalar BgpNetwork.A.ppp[0].queue flowOutgoingDataRate:vector:mean -nan
scalar BgpNetwork.A.ppp[0].queue flowOutgoingDataRate:vector:stddev nan
scalar BgpNetwork.A.ppp[0].queue flowOutgoingDataRate:vector:min inf
scalar BgpNetwork.A.ppp[0].queue flowOutgoingDataRate:vector:max -inf
scalar BgpNetwork.A.ppp[0].queue flowOutgoingDataRate:vector:starttime nan
scalar BgpNetwork.A.ppp[0].queue flowOutgoingDataRate:vector:endtime nan
scalar BgpNetwork.A.ppp[0].ppp transmissionState:vector:count 0
scalar BgpNetwork.A.ppp[0].ppp transmissionState:vector:sum 0
scalar BgpNetwork.A.ppp[0].ppp transmissionState:vector:sumweights 0
scalar BgpNetwork.A.ppp[0].ppp transmissionState:vector:mean -nan
scalar BgpNetwork.A.ppp[0].ppp transmissionState:vector:stddev nan
scalar BgpNetwork.A.ppp[0].ppp transmissionState:vector:min inf
scalar BgpNetwork.A.ppp[0].ppp transmissionState:vector:max -inf
scalar BgpNetwork.A.ppp[0].ppp transmissionState:vector:starttime nan
scalar BgpNetwork.A.ppp[0].ppp transmissionState:vector:endtime nan
scalar BgpNetwork.A.ppp[0].ppp txPk:vector(packetBytes):count 0
scalar BgpNetwork.A.ppp[0].ppp txPk:vector(packetBytes):sum 0
scalar BgpNetwork.A.ppp[0].ppp txPk:vector(packetBytes):sumweights 0
scalar BgpNetwork.A.ppp[0].ppp txPk:vector(packetBytes):mean -nan
scalar BgpNetwork.A.ppp[0].ppp txPk:vector(packetBytes):stddev nan
scalar BgpNetwork.A.ppp[0].ppp txPk:vector(packetBytes):min inf
scalar BgpNetwork.A.ppp[0].ppp txPk:vector(packetBytes):max -inf
scalar BgpNetwork.A.ppp[0].ppp txPk:vector(packetBytes):starttime nan
scalar BgpNetwork.A.ppp[0].ppp txPk:vector(packetBytes):endtime nan
scalar BgpNetwork.A.ppp[0].ppp rxPkOk:vector(packetBytes):count 0
scalar BgpNetwork.A.ppp[0].ppp rxPkOk:vector(packetBytes):sum 0
scalar BgpNetwork.A.ppp[0].ppp rxPkOk:vector(packetBytes):sumweights 0
scalar BgpNetwork.A.ppp[0].ppp rxPkOk:vector(packetBytes):mean -nan
scalar BgpNetwork.A.ppp[0].ppp rxPkOk:vector(packetBytes):stddev nan
scalar BgpNetwork.A.ppp[0].ppp rxPkOk:vector(packetBytes):min inf
scalar BgpNetwork.A.ppp[0].ppp rxPkOk:vector(packetBytes):max -inf
scalar BgpNetwork.A.ppp[0].ppp rxPkOk:vector(packetBytes):starttime nan
scalar BgpNetwork.A.ppp[0].ppp rxPkOk:vector(packetBytes):endtime nan
scalar BgpNetwork.A.ppp[0].ppp packetDropIncorrectlyReceived:vector(packetBytes):count 0
scalar BgpNetwork.A.ppp[0].ppp packetDropIncorrectlyReceived:vector(packetBytes):sum 0
scalar BgpNetwork.A.ppp[0].ppp packetDropIncorrectlyReceived:vector(packetBytes):sumweights 0
scalar BgpNetwork.A.ppp[0].ppp packetDropIncorrectlyReceived:vector(packetBytes):mean -nan
scalar BgpNetwork.A.ppp[0].ppp packetDropIncorrectlyReceived:vector(packetBytes):stddev nan
scalar BgpNetwork.A.ppp[0].ppp packetDropIncorrectlyReceived:vector(packetBytes):min inf
scalar BgpNetwork.A.ppp[0].ppp packetDropIncorrectlyReceived:vector(packetBytes):max -inf
scalar BgpNetwork.A.ppp[0].ppp packetDropIncorrectlyReceived:vector(packetBytes):starttime nan
scalar BgpNetwork.A.ppp[0].ppp packetDropIncorrectlyReceived:vector(packetBytes):endtime nan
scalar BgpNetwork.A.ppp[0].ppp packetDropInterfaceDown:vector(packetBytes):count 0
scalar BgpNetwork.A.ppp[0].ppp packetDropInterfaceDown:vector(packetBytes):sum 0
scalar BgpNetwork.A.ppp[0].ppp packetDropInterfaceDown:vector(packetBytes):sumweights 0
scalar BgpNetwork.A.ppp[0].ppp packetDropInterfaceDown:vector(packetBytes):mean -nan
scalar BgpNetwork.A.ppp[0].ppp packetDropInterfaceDown:vector(packetBytes):stddev nan
scalar BgpNetwork.A.ppp[0].ppp packetDropInterfaceDown:vector(packetBytes):min inf
scalar BgpNetwork.A.ppp[0].ppp packetDropInterfaceDown:vector(packetBytes):max -inf
scalar BgpNetwork.A.ppp[0].ppp packetDropInterfaceDown:vector(packetBytes):starttime nan
scalar BgpNetwork.A.ppp[0].ppp packetDropInterfaceDown:vector(packetBytes):endtime nan
scalar BgpNetwork.A.ppp[0].ppp rcvdPkFromHl:vector(packetBytes):count 0
scalar BgpNetwork.A.ppp[0].ppp rcvdPkFromHl:vector(packetBytes):sum 0
scalar BgpNetwork.A.ppp[0].ppp rcvdPkFromHl:vector(packetBytes):sumweights 0
scalar BgpNetwork.A.ppp[0].ppp rcvdPkFromHl:vector(packetBytes):mean -nan
scalar BgpNetwork.A.ppp[0].ppp rcvdPkFromHl:vector(packetBytes):stddev nan
scalar BgpNetwork.A.ppp[0].ppp rcvdPkFromHl:vector(packetBytes):min inf
scalar BgpNetwork.A.ppp[0].ppp rcvdPkFromHl:vector(packetBytes):max -inf
scalar BgpNetwork.A.ppp[0].ppp rcvdPkFromHl:vector(packetBytes):starttime nan
scalar BgpNetwork.A.ppp[0].ppp rcvdPkFromHl:vector(packetBytes):endtime nan
scalar BgpNetwork.A.ppp[0].ppp passedUpPk:vector(packetBytes):count 0
scalar BgpNetwork.A.ppp[0].ppp passedUpPk:vector(packetBytes):sum 0
scalar BgpNetwork.A.ppp[0].ppp passedUpPk:vector(packetBytes):sumweights 0
scalar BgpNetwork.A.ppp[0].ppp passedUpPk:vector(packetBytes):mean -nan
scalar BgpNetwork.A.ppp[0].ppp passedUpPk:vector(packetBytes):stddev nan
scalar BgpNetwork.A.ppp[0].ppp passedUpPk:vector(packetBytes):min inf
scalar BgpNetwork.A.ppp[0].ppp passedUpPk:vector(packetBytes):max -inf
scalar BgpNetwork.A.ppp[0].ppp passedUpPk:vector(packetBytes):starttime nan
scalar BgpNetwork.A.ppp[0].ppp passedUpPk:vector(packetBytes):endtime nan
scalar BgpNetwork.A.ppp[0] packetDropInterfaceDown:vector(packetBytes):count 0
scalar BgpNetwork.A.ppp[0] packetDropInterfaceDown:vector(packetBytes):sum 0
scalar BgpNetwork.A.ppp[0] packetDropInterfaceDown:vector(packetBytes):sumweights 0
scalar BgpNetwork.A.ppp[0] packetDropInterfaceDown:vector(packetBytes):mean -nan
scalar BgpNetwork.A.ppp[0] packetDropInterfaceDown:vector(packetBytes):stddev nan
scalar BgpNetwork.A.ppp[0] packetDropInterfaceDown:vector(packetBytes):min inf
scalar BgpNetwork.A.ppp[0] packetDropInterfaceDown:vector(packetBytes):max -inf
scalar BgpNetwork.A.ppp[0] packetDropInterfaceDown:vector(packetBytes):starttime nan
scalar BgpNetwork.A.ppp[0] packetDropInterfaceDown:vector(packetBytes):endtime nan
scalar BgpNetwork.A.ppp[0] packetDropNoCarrier:vector(packetBytes):count 0
scalar BgpNetwork.A.ppp[0] packetDropNoCarrier:vector(packetBytes):sum 0
scalar BgpNetwork.A.ppp[0] packetDropNoCarrier:vector(packetBytes):sumweights 0
scalar BgpNetwork.A.ppp[0] packetDropNoCarrier:vector(packetBytes):mean -nan
scalar BgpNetwork.A.ppp[0] packetDropNoCarrier:vector(packetBytes):stddev nan
scalar BgpNetwork.A.ppp[0] packetDropNoCarrier:vector(packetBytes):min inf
scalar BgpNetwork.A.ppp[0] packetDropNoCarrier:vector(packetBytes):max -inf
scalar BgpNetwork.A.ppp[0] packetDropNoCarrier:vector(packetBytes):starttime nan
scalar BgpNetwork.A.ppp[0] packetDropNoCarrier:vector(packetBytes):endtime nan
scalar BgpNetwork.A.ppp[1].queue queueLength:vector:count 0
scalar BgpNetwork.A.ppp[1].queue queueLength:vector:sum 0
scalar BgpNetwork.A.ppp[1].queue queueLength:vector:sumweights 0
scalar BgpNetwork.A.ppp[1].queue queueLength:vector:mean -nan
scalar BgpNetwork.A.ppp[1].queue queueLength:vector:stddev nan
scalar BgpNetwork.A.ppp[1].queue queueLength:vector:min inf
scalar BgpNetwork.A.ppp[1].queue queueLength:vector:max -inf
scalar BgpNetwork.A.ppp[1].queue queueLength:vector:starttime nan
scalar BgpNetwork.A.ppp[1].queue queueLength:vector:endtime nan
scalar BgpNetwork.A.ppp[1].queue queueBitLength:vector:count 0
scalar BgpNetwork.A.ppp[1].queue queueBitLength:vector:sum 0
scalar BgpNetwork.A.ppp[1].queue queueBitLength:vector:sumweights 0
scalar BgpNetwork.A.ppp[1].queue queueBitLength:vector:mean -nan
scalar BgpNetwork.A.ppp[1].queue queueBitLength:vector:stddev nan
scalar BgpNetwork.A.ppp[1].queue queueBitLength:vector:min inf
scalar BgpNetwork.A.ppp[1].queue queueBitLength:vector:max -inf
scalar BgpNetwork.A.ppp[1].queue queueBitLength:vector:starttime nan
scalar BgpNetwork.A.ppp[1].queue queueBitLength:vector:endtime nan
scalar BgpNetwork.A.ppp[1].queue queueingTime:vector:count 0
scalar BgpNetwork.A.ppp[1].queue queueingTime:vector:sum 0
scalar BgpNetwork.A.ppp[1].queue queueingTime:vector:sumweights 0
scalar BgpNetwork.A.ppp[1].queue queueingTime:vector:mean -nan
scalar BgpNetwork.A.ppp[1].queue queueingTime:vector:stddev nan
scalar BgpNetwork.A.ppp[1].queue queueingTime:vector:min inf
scalar BgpNetwork.A.ppp[1].queue queueingTime:vector:max -inf
scalar BgpNetwork.A.ppp[1].queue queueingTime:vector:starttime nan
scalar BgpNetwork.A.ppp[1].queue queueingTime:vector:endtime nan
scalar BgpNetwork.A.ppp[1].queue incomingPacketLengths:vector:count 0
scalar BgpNetwork.A.ppp[1].queue incomingPacketLengths:vector:sum 0
scalar BgpNetwork.A.ppp[1].queue incomingPacketLengths:vector:sumweights 0
scalar BgpNetwork.A.ppp[1].queue incomingPacketLengths:vector:mean -nan
scalar BgpNetwork.A.ppp[1].queue incomingPacketLengths:vector:stddev nan
scalar BgpNetwork.A.ppp[1].queue incomingPacketLengths:vector:min inf
scalar BgpNetwork.A.ppp[1].queue incomingPacketLengths:vector:max -inf
scalar BgpNetwork.A.ppp[1].queue incomingPacketLengths:vector:starttime nan
scalar BgpNetwork.A.ppp[1].queue incomingPacketLengths:vector:endtime nan
scalar BgpNetwork.A.ppp[1].queue incomingDataRate:vector:count 0
scalar BgpNetwork.A.ppp[1].queue incomingDataRate:vector:sum 0
scalar BgpNetwork.A.ppp[1].queue incomingDataRate:vector:sumweights 0
scalar BgpNetwork.A.ppp[1].queue incomingDataRate:vector:mean -nan
scalar BgpNetwork.A.ppp[1].queue incomingDataRate:vector:stddev nan
scalar BgpNetwork.A.ppp[1].queue incomingDataRate:vector:min inf
scalar BgpNetwork.A.ppp[1].queue incomingDataRate:vector:max -inf
scalar BgpNetwork.A.ppp[1].queue incomingDataRate:vector:starttime nan
scalar BgpNetwork.A.ppp[1].queue incomingDataRate:vector:endtime nan
scalar BgpNetwork.A.ppp[1].queue outgoingPacketLengths:vector:count 0
scalar BgpNetwork.A.ppp[1].queue outgoingPacketLengths:vector:sum 0
scalar BgpNetwork.A.ppp[1].queue outgoingPacketLengths:vector:sumweights 0
scalar BgpNetwork.A.ppp[1].queue outgoingPacketLengths:vector:mean -nan
scalar BgpNetwork.A.ppp[1].queue outgoingPacketLengths:vector:stddev nan
scalar BgpNetwork.A.ppp[1].queue outgoingPacketLengths:vector:min inf
scalar BgpNetwork.A.ppp[1].queue outgoingPacketLengths:vector:max -inf
scalar BgpNetwork.A.ppp[1].queue outgoingPacketLengths:vector:starttime nan
scalar BgpNetwork.A.ppp[1].queue outgoingPacketLengths:vector:endtime nan
scalar BgpNetwork.A.ppp[1].queue outgoingDataRate:vector:count 0
scalar BgpNetwork.A.ppp[1].queue outgoingDataRate:vector:sum 0
scalar BgpNetwork.A.ppp[1].queue outgoingDataRate:vector:sumweights 0
scalar BgpNetwork.A.ppp[1].queue outgoingDataRate:vector:mean -nan
scalar BgpNetwork.A.ppp[1].queue outgoingDataRate:vector:stddev nan
scalar BgpNetwork.A.ppp[1].queue outgoingDataRate:vector:min inf
scalar BgpNetwork.A.ppp[1].queue outgoingDataRate:vector:max -inf
scalar BgpNetwork.A.ppp[1].queue outgoingDataRate:vector:starttime nan
scalar BgpNetwork.A.ppp[1].queue outgoingDataRate:vector:endtime nan
scalar BgpNetwork.A.ppp[1].queue droppedPacketLengthsQueueOverflow:vector:count 0
scalar BgpNetwork.A.ppp[1].queue droppedPacketLengthsQueueOverflow:vector:sum 0
scalar BgpNetwork.A.ppp[1].queue droppedPacketLengthsQueueOverflow:vector:sumweights 0
scalar BgpNetwork.A.ppp[1].queue droppedPacketLengthsQueueOverflow:vector:mean -nan
scalar BgpNetwork.A.ppp[1].queue droppedPacketLengthsQueueOverflow:vector:stddev nan
scalar BgpNetwork.A.ppp[1].queue droppedPacketLengthsQueueOverflow:vector:min inf
scalar BgpNetwork.A.ppp[1].queue droppedPacketLengthsQueueOverflow:vector:max -inf
scalar BgpNetwork.A.ppp[1].queue droppedPacketLengthsQueueOverflow:vector:starttime nan
scalar BgpNetwork.A.ppp[1].queue droppedPacketLengthsQueueOverflow:vector:endtime nan
scalar BgpNetwork.A.ppp[1].queue flowQueueingTime:vector:count 0
scalar BgpNetwork.A.ppp[1].queue flowQueueingTime:vector:sum 0
scalar BgpNetwork.A.ppp[1].queue flowQueueingTime:vector:sumweights 0
scalar BgpNetwork.A.ppp[1].queue flowQueueingTime:vector:mean -nan
scalar BgpNetwork.A.ppp[1].queue flowQueueingTime:vector:stddev nan
scalar BgpNetwork.A.ppp[1].queue flowQueueingTime:vector:min inf
scalar BgpNetwork.A.ppp[1].queue flowQueueingTime:vector:max -inf
scalar BgpNetwork.A.ppp[1].queue flowQueueingTime:vector:starttime nan
scalar BgpNetwork.A.ppp[1].queue flowQueueingTime:vector:endtime nan
scalar BgpNetwork.A.ppp[1].queue flowIncomingDataRate:vector:count 0
scalar BgpNetwork.A.ppp[1].queue flowIncomingDataRate:vector:sum 0
scalar BgpNetwork.A.ppp[1].queue flowIncomingDataRate:vector:sumweights 0
scalar BgpNetwork.A.ppp[1].queue flowIncomingDataRate:vector:mean -nan
scalar BgpNetwork.A.ppp[1].queue flowIncomingDataRate:vector:stddev nan
scalar BgpNetwork.A.ppp[1].queue flowIncomingDataRate:vector:min inf
scalar BgpNetwork.A.ppp[1].queue flowIncomingDataRate:vector:max -inf
scalar BgpNetwork.A.ppp[1].queue flowIncomingDataRate:vector:starttime nan
scalar BgpNetwork.A.ppp[1].queue flowIncomingDataRate:vector:endtime nan
scalar BgpNetwork.A.ppp[1].queue flowOutgoingDataRate:vector:count 0
scalar BgpNetwork.A.ppp[1].queue flowOutgoingDataRate:vector:sum 0
scalar BgpNetwork.A.ppp[1].queue flowOutgoingDataRate:vector:sumweights 0
scalar BgpNetwork.A.ppp[1].queue flowOutgoingDataRate:vector:mean -nan
scalar BgpNetwork.A.ppp[1].queue flowOutgoingDataRate:vector:stddev nan
scalar BgpNetwork.A.ppp[1].queue flowOutgoingDataRate:vector:min inf
scalar BgpNetwork.A.ppp[1].queue flowOutgoingDataRate:vector:max -inf
scalar BgpNetwork.A.ppp[1].queue flowOutgoingDataRate:vector:starttime nan
scalar BgpNetwork.A.ppp[1].queue flowOutgoingDataRate:vector:endtime nan
scalar BgpNetwork.A.ppp[1].ppp transmissionState:vector:count 0
scalar BgpNetwork.A.ppp[1].ppp transmissionState:vector:sum 0
scalar BgpNetwork.A.ppp[1].ppp transmissionState:vector:sumweights 0
scalar BgpNetwork.A.ppp[1].ppp transmissionState:vector:mean -nan
scalar BgpNetwork.A.ppp[1].ppp transmissionState:vector:stddev nan
scalar BgpNetwork.A.ppp[1].ppp transmissionState:vector:min inf
scalar BgpNetwork.A.ppp[1].ppp transmissionState:vector:max -inf
scalar BgpNetwork.A.ppp[1].ppp transmissionState:vector:starttime nan
scalar BgpNetwork.A.ppp[1].ppp transmissionState:vector:endtime nan
scalar BgpNetwork.A.ppp[1].ppp txPk:vector(packetBytes):count 0
scalar BgpNetwork.A.ppp[1].ppp txPk:vector(packetBytes):sum 0
scalar BgpNetwork.A.ppp[1].ppp txPk:vector(packetBytes):sumweights 0
scalar BgpNetwork.A.ppp[1].ppp txPk:vector(packetBytes):mean -nan
scalar BgpNetwork.A.ppp[1].ppp txPk:vector(packetBytes):stddev nan
scalar BgpNetwork.A.ppp[1].ppp txPk:vector(packetBytes):min inf
scalar BgpNetwork.A.ppp[1].ppp txPk:vector(packetBytes):max -inf
scalar BgpNetwork.A.ppp[1].ppp txPk:vector(packetBytes):starttime nan
scalar BgpNetwork.A.ppp[1].ppp txPk:vector(packetBytes):endtime nan
scalar BgpNetwork.A.ppp[1].ppp rxPkOk:vector(packetBytes):count 0
scalar BgpNetwork.A.ppp[1].ppp rxPkOk:vector(packetBytes):sum 0
scalar BgpNetwork.A.ppp[1].ppp rxPkOk:vector(packetBytes):sumweights 0
scalar BgpNetwork.A.ppp[1].ppp rxPkOk:vector(packetBytes):mean -nan
scalar BgpNetwork.A.ppp[1].ppp rxPkOk:vector(packetBytes):stddev nan
scalar BgpNetwork.A.ppp[1].ppp rxPkOk:vector(packetBytes):min inf
scalar BgpNetwork.A.ppp[1].ppp rxPkOk:vector(packetBytes):max -inf
scalar BgpNetwork.A.ppp[1].ppp rxPkOk:vector(packetBytes):starttime nan
scalar BgpNetwork.A.ppp[1].ppp rxPkOk:vector(packetBytes):endtime nan
scalar BgpNetwork.A.ppp[1].ppp packetDropIncorrectlyReceived:vector(packetBytes):count 0
scalar BgpNetwork.A.ppp[1].ppp packetDropIncorrectlyReceived:vector(packetBytes):sum 0
scalar BgpNetwork.A.ppp[1].ppp packetDropIncorrectlyReceived:vector(packetBytes):sumweights 0
scalar BgpNetwork.A.ppp[1].ppp packetDropIncorrectlyReceived:vector(packetBytes):mean -nan
scalar BgpNetwork.A.ppp[1].ppp packetDropIncorrectlyReceived:vector(packetBytes):stddev nan
scalar BgpNetwork.A.ppp[1].ppp packetDropIncorrectlyReceived:vector(packetBytes):min inf
scalar BgpNetwork.A.ppp[1].ppp packetDropIncorrectlyReceived:vector(packetBytes):max -inf
scalar BgpNetwork.A.ppp[1].ppp packetDropIncorrectlyReceived:vector(packetBytes):starttime nan
scalar BgpNetwork.A.ppp[1].ppp packetDropIncorrectlyReceived:vector(packetBytes):endtime nan
scalar BgpNetwork.A.ppp[1].ppp packetDropInterfaceDown:vector(packetBytes):count 0
scalar BgpNetwork.A.ppp[1].ppp packetDropInterfaceDown:vector(packetBytes):sum 0
scalar BgpNetwork.A.ppp[1].ppp packetDropInterfaceDown:vector(packetBytes):sumweights 0
scalar BgpNetwork.A.ppp[1].ppp packetDropInterfaceDown:vector(packetBytes):mean -nan
scalar BgpNetwork.A.ppp[1].ppp packetDropInterfaceDown:vector(packetBytes):stddev nan
scalar BgpNetwork.A.ppp[1].ppp packetDropInterfaceDown:vector(packetBytes):min inf
scalar BgpNetwork.A.ppp[1].ppp packetDropInterfaceDown:vector(packetBytes):max -inf
scalar BgpNetwork.A.ppp[1].ppp packetDropInterfaceDown:vector(packetBytes):starttime nan
scalar BgpNetwork.A.ppp[1].ppp packetDropInterfaceDown:vector(packetBytes):endtime nan
scalar BgpNetwork.A.ppp[1].ppp rcvdPkFromHl:vector(packetBytes):count 0
scalar BgpNetwork.A.ppp[1].ppp rcvdPkFromHl:vector(packetBytes):sum 0
scalar BgpNetwork.A.ppp[1].ppp rcvdPkFromHl:vector(packetBytes):sumweights 0
scalar BgpNetwork.A.ppp[1].ppp rcvdPkFromHl:vector(packetBytes):mean -nan
scalar BgpNetwork.A.ppp[1].ppp rcvdPkFromHl:vector(packetBytes):stddev nan
scalar BgpNetwork.A.ppp[1].ppp rcvdPkFromHl:vector(packetBytes):min inf
scalar BgpNetwork.A.ppp[1].ppp rcvdPkFromHl:vector(packetBytes):max -inf
scalar BgpNetwork.A.ppp[1].ppp rcvdPkFromHl:vector(packetBytes):starttime nan
scalar BgpNetwork.A.ppp[1].ppp rcvdPkFromHl:vector(packetBytes):endtime nan
scalar BgpNetwork.A.ppp[1].ppp passedUpPk:vector(packetBytes):count 0
scalar BgpNetwork.A.ppp[1].ppp passedUpPk:vector(packetBytes):sum 0
scalar BgpNetwork.A.ppp[1].ppp passedUpPk:vector(packetBytes):sumweights 0
scalar BgpNetwork.A.ppp[1].ppp passedUpPk:vector(packetBytes):mean -nan
scalar BgpNetwork.A.ppp[1].ppp passedUpPk:vector(packetBytes):stddev nan
scalar BgpNetwork.A.ppp[1].ppp passedUpPk:vector(packetBytes):min inf
scalar BgpNetwork.A.ppp[1].ppp passedUpPk:vector(packetBytes):max -inf
scalar BgpNetwork.A.ppp[1].ppp passedUpPk:vector(packetBytes):starttime nan
scalar BgpNetwork.A.ppp[1].ppp passedUpPk:vector(packetBytes):endtime nan
scalar BgpNetwork.A.ppp[1] packetDropInterfaceDown:vector(packetBytes):count 0
scalar BgpNetwork.A.ppp[1] packetDropInterfaceDown:vector(packetBytes):sum 0
scalar BgpNetwork.A.ppp[1] packetDropInterfaceDown:vector(packetBytes):sumweights 0
scalar BgpNetwork.A.ppp[1] packetDropInterfaceDown:vector(packetBytes):mean -nan
scalar BgpNetwork.A.ppp[1] packetDropInterfaceDown:vector(packetBytes):stddev nan
scalar BgpNetwork.A.ppp[1] packetDropInterfaceDown:vector(packetBytes):min inf
scalar BgpNetwork.A.ppp[1] packetDropInterfaceDown:vector(packetBytes):max -inf
scalar BgpNetwork.A.ppp[1] packetDropInterfaceDown:vector(packetBytes):starttime nan
scalar BgpNetwork.A.ppp[1] packetDropInterfaceDown:vector(packetBytes):endtime nan
scalar BgpNetwork.A.ppp[1] packetDropNoCarrier:vector(packetBytes):count 0
scalar BgpNetwork.A.ppp[1] packetDropNoCarrier:vector(packetBytes):sum 0
scalar BgpNetwork.A.ppp[1] packetDropNoCarrier:vector(packetBytes):sumweights 0
scalar BgpNetwork.A.ppp[1] packetDropNoCarrier:vector(packetBytes):mean -nan
scalar BgpNetwork.A.ppp[1] packetDropNoCarrier:vector(packetBytes):stddev nan
scalar BgpNetwork.A.ppp[1] packetDropNoCarrier:vector(packetBytes):min inf
scalar BgpNetwork.A.ppp[1] packetDropNoCarrier:vector(packetBytes):max -inf
scalar BgpNetwork.A.ppp[1] packetDropNoCarrier:vector(packetBytes):starttime nan
scalar BgpNetwork.A.ppp[1] packetDropNoCarrier:vector(packetBytes):endtime nan
scalar BgpNetwork.A.ppp[2].queue queueLength:vector:count 0
scalar BgpNetwork.A.ppp[2].queue queueLength:vector:sum 0
scalar BgpNetwork.A.ppp[2].queue queueLength:vector:sumweights 0
scalar BgpNetwork.A.ppp[2].queue queueLength:vector:mean -nan
scalar BgpNetwork.A.ppp[2].queue queueLength:vector:stddev nan
scalar BgpNetwork.A.ppp[2].queue queueLength:vector:min inf
scalar BgpNetwork.A.ppp[2].queue queueLength:vector:max -inf
scalar BgpNetwork.A.ppp[2].queue queueLength:vector:starttime nan
scalar BgpNetwork.A.ppp[2].queue queueLength:vector:endtime nan
scalar BgpNetwork.A.ppp[2].queue queueBitLength:vector:count 0
scalar BgpNetwork.A.ppp[2].queue queueBitLength:vector:sum 0
scalar BgpNetwork.A.ppp[2].queue queueBitLength:vector:sumweights 0
scalar BgpNetwork.A.ppp[2].queue queueBitLength:vector:mean -nan
scalar BgpNetwork.A.ppp[2].queue queueBitLength:vector:stddev nan
scalar BgpNetwork.A.ppp[2].queue queueBitLength:vector:min inf
scalar BgpNetwork.A.ppp[2].queue queueBitLength:vector:max -inf
scalar BgpNetwork.A.ppp[2].queue queueBitLength:vector:starttime nan
scalar BgpNetwork.A.ppp[2].queue queueBitLength:vector:endtime nan
scalar BgpNetwork.A.ppp[2].queue queueingTime:vector:count 0
scalar BgpNetwork.A.ppp[2].queue queueingTime:vector:sum 0
scalar BgpNetwork.A.ppp[2].queue queueingTime:vector:sumweights 0
scalar BgpNetwork.A.ppp[2].queue queueingTime:vector:mean -nan
scalar BgpNetwork.A.ppp[2].queue queueingTime:vector:stddev nan
scalar BgpNetwork.A.ppp[2].queue queueingTime:vector:min inf
scalar BgpNetwork.A.ppp[2].queue queueingTime:vector:max -inf
scalar BgpNetwork.A.ppp[2].queue queueingTime:vector:starttime nan
scalar BgpNetwork.A.ppp[2].queue queueingTime:vector:endtime nan
scalar BgpNetwork.A.ppp[2].queue incomingPacketLengths:vector:count 0
scalar BgpNetwork.A.ppp[2].queue incomingPacketLengths:vector:sum 0
scalar BgpNetwork.A.ppp[2].queue incomingPacketLengths:vector:sumweights 0
scalar BgpNetwork.A.ppp[2].queue incomingPacketLengths:vector:mean -nan
scalar BgpNetwork.A.ppp[2].queue incomingPacketLengths:vector:stddev nan
scalar BgpNetwork.A.ppp[2].queue incomingPacketLengths:vector:min inf
scalar BgpNetwork.A.ppp[2].queue incomingPacketLengths:vector:max -inf
scalar BgpNetwork.A.ppp[2].queue incomingPacketLengths:vector:starttime nan
scalar BgpNetwork.A.ppp[2].queue incomingPacketLengths:vector:endtime nan
scalar BgpNetwork.A.ppp[2].queue incomingDataRate:vector:count 0
scalar BgpNetwork.A.ppp[2].queue incomingDataRate:vector:sum 0
scalar BgpNetwork.A.ppp[2].queue incomingDataRate:vector:sumweights 0
scalar BgpNetwork.A.ppp[2].queue incomingDataRate:vector:mean -nan
scalar BgpNetwork.A.ppp[2].queue incomingDataRate:vector:stddev nan
scalar BgpNetwork.A.ppp[2].queue incomingDataRate:vector:min inf
scalar BgpNetwork.A.ppp[2].queue incomingDataRate:vector:max -inf
scalar BgpNetwork.A.ppp[2].queue incomingDataRate:vector:starttime nan
scalar BgpNetwork.A.ppp[2].queue incomingDataRate:vector:endtime nan
scalar BgpNetwork.A.ppp[2].queue outgoingPacketLengths:vector:count 0
scalar BgpNetwork.A.ppp[2].queue outgoingPacketLengths:vector:sum 0
scalar BgpNetwork.A.ppp[2].queue outgoingPacketLengths:vector:sumweights 0
scalar BgpNetwork.A.ppp[2].queue outgoingPacketLengths:vector:mean -nan
scalar BgpNetwork.A.ppp[2].queue outgoingPacketLengths:vector:stddev nan
scalar BgpNetwork.A.ppp[2].queue outgoingPacketLengths:vector:min inf
scalar BgpNetwork.A.ppp[2].queue outgoingPacketLengths:vector:max -inf
scalar BgpNetwork.A.ppp[2].queue outgoingPacketLengths:vector:starttime nan
scalar BgpNetwork.A.ppp[2].queue outgoingPacketLengths:vector:endtime nan
scalar BgpNetwork.A.ppp[2].queue outgoingDataRate:vector:count 0
scalar BgpNetwork.A.ppp[2].queue outgoingDataRate:vector:sum 0
scalar BgpNetwork.A.ppp[2].queue outgoingDataRate:vector:sumweights 0
scalar BgpNetwork.A.ppp[2].queue outgoingDataRate:vector:mean -nan
scalar BgpNetwork.A.ppp[2].queue outgoingDataRate:vector:stddev nan
scalar BgpNetwork.A.ppp[2].queue outgoingDataRate:vector:min inf
scalar BgpNetwork.A.ppp[2].queue outgoingDataRate:vector:max -inf
scalar BgpNetwork.A.ppp[2].queue outgoingDataRate:vector:starttime nan
scalar BgpNetwork.A.ppp[2].queue outgoingDataRate:vector:endtime nan
scalar BgpNetwork.A.ppp[2].queue droppedPacketLengthsQueueOverflow:vector:count 0
scalar BgpNetwork.A.ppp[2].queue droppedPacketLengthsQueueOverflow:vector:sum 0
scalar BgpNetwork.A.ppp[2].queue droppedPacketLengthsQueueOverflow:vector:sumweights 0
scalar BgpNetwork.A.ppp[2].queue droppedPacketLengthsQueueOverflow:vector:mean -nan
scalar BgpNetwork.A.ppp[2].queue droppedPacketLengthsQueueOverflow:vector:stddev nan
scalar BgpNetwork.A.ppp[2].queue droppedPacketLengthsQueueOverflow:vector:min inf
scalar BgpNetwork.A.ppp[2].queue droppedPacketLengthsQueueOverflow:vector:max -inf
scalar BgpNetwork.A.ppp[2].queue droppedPacketLengthsQueueOverflow:vector:starttime nan
scalar BgpNetwork.A.ppp[2].queue droppedPacketLengthsQueueOverflow:vector:endtime nan
scalar BgpNetwork.A.ppp[2].queue flowQueueingTime:vector:count 0
scalar BgpNetwork.A.ppp[2].queue flowQueueingTime:vector:sum 0
scalar BgpNetwork.A.ppp[2].queue flowQueueingTime:vector:sumweights 0
scalar BgpNetwork.A.ppp[2].queue flowQueueingTime:vector:mean -nan
scalar BgpNetwork.A.ppp[2].queue flowQueueingTime:vector:stddev nan
scalar BgpNetwork.A.ppp[2].queue flowQueueingTime:vector:min inf
scalar BgpNetwork.A.ppp[2].queue flowQueueingTime:vector:max -inf
scalar BgpNetwork.A.ppp[2].queue flowQueueingTime:vector:starttime nan
scalar BgpNetwork.A.ppp[2].queue flowQueueingTime:vector:endtime nan
scalar BgpNetwork.A.ppp[2].queue flowIncomingDataRate:vector:count 0
scalar BgpNetwork.A.ppp[2].queue flowIncomingDataRate:vector:sum 0
scalar BgpNetwork.A.ppp[2].queue flowIncomingDataRate:vector:sumweights 0
scalar BgpNetwork.A.ppp[2].queue flowIncomingDataRate:vector:mean -nan
scalar BgpNetwork.A.ppp[2].queue flowIncomingDataRate:vector:stddev nan
scalar BgpNetwork.A.ppp[2].queue flowIncomingDataRate:vector:min inf
scalar BgpNetwork.A.ppp[2].queue flowIncomingDataRate:vector:max -inf
scalar BgpNetwork.A.ppp[2].queue flowIncomingDataRate:vector:starttime nan
scalar BgpNetwork.A.ppp[2].queue flowIncomingDataRate:vector:endtime nan
scalar BgpNetwork.A.ppp[2].queue flowOutgoingDataRate:vector:count 0
scalar BgpNetwork.A.ppp[2].queue flowOutgoingDataRate:vector:sum 0
scalar BgpNetwork.A.ppp[2].queue flowOutgoingDataRate:vector:sumweights 0
scalar BgpNetwork.A.ppp[2].queue flowOutgoingDataRate:vector:mean -nan
scalar BgpNetwork.A.ppp[2].queue flowOutgoingDataRate:vector:stddev nan
scalar BgpNetwork.A.ppp[2].queue flowOutgoingDataRate:vector:min inf
scalar BgpNetwork.A.ppp[2].queue flowOutgoingDataRate:vector:max -inf
scalar BgpNetwork.A.ppp[2].queue flowOutgoingDataRate:vector:starttime nan
scalar BgpNetwork.A.ppp[2].queue flowOutgoingDataRate:vector:endtime nan
scalar BgpNetwork.A.ppp[2].ppp transmissionState:vector:count 0
scalar BgpNetwork.A.ppp[2].ppp transmissionState:vector:sum 0
scalar BgpNetwork.A.ppp[2].ppp transmissionState:vector:sumweights 0
scalar BgpNetwork.A.ppp[2].ppp transmissionState:vector:mean -nan
scalar BgpNetwork.A.ppp[2].ppp transmissionState:vector:stddev nan
scalar BgpNetwork.A.ppp[2].ppp transmissionState:vector:min inf
scalar BgpNetwork.A.ppp[2].ppp transmissionState:vector:max -inf
scalar BgpNetwork.A.ppp[2].ppp transmissionState:vector:starttime nan
scalar BgpNetwork.A.ppp[2].ppp transmissionState:vector:endtime nan
scalar BgpNetwork.A.ppp[2].ppp txPk:vector(packetBytes):count 0
scalar BgpNetwork.A.ppp[2].ppp txPk:vector(packetBytes):sum 0
scalar BgpNetwork.A.ppp[2].ppp txPk:vector(packetBytes):sumweights 0
scalar BgpNetwork.A.ppp[2].ppp txPk:vector(packetBytes):mean -nan
scalar BgpNetwork.A.ppp[2].ppp txPk:vector(packetBytes):stddev nan
scalar BgpNetwork.A.ppp[2].ppp txPk:vector(packetBytes):min inf
scalar BgpNetwork.A.ppp[2].ppp txPk:vector(packetBytes):max -inf
scalar BgpNetwork.A.ppp[2].ppp txPk:vector(packetBytes):starttime nan
scalar BgpNetwork.A.ppp[2].ppp txPk:vector(packetBytes):endtime nan
scalar BgpNetwork.A.ppp[2].ppp rxPkOk:vector(packetBytes):count 0
scalar BgpNetwork.A.ppp[2].ppp rxPkOk:vector(packetBytes):sum 0
scalar BgpNetwork.A.ppp[2].ppp rxPkOk:vector(packetBytes):sumweights 0
scalar BgpNetwork.A.ppp[2].ppp rxPkOk:vector(packetBytes):mean -nan
scalar BgpNetwork.A.ppp[2].ppp rxPkOk:vector(packetBytes):stddev nan
scalar BgpNetwork.A.ppp[2].ppp rxPkOk:vector(packetBytes):min inf
scalar BgpNetwork.A.ppp[2].ppp rxPkOk:vector(packetBytes):max -inf
scalar BgpNetwork.A.ppp[2].ppp rxPkOk:vector(packetBytes):starttime nan
scalar BgpNetwork.A.ppp[2].ppp rxPkOk:vector(packetBytes):endtime nan
scalar BgpNetwork.A.ppp[2].ppp packetDropIncorrectlyReceived:vector(packetBytes):count 0
scalar BgpNetwork.A.ppp[2].ppp packetDropIncorrectlyReceived:vector(packetBytes):sum 0
scalar BgpNetwork.A.ppp[2].ppp packetDropIncorrectlyReceived:vector(packetBytes):sumweights 0
scalar BgpNetwork.A.ppp[2].ppp packetDropIncorrectlyReceived:vector(packetBytes):mean -nan
scalar BgpNetwork.A.ppp[2].ppp packetDropIncorrectlyReceived:vector(packetBytes):stddev nan
scalar BgpNetwork.A.ppp[2].ppp packetDropIncorrectlyReceived:vector(packetBytes):min inf
scalar BgpNetwork.A.ppp[2].ppp packetDropIncorrectlyReceived:vector(packetBytes):max -inf
scalar BgpNetwork.A.ppp[2].ppp packetDropIncorrectlyReceived:vector(packetBytes):starttime nan
scalar BgpNetwork.A.ppp[2].ppp packetDropIncorrectlyReceived:vector(packetBytes):endtime nan
scalar BgpNetwork.A.ppp[2].ppp packetDropInterfaceDown:vector(packetBytes):count 0
scalar BgpNetwork.A.ppp[2].ppp packetDropInterfaceDown:vector(packetBytes):sum 0
scalar BgpNetwork.A.ppp[2].ppp packetDropInterfaceDown:vector(packetBytes):sumweights 0
scalar BgpNetwork.A.ppp[2].ppp packetDropInterfaceDown:vector(packetBytes):mean -nan
scalar BgpNetwork.A.ppp[2].ppp packetDropInterfaceDown:vector(packetBytes):stddev nan
scalar BgpNetwork.A.ppp[2].ppp packetDropInterfaceDown:vector(packetBytes):min inf
scalar BgpNetwork.A.ppp[2].ppp packetDropInterfaceDown:vector(packetBytes):max -inf
scalar BgpNetwork.A.ppp[2].ppp packetDropInterfaceDown:vector(packetBytes):starttime nan
scalar BgpNetwork.A.ppp[2].ppp packetDropInterfaceDown:vector(packetBytes):endtime nan
scalar BgpNetwork.A.ppp[2].ppp rcvdPkFromHl:vector(packetBytes):count 0
scalar BgpNetwork.A.ppp[2].ppp rcvdPkFromHl:vector(packetBytes):sum 0
scalar BgpNetwork.A.ppp[2].ppp rcvdPkFromHl:vector(packetBytes):sumweights 0
scalar BgpNetwork.A.ppp[2].ppp rcvdPkFromHl:vector(packetBytes):mean -nan
scalar BgpNetwork.A.ppp[2].ppp rcvdPkFromHl:vector(packetBytes):stddev nan
scalar BgpNetwork.A.ppp[2].ppp rcvdPkFromHl:vector(packetBytes):min inf
scalar BgpNetwork.A.ppp[2].ppp rcvdPkFromHl:vector(packetBytes):max -inf
scalar BgpNetwork.A.ppp[2].ppp rcvdPkFromHl:vector(packetBytes):starttime nan
scalar BgpNetwork.A.ppp[2].ppp rcvdPkFromHl:vector(packetBytes):endtime nan
scalar BgpNetwork.A.ppp[2].ppp passedUpPk:vector(packetBytes):count 0
scalar BgpNetwork.A.ppp[2].ppp passedUpPk:vector(packetBytes):sum 0
scalar BgpNetwork.A.ppp[2].ppp passedUpPk:vector(packetBytes):sumweights 0
scalar BgpNetwork.A.ppp[2].ppp passedUpPk:vector(packetBytes):mean -nan
scalar BgpNetwork.A.ppp[2].ppp passedUpPk:vector(packetBytes):stddev nan
scalar BgpNetwork.A.ppp[2].ppp passedUpPk:vector(packetBytes):min inf
scalar BgpNetwork.A.ppp[2].ppp passedUpPk:vector(packetBytes):max -inf
scalar BgpNetwork.A.ppp[2].ppp passedUpPk:vector(packetBytes):starttime nan
scalar BgpNetwork.A.ppp[2].ppp passedUpPk:vector(packetBytes):endtime nan
scalar BgpNetwork.A.ppp[2] packetDropInterfaceDown:vector(packetBytes):count 0
scalar BgpNetwork.A.ppp[2] packetDropInterfaceDown:vector(packetBytes):sum 0
scalar BgpNetwork.A.ppp[2] packetDropInterfaceDown:vector(packetBytes):sumweights 0
scalar BgpNetwork.A.ppp[2] packetDropInterfaceDown:vector(packetBytes):mean -nan
scalar BgpNetwork.A.ppp[2] packetDropInterfaceDown:vector(packetBytes):stddev nan
scalar BgpNetwork.A.ppp[2] packetDropInterfaceDown:vector(packetBytes):min inf
scalar BgpNetwork.A.ppp[2] packetDropInterfaceDown:vector(packetBytes):max -inf
scalar BgpNetwork.A.ppp[2] packetDropInterfaceDown:vector(packetBytes):starttime nan
scalar BgpNetwork.A.ppp[2] packetDropInterfaceDown:vector(packetBytes):endtime nan
scalar BgpNetwork.A.ppp[2] packetDropNoCarrier:vector(packetBytes):count 0
scalar BgpNetwork.A.ppp[2] packetDropNoCarrier:vector(packetBytes):sum 0
scalar BgpNetwork.A.ppp[2] packetDropNoCarrier:vector(packetBytes):sumweights 0
scalar BgpNetwork.A.ppp[2] packetDropNoCarrier:vector(packetBytes):mean -nan
scalar BgpNetwork.A.ppp[2] packetDropNoCarrier:vector(packetBytes):stddev nan
scalar BgpNetwork.A.ppp[2] packetDropNoCarrier:vector(packetBytes):min inf
scalar BgpNetwork.A.ppp[2] packetDropNoCarrier:vector(packetBytes):max -inf
scalar BgpNetwork.A.ppp[2] packetDropNoCarrier:vector(packetBytes):starttime nan
scalar BgpNetwork.A.ppp[2] packetDropNoCarrier:vector(packetBytes):endtime nan
scalar BgpNetwork.A.ppp[3].queue queueLength:vector:count 0
scalar BgpNetwork.A.ppp[3].queue queueLength:vector:sum 0
scalar BgpNetwork.A.ppp[3].queue queueLength:vector:sumweights 0
scalar BgpNetwork.A.ppp[3].queue queueLength:vector:mean -nan
scalar BgpNetwork.A.ppp[3].queue queueLength:vector:stddev nan
scalar BgpNetwork.A.ppp[3].queue queueLength:vector:min inf
scalar BgpNetwork.A.ppp[3].queue queueLength:vector:max -inf
scalar BgpNetwork.A.ppp[3].queue queueLength:vector:starttime nan
scalar BgpNetwork.A.ppp[3].queue queueLength:vector:endtime nan
scalar BgpNetwork.A.ppp[3].queue queueBitLength:vector:count 0
scalar BgpNetwork.A.ppp[3].queue queueBitLength:vector:sum 0
scalar BgpNetwork.A.ppp[3].queue queueBitLength:vector:sumweights 0
scalar BgpNetwork.A.ppp[3].queue queueBitLength:vector:mean -nan
scalar BgpNetwork.A.ppp[3].queue queueBitLength:vector:stddev nan
scalar BgpNetwork.A.ppp[3].queue queueBitLength:vector:min inf
scalar BgpNetwork.A.ppp[3].queue queueBitLength:vector:max -inf
scalar BgpNetwork.A.ppp[3].queue queueBitLength:vector:starttime nan
scalar BgpNetwork.A.ppp[3].queue queueBitLength:vector:endtime nan
scalar BgpNetwork.A.ppp[3].queue queueingTime:vector:count 0
scalar BgpNetwork.A.ppp[3].queue queueingTime:vector:sum 0
scalar BgpNetwork.A.ppp[3].queue queueingTime:vector:sumweights 0
scalar BgpNetwork.A.ppp[3].queue queueingTime:vector:mean -nan
scalar BgpNetwork.A.ppp[3].queue queueingTime:vector:stddev nan
scalar BgpNetwork.A.ppp[3].queue queueingTime:vector:min inf
scalar BgpNetwork.A.ppp[3].queue queueingTime:vector:max -inf
scalar BgpNetwork.A.ppp[3].queue queueingTime:vector:starttime nan
scalar BgpNetwork.A.ppp[3].queue queueingTime:vector:endtime nan
scalar BgpNetwork.A.ppp[3].queue incomingPacketLengths:vector:count 0
scalar BgpNetwork.A.ppp[3].queue incomingPacketLengths:vector:sum 0
scalar BgpNetwork.A.ppp[3].queue incomingPacketLengths:vector:sumweights 0
scalar BgpNetwork.A.ppp[3].queue incomingPacketLengths:vector:mean -nan
scalar BgpNetwork.A.ppp[3].queue incomingPacketLengths:vector:stddev nan
scalar BgpNetwork.A.ppp[3].queue incomingPacketLengths:vector:min inf
scalar BgpNetwork.A.ppp[3].queue incomingPacketLengths:vector:max -inf
scalar BgpNetwork.A.ppp[3].queue incomingPacketLengths:vector:starttime nan
scalar BgpNetwork.A.ppp[3].queue incomingPacketLengths:vector:endtime nan
scalar BgpNetwork.A.ppp[3].queue incomingDataRate:vector:count 0
scalar BgpNetwork.A.ppp[3].queue incomingDataRate:vector:sum 0
scalar BgpNetwork.A.ppp[3].queue incomingDataRate:vector:sumweights 0
scalar BgpNetwork.A.ppp[3].queue incomingDataRate:vector:mean -nan
scalar BgpNetwork.A.ppp[3].queue incomingDataRate:vector:stddev nan
scalar BgpNetwork.A.ppp[3].queue incomingDataRate:vector:min inf
scalar BgpNetwork.A.ppp[3].queue incomingDataRate:vector:max -inf
scalar BgpNetwork.A.ppp[3].queue incomingDataRate:vector:starttime nan
scalar BgpNetwork.A.ppp[3].queue incomingDataRate:vector:endtime nan
scalar BgpNetwork.A.ppp[3].queue outgoingPacketLengths:vector:count 0
scalar BgpNetwork.A.ppp[3].queue outgoingPacketLengths:vector:sum 0
scalar BgpNetwork.A.ppp[3].queue outgoingPacketLengths:vector:sumweights 0
scalar BgpNetwork.A.ppp[3].queue outgoingPacketLengths:vector:mean -nan
scalar BgpNetwork.A.ppp[3].queue outgoingPacketLengths:vector:stddev nan
scalar BgpNetwork.A.ppp[3].queue outgoingPacketLengths:vector:min inf
scalar BgpNetwork.A.ppp[3].queue outgoingPacketLengths:vector:max -inf
scalar BgpNetwork.A.ppp[3].queue outgoingPacketLengths:vector:starttime nan
scalar BgpNetwork.A.ppp[3].queue outgoingPacketLengths:vector:endtime nan
scalar BgpNetwork.A.ppp[3].queue outgoingDataRate:vector:count 0
scalar BgpNetwork.A.ppp[3].queue outgoingDataRate:vector:sum 0
scalar BgpNetwork.A.ppp[3].queue outgoingDataRate:vector:sumweights 0
scalar BgpNetwork.A.ppp[3].queue outgoingDataRate:vector:mean -nan
scalar BgpNetwork.A.ppp[3].queue outgoingDataRate:vector:stddev nan
scalar BgpNetwork.A.ppp[3].queue outgoingDataRate:vector:min inf
scalar BgpNetwork.A.ppp[3].queue outgoingDataRate:vector:max -inf
scalar BgpNetwork.A.ppp[3].queue outgoingDataRate:vector:starttime nan
scalar BgpNetwork.A.ppp[3].queue outgoingDataRate:vector:endtime nan
scalar BgpNetwork.A.ppp[3].queue droppedPacketLengthsQueueOverflow:vector:count 0
scalar BgpNetwork.A.ppp[3].queue droppedPacketLengthsQueueOverflow:vector:sum 0
scalar BgpNetwork.A.ppp[3].queue droppedPacketLengthsQueueOverflow:vector:sumweights 0
scalar BgpNetwork.A.ppp[3].queue droppedPacketLengthsQueueOverflow:vector:mean -nan
scalar BgpNetwork.A.ppp[3].queue droppedPacketLengthsQueueOverflow:vector:stddev nan
scalar BgpNetwork.A.ppp[3].queue droppedPacketLengthsQueueOverflow:vector:min inf
scalar BgpNetwork.A.ppp[3].queue droppedPacketLengthsQueueOverflow:vector:max -inf
scalar BgpNetwork.A.ppp[3].queue droppedPacketLengthsQueueOverflow:vector:starttime nan
scalar BgpNetwork.A.ppp[3].queue droppedPacketLengthsQueueOverflow:vector:endtime nan
scalar BgpNetwork.A.ppp[3].queue flowQueueingTime:vector:count 0
scalar BgpNetwork.A.ppp[3].queue flowQueueingTime:vector:sum 0
scalar BgpNetwork.A.ppp[3].queue flowQueueingTime:vector:sumweights 0
scalar BgpNetwork.A.ppp[3].queue flowQueueingTime:vector:mean -nan
scalar BgpNetwork.A.ppp[3].queue flowQueueingTime:vector:stddev nan
scalar BgpNetwork.A.ppp[3].queue flowQueueingTime:vector:min inf
scalar BgpNetwork.A.ppp[3].queue flowQueueingTime:vector:max -inf
scalar BgpNetwork.A.ppp[3].queue flowQueueingTime:vector:starttime nan
scalar BgpNetwork.A.ppp[3].queue flowQueueingTime:vector:endtime nan
scalar BgpNetwork.A.ppp[3].queue flowIncomingDataRate:vector:count 0
scalar BgpNetwork.A.ppp[3].queue flowIncomingDataRate:vector:sum 0
scalar BgpNetwork.A.ppp[3].queue flowIncomingDataRate:vector:sumweights 0
scalar BgpNetwork.A.ppp[3].queue flowIncomingDataRate:vector:mean -nan
scalar BgpNetwork.A.ppp[3].queue flowIncomingDataRate:vector:stddev nan
scalar BgpNetwork.A.ppp[3].queue flowIncomingDataRate:vector:min inf
scalar BgpNetwork.A.ppp[3].queue flowIncomingDataRate:vector:max -inf
scalar BgpNetwork.A.ppp[3].queue flowIncomingDataRate:vector:starttime nan
scalar BgpNetwork.A.ppp[3].queue flowIncomingDataRate:vector:endtime nan
scalar BgpNetwork.A.ppp[3].queue flowOutgoingDataRate:vector:count 0
scalar BgpNetwork.A.ppp[3].queue flowOutgoingDataRate:vector:sum 0
scalar BgpNetwork.A.ppp[3].queue flowOutgoingDataRate:vector:sumweights 0
scalar BgpNetwork.A.ppp[3].queue flowOutgoingDataRate:vector:mean -nan
scalar BgpNetwork.A.ppp[3].queue flowOutgoingDataRate:vector:stddev nan
scalar BgpNetwork.A.ppp[3].queue flowOutgoingDataRate:vector:min inf
scalar BgpNetwork.A.ppp[3].queue flowOutgoingDataRate:vector:max -inf
scalar BgpNetwork.A.ppp[3].queue flowOutgoingDataRate:vector:starttime nan
scalar BgpNetwork.A.ppp[3].queue flowOutgoingDataRate:vector:endtime nan
scalar BgpNetwork.A.ppp[3].ppp transmissionState:vector:count 0
scalar BgpNetwork.A.ppp[3].ppp transmissionState:vector:sum 0
scalar BgpNetwork.A.ppp[3].ppp transmissionState:vector:sumweights 0
scalar BgpNetwork.A.ppp[3].ppp transmissionState:vector:mean -nan
scalar BgpNetwork.A.ppp[3].ppp transmissionState:vector:stddev nan
scalar BgpNetwork.A.ppp[3].ppp transmissionState:vector:min inf
scalar BgpNetwork.A.ppp[3].ppp transmissionState:vector:max -inf
scalar BgpNetwork.A.ppp[3].ppp transmissionState:vector:starttime nan
scalar BgpNetwork.A.ppp[3].ppp transmissionState:vector:endtime nan
scalar BgpNetwork.A.ppp[3].ppp txPk:vector(packetBytes):count 0
scalar BgpNetwork.A.ppp[3].ppp txPk:vector(packetBytes):sum 0
scalar BgpNetwork.A.ppp[3].ppp txPk:vector(packetBytes):sumweights 0
scalar BgpNetwork.A.ppp[3].ppp txPk:vector(packetBytes):mean -nan
scalar BgpNetwork.A.ppp[3].ppp txPk:vector(packetBytes):stddev nan
scalar BgpNetwork.A.ppp[3].ppp txPk:vector(packetBytes):min inf
scalar BgpNetwork.A.ppp[3].ppp txPk:vector(packetBytes):max -inf
scalar BgpNetwork.A.ppp[3].ppp txPk:vector(packetBytes):starttime nan
scalar BgpNetwork.A.ppp[3].ppp txPk:vector(packetBytes):endtime nan
scalar BgpNetwork.A.ppp[3].ppp rxPkOk:vector(packetBytes):count 0
scalar BgpNetwork.A.ppp[3].ppp rxPkOk:vector(packetBytes):sum 0
scalar BgpNetwork.A.ppp[3].ppp rxPkOk:vector(packetBytes):sumweights 0
scalar BgpNetwork.A.ppp[3].ppp rxPkOk:vector(packetBytes):mean -nan
scalar BgpNetwork.A.ppp[3].ppp rxPkOk:vector(packetBytes):stddev nan
scalar BgpNetwork.A.ppp[3].ppp rxPkOk:vector(packetBytes):min inf
scalar BgpNetwork.A.ppp[3].ppp rxPkOk:vector(packetBytes):max -inf
scalar BgpNetwork.A.ppp[3].ppp rxPkOk:vector(packetBytes):starttime nan
scalar BgpNetwork.A.ppp[3].ppp rxPkOk:vector(packetBytes):endtime nan
scalar BgpNetwork.A.ppp[3].ppp packetDropIncorrectlyReceived:vector(packetBytes):count 0
scalar BgpNetwork.A.ppp[3].ppp packetDropIncorrectlyReceived:vector(packetBytes):sum 0
scalar BgpNetwork.A.ppp[3].ppp packetDropIncorrectlyReceived:vector(packetBytes):sumweights 0
scalar BgpNetwork.A.ppp[3].ppp packetDropIncorrectlyReceived:vector(packetBytes):mean -nan
scalar BgpNetwork.A.ppp[3].ppp packetDropIncorrectlyReceived:vector(packetBytes):stddev nan
scalar BgpNetwork.A.ppp[3].ppp packetDropIncorrectlyReceived:vector(packetBytes):min inf
scalar BgpNetwork.A.ppp[3].ppp packetDropIncorrectlyReceived:vector(packetBytes):max -inf
scalar BgpNetwork.A.ppp[3].ppp packetDropIncorrectlyReceived:vector(packetBytes):starttime nan
scalar BgpNetwork.A.ppp[3].ppp packetDropIncorrectlyReceived:vector(packetBytes):endtime nan
scalar BgpNetwork.A.ppp[3].ppp packetDropInterfaceDown:vector(packetBytes):count 0
scalar BgpNetwork.A.ppp[3].ppp packetDropInterfaceDown:vector(packetBytes):sum 0
scalar BgpNetwork.A.ppp[3].ppp packetDropInterfaceDown:vector(packetBytes):sumweights 0
scalar BgpNetwork.A.ppp[3].ppp packetDropInterfaceDown:vector(packetBytes):mean -nan
scalar BgpNetwork.A.ppp[3].ppp packetDropInterfaceDown:vector(packetBytes):stddev nan
scalar BgpNetwork.A.ppp[3].ppp packetDropInterfaceDown:vector(packetBytes):min inf
scalar BgpNetwork.A.ppp[3].ppp packetDropInterfaceDown:vector(packetBytes):max -inf
scalar BgpNetwork.A.ppp[3].ppp packetDropInterfaceDown:vector(packetBytes):starttime nan
scalar BgpNetwork.A.ppp[3].ppp packetDropInterfaceDown:vector(packetBytes):endtime nan
scalar BgpNetwork.A.ppp[3].ppp rcvdPkFromHl:vector(packetBytes):count 0
scalar BgpNetwork.A.ppp[3].ppp rcvdPkFromHl:vector(packetBytes):sum 0
scalar BgpNetwork.A.ppp[3].ppp rcvdPkFromHl:vector(packetBytes):sumweights 0
scalar BgpNetwork.A.ppp[3].ppp rcvdPkFromHl:vector(packetBytes):mean -nan
scalar BgpNetwork.A.ppp[3].ppp rcvdPkFromHl:vector(packetBytes):stddev nan
scalar BgpNetwork.A.ppp[3].ppp rcvdPkFromHl:vector(packetBytes):min inf
scalar BgpNetwork.A.ppp[3].ppp rcvdPkFromHl:vector(packetBytes):max -inf
scalar BgpNetwork.A.ppp[3].ppp rcvdPkFromHl:vector(packetBytes):starttime nan
scalar BgpNetwork.A.ppp[3].ppp rcvdPkFromHl:vector(packetBytes):endtime nan
scalar BgpNetwork.A.ppp[3].ppp passedUpPk:vector(packetBytes):count 0
scalar BgpNetwork.A.ppp[3].ppp passedUpPk:vector(packetBytes):sum 0
scalar BgpNetwork.A.ppp[3].ppp passedUpPk:vector(packetBytes):sumweights 0
scalar BgpNetwork.A.ppp[3].ppp passedUpPk:vector(packetBytes):mean -nan
scalar BgpNetwork.A.ppp[3].ppp passedUpPk:vector(packetBytes):stddev nan
scalar BgpNetwork.A.ppp[3].ppp passedUpPk:vector(packetBytes):min inf
scalar BgpNetwork.A.ppp[3].ppp passedUpPk:vector(packetBytes):max -inf
scalar BgpNetwork.A.ppp[3].ppp passedUpPk:vector(packetBytes):starttime nan
scalar BgpNetwork.A.ppp[3].ppp passedUpPk:vector(packetBytes):endtime nan
scalar BgpNetwork.A.ppp[3] packetDropInterfaceDown:vector(packetBytes):count 0
scalar BgpNetwork.A.ppp[3] packetDropInterfaceDown:vector(packetBytes):sum 0
scalar BgpNetwork.A.ppp[3] packetDropInterfaceDown:vector(packetBytes):sumweights 0
scalar BgpNetwork.A.ppp[3] packetDropInterfaceDown:vector(packetBytes):mean -nan
scalar BgpNetwork.A.ppp[3] packetDropInterfaceDown:vector(packetBytes):stddev nan
scalar BgpNetwork.A.ppp[3] packetDropInterfaceDown:vector(packetBytes):min inf
scalar BgpNetwork.A.ppp[3] packetDropInterfaceDown:vector(packetBytes):max -inf
scalar BgpNetwork.A.ppp[3] packetDropInterfaceDown:vector(packetBytes):starttime nan
scalar BgpNetwork.A.ppp[3] packetDropInterfaceDown:vector(packetBytes):endtime nan
scalar BgpNetwork.A.ppp[3] packetDropNoCarrier:vector(packetBytes):count 0
scalar BgpNetwork.A.ppp[3] packetDropNoCarrier:vector(packetBytes):sum 0
scalar BgpNetwork.A.ppp[3] packetDropNoCarrier:vector(packetBytes):sumweights 0
scalar BgpNetwork.A.ppp[3] packetDropNoCarrier:vector(packetBytes):mean -nan
scalar BgpNetwork.A.ppp[3] packetDropNoCarrier:vector(packetBytes):stddev nan
scalar BgpNetwork.A.ppp[3] packetDropNoCarrier:vector(packetBytes):min inf
scalar BgpNetwork.A.ppp[3] packetDropNoCarrier:vector(packetBytes):max -inf
scalar BgpNetwork.A.ppp[3] packetDropNoCarrier:vector(packetBytes):starttime nan
scalar BgpNetwork.A.ppp[3] packetDropNoCarrier:vector(packetBytes):endtime nan
scalar BgpNetwork.A.ipv4.ip packetDropAddressResolutionFailed:vector(packetBytes):count 0
scalar BgpNetwork.A.ipv4.ip packetDropAddressResolutionFailed:vector(packetBytes):sum 0
scalar BgpNetwork.A.ipv4.ip packetDropAddressResolutionFailed:vector(packetBytes):sumweights 0
scalar BgpNetwork.A.ipv4.ip packetDropAddressResolutionFailed:vector(packetBytes):mean -nan
scalar BgpNetwork.A.ipv4.ip packetDropAddressResolutionFailed:vector(packetBytes):stddev nan
scalar BgpNetwork.A.ipv4.ip packetDropAddressResolutionFailed:vector(packetBytes):min inf
scalar BgpNetwork.A.ipv4.ip packetDropAddressResolutionFailed:vector(packetBytes):max -inf
scalar BgpNetwork.A.ipv4.ip packetDropAddressResolutionFailed:vector(packetBytes):starttime nan
scalar BgpNetwork.A.ipv4.ip packetDropAddressResolutionFailed:vector(packetBytes):endtime nan
scalar BgpNetwork.A.ipv4.ip packetDropHopLimitReached:vector(packetBytes):count 0
scalar BgpNetwork.A.ipv4.ip packetDropHopLimitReached:vector(packetBytes):sum 0
scalar BgpNetwork.A.ipv4.ip packetDropHopLimitReached:vector(packetBytes):sumweights 0
scalar BgpNetwork.A.ipv4.ip packetDropHopLimitReached:vector(packetBytes):mean -nan
scalar BgpNetwork.A.ipv4.ip packetDropHopLimitReached:vector(packetBytes):stddev nan
scalar BgpNetwork.A.ipv4.ip packetDropHopLimitReached:vector(packetBytes):min inf
scalar BgpNetwork.A.ipv4.ip packetDropHopLimitReached:vector(packetBytes):max -inf
scalar BgpNetwork.A.ipv4.ip packetDropHopLimitReached:vector(packetBytes):starttime nan
scalar BgpNetwork.A.ipv4.ip packetDropHopLimitReached:vector(packetBytes):endtime nan
scalar BgpNetwork.A.ipv4.ip packetDropForwardingDisabled:vector(packetBytes):count 0
scalar BgpNetwork.A.ipv4.ip packetDropForwardingDisabled:vector(packetBytes):sum 0
scalar BgpNetwork.A.ipv4.ip packetDropForwardingDisabled:vector(packetBytes):sumweights 0
scalar BgpNetwork.A.ipv4.ip packetDropForwardingDisabled:vector(packetBytes):mean -nan
scalar BgpNetwork.A.ipv4.ip packetDropForwardingDisabled:vector(packetBytes):stddev nan
[...]
scalar BgpNetwork.B.tcp.conn-42 cwnd:vector:sumweights 0
scalar BgpNetwork.B.tcp.conn-42 cwnd:vector:mean -nan
scalar BgpNetwork.B.tcp.conn-42 cwnd:vector:stddev nan
scalar BgpNetwork.B.tcp.conn-42 cwnd:vector:min inf
scalar BgpNetwork.B.tcp.conn-42 cwnd:vector:max -inf
scalar BgpNetwork.B.tcp.conn-42 cwnd:vector:starttime nan
scalar BgpNetwork.B.tcp.conn-42 cwnd:vector:endtime nan
scalar BgpNetwork.B.tcp.conn-42 ssthresh:vector:count 0
scalar BgpNetwork.B.tcp.conn-42 ssthresh:vector:sum 0
scalar BgpNetwork.B.tcp.conn-42 ssthresh:vector:sumweights 0
scalar BgpNetwork.B.tcp.conn-42 ssthresh:vector:mean -nan
scalar BgpNetwork.B.tcp.conn-42 ssthresh:vector:stddev nan
scalar BgpNetwork.B.tcp.conn-42 ssthresh:vector:min inf
scalar BgpNetwork.B.tcp.conn-42 ssthresh:vector:max -inf
scalar BgpNetwork.B.tcp.conn-42 ssthresh:vector:starttime nan
scalar BgpNetwork.B.tcp.conn-42 ssthresh:vector:endtime nan
scalar BgpNetwork.B.tcp.conn-42 rtt:vector:count 0
scalar BgpNetwork.B.tcp.conn-42 rtt:vector:sum 0
scalar BgpNetwork.B.tcp.conn-42 rtt:vector:sumweights 0
scalar BgpNetwork.B.tcp.conn-42 rtt:vector:mean -nan
scalar BgpNetwork.B.tcp.conn-42 rtt:vector:stddev nan
scalar BgpNetwork.B.tcp.conn-42 rtt:vector:min inf
scalar BgpNetwork.B.tcp.conn-42 rtt:vector:max -inf
scalar BgpNetwork.B.tcp.conn-42 rtt:vector:starttime nan
scalar BgpNetwork.B.tcp.conn-42 rtt:vector:endtime nan
scalar BgpNetwork.B.tcp.conn-42 srtt:vector:count 0
scalar BgpNetwork.B.tcp.conn-42 srtt:vector:sum 0
scalar BgpNetwork.B.tcp.conn-42 srtt:vector:sumweights 0
scalar BgpNetwork.B.tcp.conn-42 srtt:vector:mean -nan
scalar BgpNetwork.B.tcp.conn-42 srtt:vector:stddev nan
scalar BgpNetwork.B.tcp.conn-42 srtt:vector:min inf
scalar BgpNetwork.B.tcp.conn-42 srtt:vector:max -inf
scalar BgpNetwork.B.tcp.conn-42 srtt:vector:starttime nan
scalar BgpNetwork.B.tcp.conn-42 srtt:vector:endtime nan
scalar BgpNetwork.B.tcp.conn-42 rttvar:vector:count 0
scalar BgpNetwork.B.tcp.conn-42 rttvar:vector:sum 0
scalar BgpNetwork.B.tcp.conn-42 rttvar:vector:sumweights 0
scalar BgpNetwork.B.tcp.conn-42 rttvar:vector:mean -nan
scalar BgpNetwork.B.tcp.conn-42 rttvar:vector:stddev nan
scalar BgpNetwork.B.tcp.conn-42 rttvar:vector:min inf
scalar BgpNetwork.B.tcp.conn-42 rttvar:vector:max -inf
scalar BgpNetwork.B.tcp.conn-42 rttvar:vector:starttime nan
scalar BgpNetwork.B.tcp.conn-42 rttvar:vector:endtime nan
scalar BgpNetwork.B.tcp.conn-42 rto:vector:count 0
scalar BgpNetwork.B.tcp.conn-42 rto:vector:sum 0
scalar BgpNetwork.B.tcp.conn-42 rto:vector:sumweights 0
scalar BgpNetwork.B.tcp.conn-42 rto:vector:mean -nan
scalar BgpNetwork.B.tcp.conn-42 rto:vector:stddev nan
scalar BgpNetwork.B.tcp.conn-42 rto:vector:min inf
scalar BgpNetwork.B.tcp.conn-42 rto:vector:max -inf
scalar BgpNetwork.B.tcp.conn-42 rto:vector:starttime nan
scalar BgpNetwork.B.tcp.conn-42 rto:vector:endtime nan
scalar BgpNetwork.B.tcp.conn-42 numRtos:vector:count 0
scalar BgpNetwork.B.tcp.conn-42 numRtos:vector:sum 0
scalar BgpNetwork.B.tcp.conn-42 numRtos:vector:sumweights 0
scalar BgpNetwork.B.tcp.conn-42 numRtos:vector:mean -nan
scalar BgpNetwork.B.tcp.conn-42 numRtos:vector:stddev nan
scalar BgpNetwork.B.tcp.conn-42 numRtos:vector:min inf
scalar BgpNetwork.B.tcp.conn-42 numRtos:vector:max -inf
scalar BgpNetwork.B.tcp.conn-42 numRtos:vector:starttime nan
scalar BgpNetwork.B.tcp.conn-42 numRtos:vector:endtime nan
scalar BgpNetwork.B.tcp.conn-42 load:vector:count 0
scalar BgpNetwork.B.tcp.conn-42 load:vector:sum 0
scalar BgpNetwork.B.tcp.conn-42 load:vector:sumweights 0
scalar BgpNetwork.B.tcp.conn-42 load:vector:mean -nan
scalar BgpNetwork.B.tcp.conn-42 load:vector:stddev nan
scalar BgpNetwork.B.tcp.conn-42 load:vector:min inf
scalar BgpNetwork.B.tcp.conn-42 load:vector:max -inf
scalar BgpNetwork.B.tcp.conn-42 load:vector:starttime nan
scalar BgpNetwork.B.tcp.conn-42 load:vector:endtime nan
scalar BgpNetwork.B.tcp.conn-42 calcLoad:vector:count 0
scalar BgpNetwork.B.tcp.conn-42 calcLoad:vector:sum 0
scalar BgpNetwork.B.tcp.conn-42 calcLoad:vector:sumweights 0
scalar BgpNetwork.B.tcp.conn-42 calcLoad:vector:mean -nan
scalar BgpNetwork.B.tcp.conn-42 calcLoad:vector:stddev nan
scalar BgpNetwork.B.tcp.conn-42 calcLoad:vector:min inf
scalar BgpNetwork.B.tcp.conn-42 calcLoad:vector:max -inf
scalar BgpNetwork.B.tcp.conn-42 calcLoad:vector:starttime nan
scalar BgpNetwork.B.tcp.conn-42 calcLoad:vector:endtime nan
scalar BgpNetwork.B.tcp.conn-42 markingProb:vector:count 0
scalar BgpNetwork.B.tcp.conn-42 markingProb:vector:sum 0
scalar BgpNetwork.B.tcp.conn-42 markingProb:vector:sumweights 0
scalar BgpNetwork.B.tcp.conn-42 markingProb:vector:mean -nan
scalar BgpNetwork.B.tcp.conn-42 markingProb:vector:stddev nan
scalar BgpNetwork.B.tcp.conn-42 markingProb:vector:min inf
scalar BgpNetwork.B.tcp.conn-42 markingProb:vector:max -inf
scalar BgpNetwork.B.tcp.conn-42 markingProb:vector:starttime nan
scalar BgpNetwork.B.tcp.conn-42 markingProb:vector:endtime nan
scalar BgpNetwork.C.tcp.conn-50 state:vector:count 0
scalar BgpNetwork.C.tcp.conn-50 state:vector:sum 0
scalar BgpNetwork.C.tcp.conn-50 state:vector:sumweights 0
scalar BgpNetwork.C.tcp.conn-50 state:vector:mean -nan
scalar BgpNetwork.C.tcp.conn-50 state:vector:stddev nan
scalar BgpNetwork.C.tcp.conn-50 state:vector:min inf
scalar BgpNetwork.C.tcp.conn-50 state:vector:max -inf
scalar BgpNetwork.C.tcp.conn-50 state:vector:starttime nan
scalar BgpNetwork.C.tcp.conn-50 state:vector:endtime nan
scalar BgpNetwork.C.tcp.conn-50 sndWnd:vector:count 0
scalar BgpNetwork.C.tcp.conn-50 sndWnd:vector:sum 0
scalar BgpNetwork.C.tcp.conn-50 sndWnd:vector:sumweights 0
scalar BgpNetwork.C.tcp.conn-50 sndWnd:vector:mean -nan
scalar BgpNetwork.C.tcp.conn-50 sndWnd:vector:stddev nan
scalar BgpNetwork.C.tcp.conn-50 sndWnd:vector:min inf
scalar BgpNetwork.C.tcp.conn-50 sndWnd:vector:max -inf
scalar BgpNetwork.C.tcp.conn-50 sndWnd:vector:starttime nan
scalar BgpNetwork.C.tcp.conn-50 sndWnd:vector:endtime nan
scalar BgpNetwork.C.tcp.conn-50 rcvWnd:vector:count 0
scalar BgpNetwork.C.tcp.conn-50 rcvWnd:vector:sum 0
scalar BgpNetwork.C.tcp.conn-50 rcvWnd:vector:sumweights 0
scalar BgpNetwork.C.tcp.conn-50 rcvWnd:vector:mean -nan
scalar BgpNetwork.C.tcp.conn-50 rcvWnd:vector:stddev nan
scalar BgpNetwork.C.tcp.conn-50 rcvWnd:vector:min inf
scalar BgpNetwork.C.tcp.conn-50 rcvWnd:vector:max -inf
scalar BgpNetwork.C.tcp.conn-50 rcvWnd:vector:starttime nan
scalar BgpNetwork.C.tcp.conn-50 rcvWnd:vector:endtime nan
scalar BgpNetwork.C.tcp.conn-50 rcvAdv:vector:count 0
scalar BgpNetwork.C.tcp.conn-50 rcvAdv:vector:sum 0
scalar BgpNetwork.C.tcp.conn-50 rcvAdv:vector:sumweights 0
scalar BgpNetwork.C.tcp.conn-50 rcvAdv:vector:mean -nan
scalar BgpNetwork.C.tcp.conn-50 rcvAdv:vector:stddev nan
scalar BgpNetwork.C.tcp.conn-50 rcvAdv:vector:min inf
scalar BgpNetwork.C.tcp.conn-50 rcvAdv:vector:max -inf
scalar BgpNetwork.C.tcp.conn-50 rcvAdv:vector:starttime nan
scalar BgpNetwork.C.tcp.conn-50 rcvAdv:vector:endtime nan
scalar BgpNetwork.C.tcp.conn-50 sndNxt:vector:count 0
scalar BgpNetwork.C.tcp.conn-50 sndNxt:vector:sum 0
scalar BgpNetwork.C.tcp.conn-50 sndNxt:vector:sumweights 0
scalar BgpNetwork.C.tcp.conn-50 sndNxt:vector:mean -nan
scalar BgpNetwork.C.tcp.conn-50 sndNxt:vector:stddev nan
scalar BgpNetwork.C.tcp.conn-50 sndNxt:vector:min inf
scalar BgpNetwork.C.tcp.conn-50 sndNxt:vector:max -inf
scalar BgpNetwork.C.tcp.conn-50 sndNxt:vector:starttime nan
scalar BgpNetwork.C.tcp.conn-50 sndNxt:vector:endtime nan
scalar BgpNetwork.C.tcp.conn-50 sndAck:vector:count 0
scalar BgpNetwork.C.tcp.conn-50 sndAck:vector:sum 0
scalar BgpNetwork.C.tcp.conn-50 sndAck:vector:sumweights 0
scalar BgpNetwork.C.tcp.conn-50 sndAck:vector:mean -nan
scalar BgpNetwork.C.tcp.conn-50 sndAck:vector:stddev nan
scalar BgpNetwork.C.tcp.conn-50 sndAck:vector:min inf
scalar BgpNetwork.C.tcp.conn-50 sndAck:vector:max -inf
scalar BgpNetwork.C.tcp.conn-50 sndAck:vector:starttime nan
scalar BgpNetwork.C.tcp.conn-50 sndAck:vector:endtime nan
scalar BgpNetwork.C.tcp.conn-50 rcvSeq:vector:count 0
scalar BgpNetwork.C.tcp.conn-50 rcvSeq:vector:sum 0
scalar BgpNetwork.C.tcp.conn-50 rcvSeq:vector:sumweights 0
scalar BgpNetwork.C.tcp.conn-50 rcvSeq:vector:mean -nan
scalar BgpNetwork.C.tcp.conn-50 rcvSeq:vector:stddev nan
scalar BgpNetwork.C.tcp.conn-50 rcvSeq:vector:min inf
scalar BgpNetwork.C.tcp.conn-50 rcvSeq:vector:max -inf
scalar BgpNetwork.C.tcp.conn-50 rcvSeq:vector:starttime nan
scalar BgpNetwork.C.tcp.conn-50 rcvSeq:vector:endtime nan
scalar BgpNetwork.C.tcp.conn-50 rcvAck:vector:count 0
scalar BgpNetwork.C.tcp.conn-50 rcvAck:vector:sum 0
scalar BgpNetwork.C.tcp.conn-50 rcvAck:vector:sumweights 0
scalar BgpNetwork.C.tcp.conn-50 rcvAck:vector:mean -nan
scalar BgpNetwork.C.tcp.conn-50 rcvAck:vector:stddev nan
scalar BgpNetwork.C.tcp.conn-50 rcvAck:vector:min inf
scalar BgpNetwork.C.tcp.conn-50 rcvAck:vector:max -inf
scalar BgpNetwork.C.tcp.conn-50 rcvAck:vector:starttime nan
scalar BgpNetwork.C.tcp.conn-50 rcvAck:vector:endtime nan
scalar BgpNetwork.C.tcp.conn-50 unacked:vector:count 0
scalar BgpNetwork.C.tcp.conn-50 unacked:vector:sum 0
scalar BgpNetwork.C.tcp.conn-50 unacked:vector:sumweights 0
scalar BgpNetwork.C.tcp.conn-50 unacked:vector:mean -nan
scalar BgpNetwork.C.tcp.conn-50 unacked:vector:stddev nan
scalar BgpNetwork.C.tcp.conn-50 unacked:vector:min inf
scalar BgpNetwork.C.tcp.conn-50 unacked:vector:max -inf
scalar BgpNetwork.C.tcp.conn-50 unacked:vector:starttime nan
scalar BgpNetwork.C.tcp.conn-50 unacked:vector:endtime nan
scalar BgpNetwork.C.tcp.conn-50 dupAcks:vector:count 0
scalar BgpNetwork.C.tcp.conn-50 dupAcks:vector:sum 0
scalar BgpNetwork.C.tcp.conn-50 dupAcks:vector:sumweights 0
scalar BgpNetwork.C.tcp.conn-50 dupAcks:vector:mean -nan
scalar BgpNetwork.C.tcp.conn-50 dupAcks:vector:stddev nan
scalar BgpNetwork.C.tcp.conn-50 dupAcks:vector:min inf
scalar BgpNetwork.C.tcp.conn-50 dupAcks:vector:max -inf
scalar BgpNetwork.C.tcp.conn-50 dupAcks:vector:starttime nan
scalar BgpNetwork.C.tcp.conn-50 dupAcks:vector:endtime nan
scalar BgpNetwork.C.tcp.conn-50 pipe:vector:count 0
scalar BgpNetwork.C.tcp.conn-50 pipe:vector:sum 0
scalar BgpNetwork.C.tcp.conn-50 pipe:vector:sumweights 0
scalar BgpNetwork.C.tcp.conn-50 pipe:vector:mean -nan
scalar BgpNetwork.C.tcp.conn-50 pipe:vector:stddev nan
scalar BgpNetwork.C.tcp.conn-50 pipe:vector:min inf
scalar BgpNetwork.C.tcp.conn-50 pipe:vector:max -inf
scalar BgpNetwork.C.tcp.conn-50 pipe:vector:starttime nan
scalar BgpNetwork.C.tcp.conn-50 pipe:vector:endtime nan
scalar BgpNetwork.C.tcp.conn-50 sndSacks:vector:count 0
scalar BgpNetwork.C.tcp.conn-50 sndSacks:vector:sum 0
scalar BgpNetwork.C.tcp.conn-50 sndSacks:vector:sumweights 0
scalar BgpNetwork.C.tcp.conn-50 sndSacks:vector:mean -nan
scalar BgpNetwork.C.tcp.conn-50 sndSacks:vector:stddev nan
scalar BgpNetwork.C.tcp.conn-50 sndSacks:vector:min inf
scalar BgpNetwork.C.tcp.conn-50 sndSacks:vector:max -inf
scalar BgpNetwork.C.tcp.conn-50 sndSacks:vector:starttime nan
scalar BgpNetwork.C.tcp.conn-50 sndSacks:vector:endtime nan
scalar BgpNetwork.C.tcp.conn-50 rcvSacks:vector:count 0
scalar BgpNetwork.C.tcp.conn-50 rcvSacks:vector:sum 0
scalar BgpNetwork.C.tcp.conn-50 rcvSacks:vector:sumweights 0
scalar BgpNetwork.C.tcp.conn-50 rcvSacks:vector:mean -nan
scalar BgpNetwork.C.tcp.conn-50 rcvSacks:vector:stddev nan
scalar BgpNetwork.C.tcp.conn-50 rcvSacks:vector:min inf
scalar BgpNetwork.C.tcp.conn-50 rcvSacks:vector:max -inf
scalar BgpNetwork.C.tcp.conn-50 rcvSacks:vector:starttime nan
scalar BgpNetwork.C.tcp.conn-50 rcvSacks:vector:endtime nan
scalar BgpNetwork.C.tcp.conn-50 rcvOooSeg:vector:count 0
scalar BgpNetwork.C.tcp.conn-50 rcvOooSeg:vector:sum 0
scalar BgpNetwork.C.tcp.conn-50 rcvOooSeg:vector:sumweights 0
scalar BgpNetwork.C.tcp.conn-50 rcvOooSeg:vector:mean -nan
scalar BgpNetwork.C.tcp.conn-50 rcvOooSeg:vector:stddev nan
scalar BgpNetwork.C.tcp.conn-50 rcvOooSeg:vector:min inf
scalar BgpNetwork.C.tcp.conn-50 rcvOooSeg:vector:max -inf
scalar BgpNetwork.C.tcp.conn-50 rcvOooSeg:vector:starttime nan
scalar BgpNetwork.C.tcp.conn-50 rcvOooSeg:vector:endtime nan
scalar BgpNetwork.C.tcp.conn-50 rcvNASeg:vector:count 0
scalar BgpNetwork.C.tcp.conn-50 rcvNASeg:vector:sum 0
scalar BgpNetwork.C.tcp.conn-50 rcvNASeg:vector:sumweights 0
scalar BgpNetwork.C.tcp.conn-50 rcvNASeg:vector:mean -nan
scalar BgpNetwork.C.tcp.conn-50 rcvNASeg:vector:stddev nan
scalar BgpNetwork.C.tcp.conn-50 rcvNASeg:vector:min inf
scalar BgpNetwork.C.tcp.conn-50 rcvNASeg:vector:max -inf
scalar BgpNetwork.C.tcp.conn-50 rcvNASeg:vector:starttime nan
scalar BgpNetwork.C.tcp.conn-50 rcvNASeg:vector:endtime nan
scalar BgpNetwork.C.tcp.conn-50 sackedBytes:vector:count 0
scalar BgpNetwork.C.tcp.conn-50 sackedBytes:vector:sum 0
scalar BgpNetwork.C.tcp.conn-50 sackedBytes:vector:sumweights 0
scalar BgpNetwork.C.tcp.conn-50 sackedBytes:vector:mean -nan
scalar BgpNetwork.C.tcp.conn-50 sackedBytes:vector:stddev nan
scalar BgpNetwork.C.tcp.conn-50 sackedBytes:vector:min inf
scalar BgpNetwork.C.tcp.conn-50 sackedBytes:vector:max -inf
scalar BgpNetwork.C.tcp.conn-50 sackedBytes:vector:starttime nan
scalar BgpNetwork.C.tcp.conn-50 sackedBytes:vector:endtime nan
scalar BgpNetwork.C.tcp.conn-50 tcpRcvQueueBytes:vector:count 0
scalar BgpNetwork.C.tcp.conn-50 tcpRcvQueueBytes:vector:sum 0
scalar BgpNetwork.C.tcp.conn-50 tcpRcvQueueBytes:vector:sumweights 0
scalar BgpNetwork.C.tcp.conn-50 tcpRcvQueueBytes:vector:mean -nan
scalar BgpNetwork.C.tcp.conn-50 tcpRcvQueueBytes:vector:stddev nan
scalar BgpNetwork.C.tcp.conn-50 tcpRcvQueueBytes:vector:min inf
scalar BgpNetwork.C.tcp.conn-50 tcpRcvQueueBytes:vector:max -inf
scalar BgpNetwork.C.tcp.conn-50 tcpRcvQueueBytes:vector:starttime nan
scalar BgpNetwork.C.tcp.conn-50 tcpRcvQueueBytes:vector:endtime nan
scalar BgpNetwork.C.tcp.conn-50 tcpRcvQueueDrops:vector:count 0
scalar BgpNetwork.C.tcp.conn-50 tcpRcvQueueDrops:vector:sum 0
scalar BgpNetwork.C.tcp.conn-50 tcpRcvQueueDrops:vector:sumweights 0
scalar BgpNetwork.C.tcp.conn-50 tcpRcvQueueDrops:vector:mean -nan
scalar BgpNetwork.C.tcp.conn-50 tcpRcvQueueDrops:vector:stddev nan
scalar BgpNetwork.C.tcp.conn-50 tcpRcvQueueDrops:vector:min inf
scalar BgpNetwork.C.tcp.conn-50 tcpRcvQueueDrops:vector:max -inf
scalar BgpNetwork.C.tcp.conn-50 tcpRcvQueueDrops:vector:starttime nan
scalar BgpNetwork.C.tcp.conn-50 tcpRcvQueueDrops:vector:endtime nan
scalar BgpNetwork.C.tcp.conn-50 tcpRcvPayloadBytes:vector:count 0
scalar BgpNetwork.C.tcp.conn-50 tcpRcvPayloadBytes:vector:sum 0
scalar BgpNetwork.C.tcp.conn-50 tcpRcvPayloadBytes:vector:sumweights 0
scalar BgpNetwork.C.tcp.conn-50 tcpRcvPayloadBytes:vector:mean -nan
scalar BgpNetwork.C.tcp.conn-50 tcpRcvPayloadBytes:vector:stddev nan
scalar BgpNetwork.C.tcp.conn-50 tcpRcvPayloadBytes:vector:min inf
scalar BgpNetwork.C.tcp.conn-50 tcpRcvPayloadBytes:vector:max -inf
scalar BgpNetwork.C.tcp.conn-50 tcpRcvPayloadBytes:vector:starttime nan
scalar BgpNetwork.C.tcp.conn-50 tcpRcvPayloadBytes:vector:endtime nan
scalar BgpNetwork.C.tcp.conn-50 cwnd:vector:count 0
scalar BgpNetwork.C.tcp.conn-50 cwnd:vector:sum 0
scalar BgpNetwork.C.tcp.conn-50 cwnd:vector:sumweights 0
scalar BgpNetwork.C.tcp.conn-50 cwnd:vector:mean -nan
scalar BgpNetwork.C.tcp.conn-50 cwnd:vector:stddev nan
scalar BgpNetwork.C.tcp.conn-50 cwnd:vector:min inf
scalar BgpNetwork.C.tcp.conn-50 cwnd:vector:max -inf
scalar BgpNetwork.C.tcp.conn-50 cwnd:vector:starttime nan
scalar BgpNetwork.C.tcp.conn-50 cwnd:vector:endtime nan
scalar BgpNetwork.C.tcp.conn-50 ssthresh:vector:count 0
scalar BgpNetwork.C.tcp.conn-50 ssthresh:vector:sum 0
scalar BgpNetwork.C.tcp.conn-50 ssthresh:vector:sumweights 0
scalar BgpNetwork.C.tcp.conn-50 ssthresh:vector:mean -nan
scalar BgpNetwork.C.tcp.conn-50 ssthresh:vector:stddev nan
scalar BgpNetwork.C.tcp.conn-50 ssthresh:vector:min inf
scalar BgpNetwork.C.tcp.conn-50 ssthresh:vector:max -inf
scalar BgpNetwork.C.tcp.conn-50 ssthresh:vector:starttime nan
scalar BgpNetwork.C.tcp.conn-50 ssthresh:vector:endtime nan
scalar BgpNetwork.C.tcp.conn-50 rtt:vector:count 0
scalar BgpNetwork.C.tcp.conn-50 rtt:vector:sum 0
scalar BgpNetwork.C.tcp.conn-50 rtt:vector:sumweights 0
scalar BgpNetwork.C.tcp.conn-50 rtt:vector:mean -nan
scalar BgpNetwork.C.tcp.conn-50 rtt:vector:stddev nan
scalar BgpNetwork.C.tcp.conn-50 rtt:vector:min inf
scalar BgpNetwork.C.tcp.conn-50 rtt:vector:max -inf
scalar BgpNetwork.C.tcp.conn-50 rtt:vector:starttime nan
scalar BgpNetwork.C.tcp.conn-50 rtt:vector:endtime nan
scalar BgpNetwork.C.tcp.conn-50 srtt:vector:count 0
scalar BgpNetwork.C.tcp.conn-50 srtt:vector:sum 0
scalar BgpNetwork.C.tcp.conn-50 srtt:vector:sumweights 0
scalar BgpNetwork.C.tcp.conn-50 srtt:vector:mean -nan
scalar BgpNetwork.C.tcp.conn-50 srtt:vector:stddev nan
scalar BgpNetwork.C.tcp.conn-50 srtt:vector:min inf
scalar BgpNetwork.C.tcp.conn-50 srtt:vector:max -inf
scalar BgpNetwork.C.tcp.conn-50 srtt:vector:starttime nan
scalar BgpNetwork.C.tcp.conn-50 srtt:vector:endtime nan
scalar BgpNetwork.C.tcp.conn-50 rttvar:vector:count 0
scalar BgpNetwork.C.tcp.conn-50 rttvar:vector:sum 0
scalar BgpNetwork.C.tcp.conn-50 rttvar:vector:sumweights 0
scalar BgpNetwork.C.tcp.conn-50 rttvar:vector:mean -nan
scalar BgpNetwork.C.tcp.conn-50 rttvar:vector:stddev nan
scalar BgpNetwork.C.tcp.conn-50 rttvar:vector:min inf
scalar BgpNetwork.C.tcp.conn-50 rttvar:vector:max -inf
scalar BgpNetwork.C.tcp.conn-50 rttvar:vector:starttime nan
scalar BgpNetwork.C.tcp.conn-50 rttvar:vector:endtime nan
scalar BgpNetwork.C.tcp.conn-50 rto:vector:count 0
scalar BgpNetwork.C.tcp.conn-50 rto:vector:sum 0
scalar BgpNetwork.C.tcp.conn-50 rto:vector:sumweights 0
scalar BgpNetwork.C.tcp.conn-50 rto:vector:mean -nan
scalar BgpNetwork.C.tcp.conn-50 rto:vector:stddev nan
scalar BgpNetwork.C.tcp.conn-50 rto:vector:min inf
scalar BgpNetwork.C.tcp.conn-50 rto:vector:max -inf
scalar BgpNetwork.C.tcp.conn-50 rto:vector:starttime nan
scalar BgpNetwork.C.tcp.conn-50 rto:vector:endtime nan
scalar BgpNetwork.C.tcp.conn-50 numRtos:vector:count 0
scalar BgpNetwork.C.tcp.conn-50 numRtos:vector:sum 0
scalar BgpNetwork.C.tcp.conn-50 numRtos:vector:sumweights 0
scalar BgpNetwork.C.tcp.conn-50 numRtos:vector:mean -nan
scalar BgpNetwork.C.tcp.conn-50 numRtos:vector:stddev nan
scalar BgpNetwork.C.tcp.conn-50 numRtos:vector:min inf
scalar BgpNetwork.C.tcp.conn-50 numRtos:vector:max -inf
scalar BgpNetwork.C.tcp.conn-50 numRtos:vector:starttime nan
scalar BgpNetwork.C.tcp.conn-50 numRtos:vector:endtime nan
scalar BgpNetwork.C.tcp.conn-50 load:vector:count 0
scalar BgpNetwork.C.tcp.conn-50 load:vector:sum 0
scalar BgpNetwork.C.tcp.conn-50 load:vector:sumweights 0
scalar BgpNetwork.C.tcp.conn-50 load:vector:mean -nan
scalar BgpNetwork.C.tcp.conn-50 load:vector:stddev nan
scalar BgpNetwork.C.tcp.conn-50 load:vector:min inf
scalar BgpNetwork.C.tcp.conn-50 load:vector:max -inf
scalar BgpNetwork.C.tcp.conn-50 load:vector:starttime nan
scalar BgpNetwork.C.tcp.conn-50 load:vector:endtime nan
scalar BgpNetwork.C.tcp.conn-50 calcLoad:vector:count 0
scalar BgpNetwork.C.tcp.conn-50 calcLoad:vector:sum 0
scalar BgpNetwork.C.tcp.conn-50 calcLoad:vector:sumweights 0
scalar BgpNetwork.C.tcp.conn-50 calcLoad:vector:mean -nan
scalar BgpNetwork.C.tcp.conn-50 calcLoad:vector:stddev nan
scalar BgpNetwork.C.tcp.conn-50 calcLoad:vector:min inf
scalar BgpNetwork.C.tcp.conn-50 calcLoad:vector:max -inf
scalar BgpNetwork.C.tcp.conn-50 calcLoad:vector:starttime nan
scalar BgpNetwork.C.tcp.conn-50 calcLoad:vector:endtime nan
scalar BgpNetwork.C.tcp.conn-50 markingProb:vector:count 0
scalar BgpNetwork.C.tcp.conn-50 markingProb:vector:sum 0
scalar BgpNetwork.C.tcp.conn-50 markingProb:vector:sumweights 0
scalar BgpNetwork.C.tcp.conn-50 markingProb:vector:mean -nan
scalar BgpNetwork.C.tcp.conn-50 markingProb:vector:stddev nan
scalar BgpNetwork.C.tcp.conn-50 markingProb:vector:min inf
scalar BgpNetwork.C.tcp.conn-50 markingProb:vector:max -inf
scalar BgpNetwork.C.tcp.conn-50 markingProb:vector:starttime nan
scalar BgpNetwork.C.tcp.conn-50 markingProb:vector:endtime nan

