version 3
run AarfRateControl-0-20230511-14:22:19-55069
attr configname AarfRateControl
attr datetime 20230511-14:22:19
attr datetimef 20230511-142219
attr experiment AarfRateControl
attr inifile omnetpp.ini
attr iterationvars ""
attr iterationvarsd ""
attr iterationvarsf ""
attr measurement ""
attr network RateControlShowcase
attr processid 55069
attr repetition 0
attr replication #0
attr resultdir results
attr runnumber 0
attr seedset 1
config **.param-recording false
config **.vector-recording false
config image-path /home/levy/workspace/inet/images
config output-scalar-file results/omnetpp.ini-AarfRateControl-#0.sca
config sim-time-limit 25s
config seed-set 1
config *.*Host.wlan[*].mac.*.rateControl.typename AarfRateControl
config *.*Host.wlan[*].mac.*.rateControl.initialRate 54Mbps
config *.*Host.wlan[*].mac.*.rateSelection.dataFrameBitrate -1bps
config *.*Host.wlan[*].mac.dcf.rateControl.increaseThreshold 20
config *.*Host.wlan[*].mac.dcf.rateControl.decreaseThreshold 5
config *.*Host.wlan[*].mac.dcf.rateControl.interval 1s
config network RateControlShowcase
config sim-time-limit 25s
config *.*Host.mobility.constraintAreaMinX 0m
config *.*Host.mobility.constraintAreaMinY 0m
config *.*Host.mobility.constraintAreaMinZ 0m
config *.*Host.mobility.constraintAreaMaxX 1300m
config *.*Host.mobility.constraintAreaMaxY 400m
config *.*Host.mobility.constraintAreaMaxZ 50m
config *.radioMedium.obstacleLoss.typename DielectricObstacleLoss
config *.radioMedium.backgroundNoise.power -100dBm
config *.*Host.*.arp.typename GlobalArp
config *.configurator.addStaticRoutes false
config *.physicalEnvironment.config "xmldoc(\"obstacles.xml\")"
config *.physicalEnvironment.spaceMinX 0m
config *.physicalEnvironment.spaceMinY 0m
config *.physicalEnvironment.spaceMinZ 0m
config *.physicalEnvironment.spaceMaxX 1300m
config *.physicalEnvironment.spaceMaxY 400m
config *.physicalEnvironment.spaceMaxZ 50m
config *.visualizer.obstacleLossVisualizer.displayIntersections true
config *.visualizer.obstacleLossVisualizer.fadeOutTime 40ms
config *.visualizer.obstacleLossVisualizer.fadeOutMode "\"animationTime\""
config *.visualizer.dataLinkVisualizer.displayLinks true
config *.visualizer.dataLinkVisualizer.packetFilter "\"Udp*\""
config *.visualizer.dataLinkVisualizer.fadeOutMode "\"animationTime\""
config *.visualizer.dataLinkVisualizer.fadeOutTime 200ms
config *.*Host.wlan[*].opMode "\"g(erp)\""
config *.*Host.wlan[*].radio.transmitter.power 50mW
config *.*Host.wlan[*].mgmt.typename Ieee80211MgmtAdhoc
config *.*Host.wlan[*].agent.typename ""
config *.*Host.numApps 1
config *.sourceHost.app[0].typename UdpBasicApp
config *.sourceHost.app[0].destAddresses "\"sinkHost\""
config *.sourceHost.app[0].destPort 5000
config *.sourceHost.app[0].messageLength 1000B
config *.sourceHost.app[0].sendInterval 0.1ms
config *.sinkHost.app[0].typename UdpSink
config *.sinkHost.app[0].localPort 5000
config *.*Host.mobility.typename RectangleMobility
config *.sourceHost.mobility.startPos 0
config *.sourceHost.mobility.speed 200mps
config *.sinkHost.mobility.startPos 3
config *.sinkHost.mobility.speed 100mps

scalar RateControlShowcase.sourceHost.lo[0].lo rcvdPkFromHl:count 0
attr interpolationmode none
attr recordingmode count
attr source packetReceivedFromUpper
attr title "packets received from higher layer, count"
scalar RateControlShowcase.sourceHost.lo[0].lo rcvdPkFromHl:sum(packetBytes) 0
attr interpolationmode none
attr recordingmode sum(packetBytes)
attr source packetReceivedFromUpper
attr title "packets received from higher layer, sum(packetBytes)"
scalar RateControlShowcase.sourceHost.lo[0].lo passedUpPk:count 0
attr interpolationmode none
attr recordingmode count
attr source packetSentToUpper
attr title "packets passed to higher layer, count"
scalar RateControlShowcase.sourceHost.lo[0].lo passedUpPk:sum(packetBytes) 0
attr interpolationmode none
attr recordingmode sum(packetBytes)
attr source packetSentToUpper
attr title "packets passed to higher layer, sum(packetBytes)"
scalar RateControlShowcase.sourceHost.lo[0] packetDropInterfaceDown:count 0
attr interpolationmode none
attr recordingmode count
attr source packetDropReasonIsInterfaceDown(packetDropped)
attr title "packet drops: interface down, count"
scalar RateControlShowcase.sourceHost.lo[0] packetDropInterfaceDown:sum(packetBytes) 0
attr interpolationmode none
attr recordingmode sum(packetBytes)
attr source packetDropReasonIsInterfaceDown(packetDropped)
attr title "packet drops: interface down, sum(packetBytes)"
scalar RateControlShowcase.sourceHost.lo[0] packetDropNoCarrier:count 0
attr interpolationmode none
attr recordingmode count
attr source packetDropReasonIsNoCarrier(packetDropped)
attr title "packet drops: no carrier, count"
scalar RateControlShowcase.sourceHost.lo[0] packetDropNoCarrier:sum(packetBytes) 0
attr interpolationmode none
attr recordingmode sum(packetBytes)
attr source packetDropReasonIsNoCarrier(packetDropped)
attr title "packet drops: no carrier, sum(packetBytes)"
scalar RateControlShowcase.sourceHost.wlan[0].mac.dcf.channelAccess.pendingQueue queueLength:last 100
attr autoWarmupFilter false
attr interpolationmode sample-hold
attr recordingmode last
attr source "warmup(atomic(constant0(packetPushEnded) + count(packetPushStarted) - count(packetPulled) - count(packetRemoved) - count(packetDropped)))"
attr title "queue length, last"
attr unit pk
scalar RateControlShowcase.sourceHost.wlan[0].mac.dcf.channelAccess.pendingQueue queueLength:max 100
attr autoWarmupFilter false
attr interpolationmode sample-hold
attr recordingmode max
attr source "warmup(atomic(constant0(packetPushEnded) + count(packetPushStarted) - count(packetPulled) - count(packetRemoved) - count(packetDropped)))"
attr title "queue length, max"
attr unit pk
scalar RateControlShowcase.sourceHost.wlan[0].mac.dcf.channelAccess.pendingQueue queueLength:timeavg 99.882036484151
attr autoWarmupFilter false
attr interpolationmode sample-hold
attr recordingmode timeavg
attr source "warmup(atomic(constant0(packetPushEnded) + count(packetPushStarted) - count(packetPulled) - count(packetRemoved) - count(packetDropped)))"
attr title "queue length, timeavg"
attr unit pk
scalar RateControlShowcase.sourceHost.wlan[0].mac.dcf.channelAccess.pendingQueue queueBitLength:last 851200
attr autoWarmupFilter false
attr interpolationmode sample-hold
attr recordingmode last
attr source "warmup(atomic(constant0(packetPushEnded) + sum(packetLength(packetPushStarted)) - sum(packetLength(packetPulled)) - sum(packetLength(packetRemoved)) - sum(packetLength(packetDropped))))"
attr title "queue bit length, last"
attr unit b
scalar RateControlShowcase.sourceHost.wlan[0].mac.dcf.channelAccess.pendingQueue queueBitLength:max 851200
attr autoWarmupFilter false
attr interpolationmode sample-hold
attr recordingmode max
attr source "warmup(atomic(constant0(packetPushEnded) + sum(packetLength(packetPushStarted)) - sum(packetLength(packetPulled)) - sum(packetLength(packetRemoved)) - sum(packetLength(packetDropped))))"
attr title "queue bit length, max"
attr unit b
scalar RateControlShowcase.sourceHost.wlan[0].mac.dcf.channelAccess.pendingQueue queueBitLength:timeavg 850195.89455018
attr autoWarmupFilter false
attr interpolationmode sample-hold
attr recordingmode timeavg
attr source "warmup(atomic(constant0(packetPushEnded) + sum(packetLength(packetPushStarted)) - sum(packetLength(packetPulled)) - sum(packetLength(packetRemoved)) - sum(packetLength(packetDropped))))"
attr title "queue bit length, timeavg"
attr unit b
statistic RateControlShowcase.sourceHost.wlan[0].mac.dcf.channelAccess.pendingQueue queueingTime:histogram
field count 44111
field mean 0.05657120473574
field stddev 0.19302663423101
field min 0
field max 3.834832871647
field sum 2495.4124120982
field sqrsum 1784.6753944247
attr interpolationmode none
attr recordingmode histogram
attr source queueingTime(packetPulled)
attr title "queueing times"
attr unit s
bin	-inf	0
bin	0	43314
bin	0.064	336
bin	0.128	10
bin	0.192	9
bin	0.256	9
bin	0.32	7
bin	0.384	10
bin	0.448	8
bin	0.512	9
bin	0.576	9
bin	0.64	8
bin	0.704	10
bin	0.768	9
bin	0.832	7
bin	0.896	9
bin	0.96	86
bin	1.024	7
bin	1.088	5
bin	1.152	8
bin	1.216	4
bin	1.28	8
bin	1.344	5
bin	1.408	6
bin	1.472	6
bin	1.536	6
bin	1.6	7
bin	1.664	5
bin	1.728	7
bin	1.792	5
bin	1.856	6
bin	1.92	4
bin	1.984	8
bin	2.048	5
bin	2.112	5
bin	2.176	8
bin	2.24	4
bin	2.304	6
bin	2.368	6
bin	2.432	6
bin	2.496	7
bin	2.56	10
bin	2.624	42
bin	2.688	3
bin	2.752	3
bin	2.816	3
bin	2.88	4
bin	2.944	2
bin	3.008	3
bin	3.072	3
bin	3.136	4
bin	3.2	2
bin	3.264	4
bin	3.328	2
bin	3.392	4
bin	3.456	2
bin	3.52	4
bin	3.584	3
bin	3.648	2
bin	3.712	4
bin	3.776	13
bin	3.84	0
scalar RateControlShowcase.sourceHost.wlan[0].mac.dcf.channelAccess.pendingQueue outgoingPackets:count 44111
attr recordingmode count
attr source packetPulled
attr title "outgoing packets, count"
attr unit pk
scalar RateControlShowcase.sourceHost.wlan[0].mac.dcf.channelAccess.pendingQueue outgoingPacketLengths:sum 375472832
attr interpolationmode none
attr recordingmode sum
attr source packetLength(packetPulled)
attr title "outgoing packet lengths, sum"
attr unit b
statistic RateControlShowcase.sourceHost.wlan[0].mac.dcf.channelAccess.pendingQueue outgoingPacketLengths:histogram
field count 44111
field mean 8512
field stddev 0
field min 8512
field max 8512
field sum 375472832
field sqrsum 3196024745984
attr interpolationmode none
attr recordingmode histogram
attr source packetLength(packetPulled)
attr title "outgoing packet lengths"
attr unit b
bin	-inf	0
bin	8511	0
bin	8512	44111
bin	8513	0
statistic RateControlShowcase.sourceHost.wlan[0].mac.dcf.channelAccess.pendingQueue flowQueueingTime:histogram
field count 0
field mean -nan
field stddev nan
field min nan
field max nan
field sum 0
field sqrsum 0
attr interpolationmode none
attr recordingmode histogram
attr source queueingTime(demuxFlow(packetPulled))
attr title "flow queueing times"
attr unit s
bin	-inf	0
bin	0	0
bin	1	0
scalar RateControlShowcase.sourceHost.wlan[0].mac.dcf.channelAccess.pendingQueue incomingPackets:count 250000
attr recordingmode count
attr source packetPushStarted
attr title "incoming packets, count"
attr unit pk
scalar RateControlShowcase.sourceHost.wlan[0].mac.dcf.channelAccess.pendingQueue incomingPacketLengths:sum 2128000000
attr interpolationmode none
attr recordingmode sum
attr source packetLength(packetPushStarted)
attr title "incoming packet lengths, sum"
attr unit b
statistic RateControlShowcase.sourceHost.wlan[0].mac.dcf.channelAccess.pendingQueue incomingPacketLengths:histogram
field count 250000
field mean 8512
field stddev 0
field min 8512
field max 8512
field sum 2128000000
field sqrsum 18113536000000
attr interpolationmode none
attr recordingmode histogram
attr source packetLength(packetPushStarted)
attr title "incoming packet lengths"
attr unit b
bin	-inf	0
bin	8511	0
bin	8512	250000
bin	8513	0
scalar RateControlShowcase.sourceHost.wlan[0].mac.dcf.channelAccess.pendingQueue droppedPacketsQueueOverflow:count 205789
attr interpolationmode none
attr recordingmode count
attr source packetDropReasonIsQueueOverflow(packetDropped)
attr title "dropped packets: queue overflow, count"
attr unit pk
scalar RateControlShowcase.sourceHost.wlan[0].mac.dcf.channelAccess.pendingQueue droppedPacketLengthsQueueOverflow:sum 1751675968
attr interpolationmode none
attr recordingmode sum
attr source packetLength(packetDropReasonIsQueueOverflow(packetDropped))
attr title "dropped packet lengths: queue overflow, sum"
attr unit b
statistic RateControlShowcase.sourceHost.wlan[0].mac.dcf.channelAccess.inProgressFrames queueingTime:histogram
field count 44109
field mean 0.0010204236386215
field stddev 0.0050492029371654
field min 0.000232675502
field max 0.103622
field sum 45.009866275956
field sqrsum 1.1704383453816
attr interpolationmode none
attr recordingmode histogram
attr source queueingTime(packetDequeued)
attr title "queueing times"
bin	-inf	0
bin	0.00013	43745
bin	0.00229	162
bin	0.00445	27
bin	0.00661	0
bin	0.00877	0
bin	0.01093	1
bin	0.01309	1
bin	0.01525	2
bin	0.01741	0
bin	0.01957	0
bin	0.02173	1
bin	0.02389	0
bin	0.02605	0
bin	0.02821	0
bin	0.03037	2
bin	0.03253	1
bin	0.03469	0
bin	0.03685	0
bin	0.03901	1
bin	0.04117	0
bin	0.04333	0
bin	0.04549	0
bin	0.04765	0
bin	0.04981	0
bin	0.05197	0
bin	0.05413	0
bin	0.05629	0
bin	0.05845	1
bin	0.06061	1
bin	0.06277	6
bin	0.06493	4
bin	0.06709	3
bin	0.06925	6
bin	0.07141	13
bin	0.07357	6
bin	0.07573	8
bin	0.07789	12
bin	0.08005	19
bin	0.08221	16
bin	0.08437	14
bin	0.08653	16
bin	0.08869	12
bin	0.09085	12
bin	0.09301	7
bin	0.09517	1
bin	0.09733	4
bin	0.09949	2
bin	0.10165	3
bin	0.10381	0
scalar RateControlShowcase.sourceHost.wlan[0].mac.dcf.channelAccess.inProgressFrames queueLength:max 2
attr autoWarmupFilter false
attr interpolationmode sample-hold
attr recordingmode max
attr source "warmup(count(packetEnqueued) - count(packetDequeued))"
attr title "queue length, max"
scalar RateControlShowcase.sourceHost.wlan[0].mac.dcf.channelAccess.inProgressFrames queueLength:timeavg 1.8004182929731
attr autoWarmupFilter false
attr interpolationmode sample-hold
attr recordingmode timeavg
attr source "warmup(count(packetEnqueued) - count(packetDequeued))"
attr title "queue length, timeavg"
scalar RateControlShowcase.sourceHost.wlan[0].mac.dcf.channelAccess.contention channelAccessGranted:count 46937
attr recordingmode count
attr title "channel access granted, count"
scalar RateControlShowcase.sourceHost.wlan[0].mac.dcf.channelAccess.contention stateChanged:count 375496
attr enum IDLE,DEFER,IFS_AND_BACKOFF
attr interpolationmode none
attr recordingmode count
attr title "contention state changed, count"
attr type enum
scalar RateControlShowcase.sourceHost.wlan[0].mac.dcf.channelAccess channelOwnershipChanged:count 93873
attr interpolationmode sample-hold
attr recordingmode count
attr title "channel ownership, count"
scalar RateControlShowcase.sourceHost.wlan[0].mac.dcf.originatorMacDataService packetAggregated:count 0
attr recordingmode count
attr title "packets aggregated, count"
scalar RateControlShowcase.sourceHost.wlan[0].mac.dcf.originatorMacDataService packetFragmented:count 0
attr recordingmode count
attr title "packets fragmented, count"
scalar RateControlShowcase.sourceHost.wlan[0].mac.dcf.recipientMacDataService packetDeaggregated:count 0
attr recordingmode count
attr title "packets deaggregated, count"
scalar RateControlShowcase.sourceHost.wlan[0].mac.dcf.recipientMacDataService packetDefragmented:count 0
attr recordingmode count
attr title "packets defragmented, count"
scalar RateControlShowcase.sourceHost.wlan[0].mac.dcf.recipientMacDataService packetDropDuplicateDetected:count 0
attr interpolationmode none
attr recordingmode count
attr source packetDropReasonIsDuplicateDetected(packetDropped)
attr title "packet drops: duplicate detected, count"
scalar RateControlShowcase.sourceHost.wlan[0].mac.dcf.recipientMacDataService packetDropDuplicateDetected:sum(packetBytes) 0
attr interpolationmode none
attr recordingmode sum(packetBytes)
attr source packetDropReasonIsDuplicateDetected(packetDropped)
attr title "packet drops: duplicate detected, sum(packetBytes)"
scalar RateControlShowcase.sourceHost.wlan[0].mac.dcf.recoveryProcedure retryLimitReached:count 169
attr recordingmode count
attr title "retry limit reached, count"
scalar RateControlShowcase.sourceHost.wlan[0].mac.dcf frameSequenceFinished:count 46936
attr recordingmode count
attr title "finished frame sequences, count"
statistic RateControlShowcase.sourceHost.wlan[0].mac.dcf frameSequenceDuration:histogram
field count 46936
field mean 0.00031624720388128
field stddev 0.00020362946150324
field min 0.00023
field max 0.001518293233
field sum 14.843378761372
field sqrsum 0.0066403348140197
attr recordingmode histogram
attr source frameSequenceDuration(frameSequenceFinished)
attr title "frame sequence durations"
bin	-inf	0
bin	0.00022999	22084
bin	0.00026023	0
bin	0.00029047	21260
bin	0.00032071	0
bin	0.00035095	0
bin	0.00038119	0
bin	0.00041143	2165
bin	0.00044167	0
bin	0.00047191	0
bin	0.00050215	0
bin	0.00053239	63
bin	0.00056263	0
bin	0.00059287	0
bin	0.00062311	0
bin	0.00065335	0
bin	0.00068359	0
bin	0.00071383	0
bin	0.00074407	0
bin	0.00077431	63
bin	0.00080455	0
bin	0.00083479	0
bin	0.00086503	0
bin	0.00089527	0
bin	0.00092551	0
bin	0.00095575	0
bin	0.00098599	0
bin	0.00101623	63
bin	0.00104647	0
bin	0.00107671	0
bin	0.00110695	0
bin	0.00113719	0
bin	0.00116743	0
bin	0.00119767	0
bin	0.00122791	0
bin	0.00125815	0
bin	0.00128839	0
bin	0.00131863	0
bin	0.00134887	0
bin	0.00137911	0
bin	0.00140935	0
bin	0.00143959	0
bin	0.00146983	1175
bin	0.00150007	63
bin	0.00153031	0
statistic RateControlShowcase.sourceHost.wlan[0].mac.dcf frameSequenceNumPackets:histogram
field count 46936
field mean 2
field stddev 0
field min 2
field max 2
field sum 93872
field sqrsum 187744
attr recordingmode histogram
attr source frameSequenceNumPackets(frameSequenceFinished)
attr title "frame sequences: number of packets"
bin	-inf	0
bin	1	0
bin	2	46936
bin	3	0
scalar RateControlShowcase.sourceHost.wlan[0].mac.dcf packetReceivedFromPeer:count 43940
attr interpolationmode none
attr recordingmode count
attr title "packets received, count"
scalar RateControlShowcase.sourceHost.wlan[0].mac.dcf packetReceivedFromPeer:sum(packetBytes) 615160
attr interpolationmode none
attr recordingmode sum(packetBytes)
attr title "packets received, sum(packetBytes)"
scalar RateControlShowcase.sourceHost.wlan[0].mac.dcf packetReceivedFromPeerUnicast:count 43940
attr interpolationmode none
attr recordingmode count
attr source ieee80211Unicast(packetReceivedFromPeer)
attr title "packets received: unicast, count"
scalar RateControlShowcase.sourceHost.wlan[0].mac.dcf packetReceivedFromPeerUnicast:sum(packetBytes) 615160
attr interpolationmode none
attr recordingmode sum(packetBytes)
attr source ieee80211Unicast(packetReceivedFromPeer)
attr title "packets received: unicast, sum(packetBytes)"
scalar RateControlShowcase.sourceHost.wlan[0].mac.dcf packetReceivedFromPeerMulticast:count 0
attr interpolationmode none
attr recordingmode count
attr source ieee80211Multicast(packetReceivedFromPeer)
attr title "packets received: multicast, count"
scalar RateControlShowcase.sourceHost.wlan[0].mac.dcf packetReceivedFromPeerMulticast:sum(packetBytes) 0
attr interpolationmode none
attr recordingmode sum(packetBytes)
attr source ieee80211Multicast(packetReceivedFromPeer)
attr title "packets received: multicast, sum(packetBytes)"
scalar RateControlShowcase.sourceHost.wlan[0].mac.dcf packetReceivedFromPeerBroadcast:count 0
attr interpolationmode none
attr recordingmode count
attr source ieee80211Broadcast(packetReceivedFromPeer)
attr title "packets received: broadcast, count"
scalar RateControlShowcase.sourceHost.wlan[0].mac.dcf packetReceivedFromPeerBroadcast:sum(packetBytes) 0
attr interpolationmode none
attr recordingmode sum(packetBytes)
attr source ieee80211Broadcast(packetReceivedFromPeer)
attr title "packets received: broadcast, sum(packetBytes)"
scalar RateControlShowcase.sourceHost.wlan[0].mac.dcf packetReceivedFromPeerWithRetry:count 0
attr interpolationmode none
attr recordingmode count
attr source ieee80211Retry(packetReceivedFromPeer)
attr title "packets received: with retry, count"
scalar RateControlShowcase.sourceHost.wlan[0].mac.dcf packetReceivedFromPeerWithRetry:sum(packetBytes) 0
attr interpolationmode none
attr recordingmode sum(packetBytes)
attr source ieee80211Retry(packetReceivedFromPeer)
attr title "packets received: with retry, sum(packetBytes)"
scalar RateControlShowcase.sourceHost.wlan[0].mac.dcf packetReceivedFromPeerWithoutRetry:count 43940
attr interpolationmode none
attr recordingmode count
attr source ieee80211NotRetry(packetReceivedFromPeer)
attr title "packets received: without retry, count"
scalar RateControlShowcase.sourceHost.wlan[0].mac.dcf packetReceivedFromPeerWithoutRetry:sum(packetBytes) 615160
attr interpolationmode none
attr recordingmode sum(packetBytes)
attr source ieee80211NotRetry(packetReceivedFromPeer)
attr title "packets received: without retry, sum(packetBytes)"
scalar RateControlShowcase.sourceHost.wlan[0].mac.dcf packetSentToPeer:count 46936
attr interpolationmode none
attr recordingmode count
attr title "packets sent, count"
scalar RateControlShowcase.sourceHost.wlan[0].mac.dcf packetSentToPeer:sum(packetBytes) 49939904
attr interpolationmode none
attr recordingmode sum(packetBytes)
attr title "packets sent, sum(packetBytes)"
scalar RateControlShowcase.sourceHost.wlan[0].mac.dcf packetSentToPeerUnicast:count 46936
attr interpolationmode none
attr recordingmode count
attr source ieee80211Unicast(packetSentToPeer)
attr title "packets sent: unicast, count"
scalar RateControlShowcase.sourceHost.wlan[0].mac.dcf packetSentToPeerUnicast:sum(packetBytes) 49939904
attr interpolationmode none
attr recordingmode sum(packetBytes)
attr source ieee80211Unicast(packetSentToPeer)
attr title "packets sent: unicast, sum(packetBytes)"
scalar RateControlShowcase.sourceHost.wlan[0].mac.dcf packetSentToPeerMulticast:count 0
attr interpolationmode none
attr recordingmode count
attr source ieee80211Multicast(packetSentToPeer)
attr title "packets sent: multicast, count"
scalar RateControlShowcase.sourceHost.wlan[0].mac.dcf packetSentToPeerMulticast:sum(packetBytes) 0
attr interpolationmode none
attr recordingmode sum(packetBytes)
attr source ieee80211Multicast(packetSentToPeer)
attr title "packets sent: multicast, sum(packetBytes)"
scalar RateControlShowcase.sourceHost.wlan[0].mac.dcf packetSentToPeerBroadcast:count 0
attr interpolationmode none
attr recordingmode count
attr source ieee80211Broadcast(packetSentToPeer)
attr title "packets sent: broadcast , count"
scalar RateControlShowcase.sourceHost.wlan[0].mac.dcf packetSentToPeerBroadcast:sum(packetBytes) 0
attr interpolationmode none
attr recordingmode sum(packetBytes)
attr source ieee80211Broadcast(packetSentToPeer)
attr title "packets sent: broadcast , sum(packetBytes)"
scalar RateControlShowcase.sourceHost.wlan[0].mac.dcf packetSentToPeerWithRetry:count 2827
attr interpolationmode none
attr recordingmode count
attr source ieee80211Retry(packetSentToPeer)
attr title "packets sent: with retry, count"
scalar RateControlShowcase.sourceHost.wlan[0].mac.dcf packetSentToPeerWithRetry:sum(packetBytes) 3007928
attr interpolationmode none
attr recordingmode sum(packetBytes)
attr source ieee80211Retry(packetSentToPeer)
attr title "packets sent: with retry, sum(packetBytes)"
scalar RateControlShowcase.sourceHost.wlan[0].mac.dcf packetSentToPeerWithoutRetry:count 44109
attr interpolationmode none
attr recordingmode count
attr source ieee80211NotRetry(packetSentToPeer)
attr title "packets sent: without retry, count"
scalar RateControlShowcase.sourceHost.wlan[0].mac.dcf packetSentToPeerWithoutRetry:sum(packetBytes) 46931976
attr interpolationmode none
attr recordingmode sum(packetBytes)
attr source ieee80211NotRetry(packetSentToPeer)
attr title "packets sent: without retry, sum(packetBytes)"
scalar RateControlShowcase.sourceHost.wlan[0].mac.dcf packetDrop:count 205958
attr interpolationmode none
attr recordingmode count
attr source packetDropped
attr title "packet drops, count"
scalar RateControlShowcase.sourceHost.wlan[0].mac.dcf packetDrop:sum(packetBytes) 219139312
attr interpolationmode none
attr recordingmode sum(packetBytes)
attr source packetDropped
attr title "packet drops, sum(packetBytes)"
scalar RateControlShowcase.sourceHost.wlan[0].mac.dcf packetDropNotAddressedToUs:count 0
attr interpolationmode none
attr recordingmode count
attr source packetDropReasonIsNotAddressedToUs(packetDropped)
attr title "packet drops: not addressed to us, count"
scalar RateControlShowcase.sourceHost.wlan[0].mac.dcf packetDropNotAddressedToUs:sum(packetBytes) 0
attr interpolationmode none
attr recordingmode sum(packetBytes)
attr source packetDropReasonIsNotAddressedToUs(packetDropped)
attr title "packet drops: not addressed to us, sum(packetBytes)"
scalar RateControlShowcase.sourceHost.wlan[0].mac.dcf packetDropQueueOverflow:count 205789
attr interpolationmode none
attr recordingmode count
attr source packetDropReasonIsQueueOverflow(packetDropped)
attr title "packet drops: queue overflow, count"
scalar RateControlShowcase.sourceHost.wlan[0].mac.dcf packetDropQueueOverflow:sum(packetBytes) 218959496
attr interpolationmode none
attr recordingmode sum(packetBytes)
attr source packetDropReasonIsQueueOverflow(packetDropped)
attr title "packet drops: queue overflow, sum(packetBytes)"
scalar RateControlShowcase.sourceHost.wlan[0].mac.dcf packetDropRetryLimitReached:count 169
attr interpolationmode none
attr recordingmode count
attr source packetDropReasonIsRetryLimitReached(packetDropped)
attr title "packet drops: retry limit reached, count"
scalar RateControlShowcase.sourceHost.wlan[0].mac.dcf packetDropRetryLimitReached:sum(packetBytes) 179816
attr interpolationmode none
attr recordingmode sum(packetBytes)
attr source packetDropReasonIsRetryLimitReached(packetDropped)
attr title "packet drops: retry limit reached, sum(packetBytes)"
scalar RateControlShowcase.sourceHost.wlan[0].mac.dcf linkBroken:count 169
attr interpolationmode none
attr recordingmode count
attr title "link breaks, count"
scalar RateControlShowcase.sourceHost.wlan[0].mac packetReceivedFromLower:count 43940
attr interpolationmode none
attr recordingmode count
attr title "packets received from lower layer, count"
scalar RateControlShowcase.sourceHost.wlan[0].mac packetReceivedFromLower:sum(packetBytes) 615160
attr interpolationmode none
attr recordingmode sum(packetBytes)
attr title "packets received from lower layer, sum(packetBytes)"
scalar RateControlShowcase.sourceHost.wlan[0].mac packetSentToLower:count 46937
attr interpolationmode none
attr recordingmode count
attr title "packets sent to lower layer, count"
scalar RateControlShowcase.sourceHost.wlan[0].mac packetSentToLower:sum(packetBytes) 49940968
attr interpolationmode none
attr recordingmode sum(packetBytes)
attr title "packets sent to lower layer, sum(packetBytes)"
scalar RateControlShowcase.sourceHost.wlan[0].mac packetReceivedFromUpper:count 250000
attr interpolationmode none
attr recordingmode count
attr title "packets received from upper layer, count"
scalar RateControlShowcase.sourceHost.wlan[0].mac packetReceivedFromUpper:sum(packetBytes) 259000000
attr interpolationmode none
attr recordingmode sum(packetBytes)
attr title "packets received from upper layer, sum(packetBytes)"
scalar RateControlShowcase.sourceHost.wlan[0].mac packetSentToUpper:count 0
attr interpolationmode none
attr recordingmode count
attr title "packets sent to upper layer, count"
scalar RateControlShowcase.sourceHost.wlan[0].mac packetSentToUpper:sum(packetBytes) 0
attr interpolationmode none
attr recordingmode sum(packetBytes)
attr title "packets sent to upper layer, sum(packetBytes)"
scalar RateControlShowcase.sourceHost.wlan[0].mac packetDrop:count 205958
attr interpolationmode none
attr recordingmode count
attr source packetDropped
attr title "packet drops, count"
scalar RateControlShowcase.sourceHost.wlan[0].mac packetDrop:sum(packetBytes) 219139312
attr interpolationmode none
attr recordingmode sum(packetBytes)
attr source packetDropped
attr title "packet drops, sum(packetBytes)"
scalar RateControlShowcase.sourceHost.wlan[0].mac packetDropIncorrectlyReceived:count 0
attr interpolationmode none
attr recordingmode count
attr source packetDropReasonIsIncorrectlyReceived(packetDropped)
attr title "packet drops: incorrectly received, count"
scalar RateControlShowcase.sourceHost.wlan[0].mac packetDropIncorrectlyReceived:sum(packetBytes) 0
attr interpolationmode none
attr recordingmode sum(packetBytes)
attr source packetDropReasonIsIncorrectlyReceived(packetDropped)
attr title "packet drops: incorrectly received, sum(packetBytes)"
scalar RateControlShowcase.sourceHost.wlan[0].mac packetDropNotAddressedToUs:count 0
attr interpolationmode none
attr recordingmode count
attr source packetDropReasonIsNotAddressedToUs(packetDropped)
attr title "packet drops: not addressed to us, count"
scalar RateControlShowcase.sourceHost.wlan[0].mac packetDropNotAddressedToUs:sum(packetBytes) 0
attr interpolationmode none
attr recordingmode sum(packetBytes)
attr source packetDropReasonIsNotAddressedToUs(packetDropped)
attr title "packet drops: not addressed to us, sum(packetBytes)"
scalar RateControlShowcase.sourceHost.wlan[0].mac packetDropQueueOverflow:count 205789
attr interpolationmode none
attr recordingmode count
attr source packetDropReasonIsQueueOverflow(packetDropped)
attr title "packet drops: queue overflow, count"
scalar RateControlShowcase.sourceHost.wlan[0].mac packetDropQueueOverflow:sum(packetBytes) 218959496
attr interpolationmode none
attr recordingmode sum(packetBytes)
attr source packetDropReasonIsQueueOverflow(packetDropped)
attr title "packet drops: queue overflow, sum(packetBytes)"
scalar RateControlShowcase.sourceHost.wlan[0].mac packetDropRetryLimitReached:count 169
attr interpolationmode none
attr recordingmode count
attr source packetDropReasonIsRetryLimitReached(packetDropped)
attr title "packet drops: retry limit reached, count"
scalar RateControlShowcase.sourceHost.wlan[0].mac packetDropRetryLimitReached:sum(packetBytes) 179816
attr interpolationmode none
attr recordingmode sum(packetBytes)
attr source packetDropReasonIsRetryLimitReached(packetDropped)
attr title "packet drops: retry limit reached, sum(packetBytes)"
scalar RateControlShowcase.sourceHost.wlan[0].mac packetDropDuplicateDetected:count 0
attr interpolationmode none
attr recordingmode count
attr source packetDropReasonIsDuplicateDetected(packetDropped)
attr title "packet drops: duplicate detected, count"
scalar RateControlShowcase.sourceHost.wlan[0].mac packetDropDuplicateDetected:sum(packetBytes) 0
attr interpolationmode none
attr recordingmode sum(packetBytes)
attr source packetDropReasonIsDuplicateDetected(packetDropped)
attr title "packet drops: duplicate detected, sum(packetBytes)"
scalar RateControlShowcase.sourceHost.wlan[0].mac packetDropOther:count 0
attr interpolationmode none
attr recordingmode count
attr source packetDropReasonIsOther(packetDropped)
attr title "packet drops: other, count"
scalar RateControlShowcase.sourceHost.wlan[0].mac packetDropOther:sum(packetBytes) 0
attr interpolationmode none
attr recordingmode sum(packetBytes)
attr source packetDropReasonIsOther(packetDropped)
attr title "packet drops: other, sum(packetBytes)"
scalar RateControlShowcase.sourceHost.wlan[0].mac linkBroken:count 169
attr interpolationmode none
attr recordingmode count
attr title "link breaks, count"
statistic RateControlShowcase.sourceHost.wlan[0].radio radioChannel:histogram
field count 1
field mean 0
field stddev nan
field min 0
field max 0
field sum 0
field sqrsum 0
attr interpolationmode sample-hold
attr recordingmode histogram
attr source radioChannelChanged
attr title "Radio channel"
bin	-inf	0
bin	-0.5	0
bin	-0.48	0
bin	-0.46	0
bin	-0.44	0
bin	-0.42	0
bin	-0.4	0
bin	-0.38	0
bin	-0.36	0
bin	-0.34	0
bin	-0.32	0
bin	-0.3	0
bin	-0.28	0
bin	-0.26	0
bin	-0.24	0
bin	-0.22	0
bin	-0.2	0
bin	-0.18	0
bin	-0.16	0
bin	-0.14	0
bin	-0.12	0
bin	-0.1	0
bin	-0.08	0
bin	-0.06	0
bin	-0.04	0
bin	-0.02	0
bin	0	1
bin	0.02	0
bin	0.04	0
bin	0.06	0
bin	0.08	0
bin	0.1	0
bin	0.12	0
bin	0.14	0
bin	0.16	0
bin	0.18	0
bin	0.2	0
bin	0.22	0
bin	0.24	0
bin	0.26	0
bin	0.28	0
bin	0.3	0
bin	0.32	0
bin	0.34	0
bin	0.36	0
bin	0.38	0
bin	0.4	0
bin	0.42	0
bin	0.44	0
bin	0.46	0
bin	0.48	0
bin	0.5	0
scalar RateControlShowcase.sourceHost.wlan[0].radio radioMode:count 93876
attr interpolationmode sample-hold
attr recordingmode count
attr source radioModeChanged
attr title "Radio mode, count"
scalar RateControlShowcase.sourceHost.wlan[0].radio receptionState:count 181770
attr interpolationmode sample-hold
attr recordingmode count
attr source receptionStateChanged
attr title "Radio reception state, count"
scalar RateControlShowcase.sourceHost.wlan[0].radio transmissionState:count 187746
attr interpolationmode sample-hold
attr recordingmode count
attr source transmissionStateChanged
attr title "Radio transmission state, count"
statistic RateControlShowcase.sourceHost.wlan[0].radio minSnir:histogram
field count 43940
field mean 159.50834580299
field stddev 114.03633830388
field min 31.624592905342
field max 379.54431581141
field sum 7008796.7145833
field sqrsum 1689356912.5042
attr recordingmode histogram
attr source minimumSnir(packetSentToUpper)
attr title "Min SNIR"
bin	-inf	0
bin	31	1328
bin	35	924
bin	39	821
bin	43	2271
bin	47	3147
bin	51	2964
bin	55	2069
bin	59	1614
bin	63	1015
bin	67	936
bin	71	871
bin	75	651
bin	79	536
bin	83	513
bin	87	487
bin	91	468
bin	95	451
bin	99	441
bin	103	428
bin	107	413
bin	111	361
bin	115	301
bin	119	196
bin	123	213
bin	127	214
bin	131	218
bin	135	225
bin	139	224
bin	143	217
bin	147	195
bin	151	205
bin	155	143
bin	159	160
bin	163	148
bin	167	180
bin	171	172
bin	175	178
bin	179	179
bin	183	180
bin	187	179
bin	191	180
bin	195	181
bin	199	182
bin	203	178
bin	207	173
bin	211	176
bin	215	176
bin	219	362
bin	223	361
bin	227	363
bin	231	361
bin	235	367
bin	239	364
bin	243	370
bin	247	374
bin	251	371
bin	255	377
bin	259	384
bin	263	391
bin	267	402
bin	271	416
bin	275	435
bin	279	458
bin	283	526
bin	287	742
bin	291	870
bin	295	1191
bin	299	1387
bin	303	620
bin	307	162
bin	311	164
bin	315	167
bin	319	168
bin	323	171
bin	327	172
bin	331	180
bin	335	183
bin	339	193
bin	343	197
bin	347	207
bin	351	219
bin	355	234
bin	359	253
bin	363	280
bin	367	325
bin	371	411
bin	375	709
bin	379	371
bin	383	0
statistic RateControlShowcase.sourceHost.wlan[0].radio packetErrorRate:histogram
field count 43940
field mean 1.0255921008298e-07
field stddev 6.42438743101e-07
field min 0
field max 6.8656603834372e-06
field sum 0.0045064516910464
field sqrsum 1.859701344589e-08
attr recordingmode histogram
attr source packetErrorRate(packetSentToUpper)
attr title "Packet error rate"
bin	-inf	0
bin	-0.5	0
bin	-0.48	0
bin	-0.46	0
bin	-0.44	0
bin	-0.42	0
bin	-0.4	0
bin	-0.38	0
bin	-0.36	0
bin	-0.34	0
bin	-0.32	0
bin	-0.3	0
bin	-0.28	0
bin	-0.26	0
bin	-0.24	0
bin	-0.22	0
bin	-0.2	0
bin	-0.18	0
bin	-0.16	0
bin	-0.14	0
bin	-0.12	0
bin	-0.1	0
bin	-0.08	0
bin	-0.06	0
bin	-0.04	0
bin	-0.02	0
bin	0	43940
bin	0.02	0
bin	0.04	0
bin	0.06	0
bin	0.08	0
bin	0.1	0
bin	0.12	0
bin	0.14	0
bin	0.16	0
bin	0.18	0
bin	0.2	0
bin	0.22	0
bin	0.24	0
bin	0.26	0
bin	0.28	0
bin	0.3	0
bin	0.32	0
bin	0.34	0
bin	0.36	0
bin	0.38	0
bin	0.4	0
bin	0.42	0
bin	0.44	0
bin	0.46	0
bin	0.48	0
bin	0.5	0
statistic RateControlShowcase.sourceHost.wlan[0].radio bitErrorRate:histogram
field count 0
field mean -nan
field stddev nan
field min nan
field max nan
field sum 0
field sqrsum 0
attr recordingmode histogram
attr source bitErrorRate(packetSentToUpper)
attr title "Bit error rate"
bin	-inf	0
bin	0	0
bin	1	0
statistic RateControlShowcase.sourceHost.wlan[0].radio symbolErrorRate:histogram
field count 0
field mean -nan
field stddev nan
field min nan
field max nan
field sum 0
field sqrsum 0
attr recordingmode histogram
attr source symbolErrorRate(packetSentToUpper)
attr title "Symbol error rate"
bin	-inf	0
bin	0	0
bin	1	0
scalar RateControlShowcase.sourceHost.wlan[0] packetDropInterfaceDown:count 0
attr interpolationmode none
attr recordingmode count
attr source packetDropReasonIsInterfaceDown(packetDropped)
attr title "packet drops: interface down, count"
scalar RateControlShowcase.sourceHost.wlan[0] packetDropInterfaceDown:sum(packetBytes) 0
attr interpolationmode none
attr recordingmode sum(packetBytes)
attr source packetDropReasonIsInterfaceDown(packetDropped)
attr title "packet drops: interface down, sum(packetBytes)"
scalar RateControlShowcase.sourceHost.wlan[0] packetDropNoCarrier:count 0
attr interpolationmode none
attr recordingmode count
attr source packetDropReasonIsNoCarrier(packetDropped)
attr title "packet drops: no carrier, count"
scalar RateControlShowcase.sourceHost.wlan[0] packetDropNoCarrier:sum(packetBytes) 0
attr interpolationmode none
attr recordingmode sum(packetBytes)
attr source packetDropReasonIsNoCarrier(packetDropped)
attr title "packet drops: no carrier, sum(packetBytes)"
scalar RateControlShowcase.sourceHost.ipv4.ip packetDropAddressResolutionFailed:count 0
attr interpolationmode none
attr recordingmode count
attr source packetDropReasonIsAddressResolutionFailed(packetDropped)
attr title "packet drop: address resolution failed, count"
scalar RateControlShowcase.sourceHost.ipv4.ip packetDropAddressResolutionFailed:sum(packetBytes) 0
attr interpolationmode none
attr recordingmode sum(packetBytes)
attr source packetDropReasonIsAddressResolutionFailed(packetDropped)
attr title "packet drop: address resolution failed, sum(packetBytes)"
scalar RateControlShowcase.sourceHost.ipv4.ip packetDropHopLimitReached:count 0
attr interpolationmode none
attr recordingmode count
attr source packetDropReasonIsHopLimitReached(packetDropped)
attr title "packet drop: hop limit reached, count"
scalar RateControlShowcase.sourceHost.ipv4.ip packetDropHopLimitReached:sum(packetBytes) 0
attr interpolationmode none
attr recordingmode sum(packetBytes)
attr source packetDropReasonIsHopLimitReached(packetDropped)
attr title "packet drop: hop limit reached, sum(packetBytes)"
scalar RateControlShowcase.sourceHost.ipv4.ip packetDropForwardingDisabled:count 0
attr interpolationmode none
attr recordingmode count
attr source packetDropReasonIsForwardingDisabled(packetDropped)
attr title "packet drop: forwarding disabled, count"
scalar RateControlShowcase.sourceHost.ipv4.ip packetDropForwardingDisabled:sum(packetBytes) 0
attr interpolationmode none
attr recordingmode sum(packetBytes)
attr source packetDropReasonIsForwardingDisabled(packetDropped)
attr title "packet drop: forwarding disabled, sum(packetBytes)"
scalar RateControlShowcase.sourceHost.ipv4.ip packetDropNoInterfaceFound:count 0
attr interpolationmode none
attr recordingmode count
attr source packetDropReasonIsNoInterfaceFound(packetDropped)
attr title "packet drop: no interface found, count"
scalar RateControlShowcase.sourceHost.ipv4.ip packetDropNoInterfaceFound:sum(packetBytes) 0
attr interpolationmode none
attr recordingmode sum(packetBytes)
attr source packetDropReasonIsNoInterfaceFound(packetDropped)
attr title "packet drop: no interface found, sum(packetBytes)"
scalar RateControlShowcase.sourceHost.ipv4.ip packetDropNoRouteFound:count 0
attr interpolationmode none
attr recordingmode count
attr source packetDropReasonIsNoRouteFound(packetDropped)
attr title "packet drop: no route found, count"
scalar RateControlShowcase.sourceHost.ipv4.ip packetDropNoRouteFound:sum(packetBytes) 0
attr interpolationmode none
attr recordingmode sum(packetBytes)
attr source packetDropReasonIsNoRouteFound(packetDropped)
attr title "packet drop: no route found, sum(packetBytes)"
scalar RateControlShowcase.sourceHost.ipv4.ip packetDropUndefined:count 0
attr interpolationmode none
attr recordingmode count
attr source packetDropReasonIsUndefined(packetDropped)
attr title "packet drop: undefined, count"
scalar RateControlShowcase.sourceHost.ipv4.ip packetDropUndefined:sum(packetBytes) 0
attr interpolationmode none
attr recordingmode sum(packetBytes)
attr source packetDropReasonIsUndefined(packetDropped)
attr title "packet drop: undefined, sum(packetBytes)"
scalar RateControlShowcase.sourceHost.udp packetReceived:count 0
attr interpolationmode none
attr recordingmode count
attr source packetReceived
attr title "packets received, count"
scalar RateControlShowcase.sourceHost.udp packetReceived:sum(packetBytes) 0
attr interpolationmode none
attr recordingmode sum(packetBytes)
attr source packetReceived
attr title "packets received, sum(packetBytes)"
scalar RateControlShowcase.sourceHost.udp packetSent:count 250000
attr interpolationmode none
attr recordingmode count
attr source packetSent
attr title "packets sent, count"
scalar RateControlShowcase.sourceHost.udp packetSent:sum(packetBytes) 252000000
attr interpolationmode none
attr recordingmode sum(packetBytes)
attr source packetSent
attr title "packets sent, sum(packetBytes)"
scalar RateControlShowcase.sourceHost.udp passedUpPk:count 0
attr interpolationmode none
attr recordingmode count
attr source packetSentToUpper
attr title "packets passed up, count"
scalar RateControlShowcase.sourceHost.udp droppedPkWrongPort:count 0
attr interpolationmode none
attr recordingmode count
attr source packetDropReasonIsNoPortFound(packetDropped)
attr title "packets dropped (wrong port), count"
scalar RateControlShowcase.sourceHost.udp droppedPkBadChecksum:count 0
attr interpolationmode none
attr recordingmode count
attr source packetDropReasonIsIncorrectlyReceived(packetDropped)
attr title "packets dropped (checksum error), count"
scalar RateControlShowcase.sourceHost.app[0] "packets sent" 250000
scalar RateControlShowcase.sourceHost.app[0] "packets received" 0
scalar RateControlShowcase.sourceHost.app[0] packetReceived:count 0
attr interpolationmode none
attr recordingmode count
attr source packetReceived
attr title "packets received, count"
scalar RateControlShowcase.sourceHost.app[0] packetReceived:sum(packetBytes) 0
attr interpolationmode none
attr recordingmode sum(packetBytes)
attr source packetReceived
attr title "packets received, sum(packetBytes)"
statistic RateControlShowcase.sourceHost.app[0] rcvdPkLifetime:stats
field count 0
field mean -nan
field stddev nan
field min nan
field max nan
field sum 0
field sqrsum 0
attr interpolationmode none
attr recordingmode stats
attr source dataAge(packetReceived)
attr title "received packet lifetime"
attr unit s
scalar RateControlShowcase.sourceHost.app[0] packetSent:count 250000
attr interpolationmode none
attr recordingmode count
attr source packetSent
attr title "packets sent, count"
scalar RateControlShowcase.sourceHost.app[0] packetSent:sum(packetBytes) 250000000
attr interpolationmode none
attr recordingmode sum(packetBytes)
attr source packetSent
attr title "packets sent, sum(packetBytes)"
scalar RateControlShowcase.sinkHost.lo[0].lo rcvdPkFromHl:count 0
attr interpolationmode none
attr recordingmode count
attr source packetReceivedFromUpper
attr title "packets received from higher layer, count"
scalar RateControlShowcase.sinkHost.lo[0].lo rcvdPkFromHl:sum(packetBytes) 0
attr interpolationmode none
attr recordingmode sum(packetBytes)
attr source packetReceivedFromUpper
attr title "packets received from higher layer, sum(packetBytes)"
scalar RateControlShowcase.sinkHost.lo[0].lo passedUpPk:count 0
attr interpolationmode none
attr recordingmode count
attr source packetSentToUpper
attr title "packets passed to higher layer, count"
scalar RateControlShowcase.sinkHost.lo[0].lo passedUpPk:sum(packetBytes) 0
attr interpolationmode none
attr recordingmode sum(packetBytes)
attr source packetSentToUpper
attr title "packets passed to higher layer, sum(packetBytes)"
scalar RateControlShowcase.sinkHost.lo[0] packetDropInterfaceDown:count 0
attr interpolationmode none
attr recordingmode count
attr source packetDropReasonIsInterfaceDown(packetDropped)
attr title "packet drops: interface down, count"
scalar RateControlShowcase.sinkHost.lo[0] packetDropInterfaceDown:sum(packetBytes) 0
attr interpolationmode none
attr recordingmode sum(packetBytes)
attr source packetDropReasonIsInterfaceDown(packetDropped)
attr title "packet drops: interface down, sum(packetBytes)"
scalar RateControlShowcase.sinkHost.lo[0] packetDropNoCarrier:count 0
attr interpolationmode none
attr recordingmode count
attr source packetDropReasonIsNoCarrier(packetDropped)
attr title "packet drops: no carrier, count"
scalar RateControlShowcase.sinkHost.lo[0] packetDropNoCarrier:sum(packetBytes) 0
attr interpolationmode none
attr recordingmode sum(packetBytes)
attr source packetDropReasonIsNoCarrier(packetDropped)
attr title "packet drops: no carrier, sum(packetBytes)"
scalar RateControlShowcase.sinkHost.wlan[0].mac.dcf.channelAccess.pendingQueue queueLength:last 0
attr autoWarmupFilter false
attr interpolationmode sample-hold
attr recordingmode last
attr source "warmup(atomic(constant0(packetPushEnded) + count(packetPushStarted) - count(packetPulled) - count(packetRemoved) - count(packetDropped)))"
attr title "queue length, last"
attr unit pk
scalar RateControlShowcase.sinkHost.wlan[0].mac.dcf.channelAccess.pendingQueue queueLength:max 0
attr autoWarmupFilter false
attr interpolationmode sample-hold
attr recordingmode max
attr source "warmup(atomic(constant0(packetPushEnded) + count(packetPushStarted) - count(packetPulled) - count(packetRemoved) - count(packetDropped)))"
attr title "queue length, max"
attr unit pk
scalar RateControlShowcase.sinkHost.wlan[0].mac.dcf.channelAccess.pendingQueue queueLength:timeavg 0
attr autoWarmupFilter false
attr interpolationmode sample-hold
attr recordingmode timeavg
attr source "warmup(atomic(constant0(packetPushEnded) + count(packetPushStarted) - count(packetPulled) - count(packetRemoved) - count(packetDropped)))"
attr title "queue length, timeavg"
attr unit pk
scalar RateControlShowcase.sinkHost.wlan[0].mac.dcf.channelAccess.pendingQueue queueBitLength:last 0
attr autoWarmupFilter false
attr interpolationmode sample-hold
attr recordingmode last
attr source "warmup(atomic(constant0(packetPushEnded) + sum(packetLength(packetPushStarted)) - sum(packetLength(packetPulled)) - sum(packetLength(packetRemoved)) - sum(packetLength(packetDropped))))"
attr title "queue bit length, last"
attr unit b
scalar RateControlShowcase.sinkHost.wlan[0].mac.dcf.channelAccess.pendingQueue queueBitLength:max 0
attr autoWarmupFilter false
attr interpolationmode sample-hold
attr recordingmode max
attr source "warmup(atomic(constant0(packetPushEnded) + sum(packetLength(packetPushStarted)) - sum(packetLength(packetPulled)) - sum(packetLength(packetRemoved)) - sum(packetLength(packetDropped))))"
attr title "queue bit length, max"
attr unit b
scalar RateControlShowcase.sinkHost.wlan[0].mac.dcf.channelAccess.pendingQueue queueBitLength:timeavg 0
attr autoWarmupFilter false
attr interpolationmode sample-hold
attr recordingmode timeavg
attr source "warmup(atomic(constant0(packetPushEnded) + sum(packetLength(packetPushStarted)) - sum(packetLength(packetPulled)) - sum(packetLength(packetRemoved)) - sum(packetLength(packetDropped))))"
attr title "queue bit length, timeavg"
attr unit b
statistic RateControlShowcase.sinkHost.wlan[0].mac.dcf.channelAccess.pendingQueue queueingTime:histogram
field count 0
field mean -nan
field stddev nan
field min nan
field max nan
field sum 0
field sqrsum 0
attr interpolationmode none
attr recordingmode histogram
attr source queueingTime(packetPulled)
attr title "queueing times"
attr unit s
bin	-inf	0
bin	0	0
bin	1	0
scalar RateControlShowcase.sinkHost.wlan[0].mac.dcf.channelAccess.pendingQueue outgoingPackets:count 0
attr recordingmode count
attr source packetPulled
attr title "outgoing packets, count"
attr unit pk
scalar RateControlShowcase.sinkHost.wlan[0].mac.dcf.channelAccess.pendingQueue outgoingPacketLengths:sum 0
attr interpolationmode none
attr recordingmode sum
attr source packetLength(packetPulled)
attr title "outgoing packet lengths, sum"
attr unit b
statistic RateControlShowcase.sinkHost.wlan[0].mac.dcf.channelAccess.pendingQueue outgoingPacketLengths:histogram
field count 0
field mean -nan
field stddev nan
field min nan
field max nan
field sum 0
field sqrsum 0
attr interpolationmode none
attr recordingmode histogram
attr source packetLength(packetPulled)
attr title "outgoing packet lengths"
attr unit b
bin	-inf	0
bin	0	0
bin	1	0
statistic RateControlShowcase.sinkHost.wlan[0].mac.dcf.channelAccess.pendingQueue flowQueueingTime:histogram
field count 0
field mean -nan
field stddev nan
field min nan
field max nan
field sum 0
field sqrsum 0
attr interpolationmode none
attr recordingmode histogram
attr source queueingTime(demuxFlow(packetPulled))
attr title "flow queueing times"
attr unit s
bin	-inf	0
bin	0	0
bin	1	0
scalar RateControlShowcase.sinkHost.wlan[0].mac.dcf.channelAccess.pendingQueue incomingPackets:count 0
attr recordingmode count
attr source packetPushStarted
attr title "incoming packets, count"
attr unit pk
scalar RateControlShowcase.sinkHost.wlan[0].mac.dcf.channelAccess.pendingQueue incomingPacketLengths:sum 0
attr interpolationmode none
attr recordingmode sum
attr source packetLength(packetPushStarted)
attr title "incoming packet lengths, sum"
attr unit b
statistic RateControlShowcase.sinkHost.wlan[0].mac.dcf.channelAccess.pendingQueue incomingPacketLengths:histogram
field count 0
field mean -nan
field stddev nan
field min nan
field max nan
field sum 0
field sqrsum 0
attr interpolationmode none
attr recordingmode histogram
attr source packetLength(packetPushStarted)
attr title "incoming packet lengths"
attr unit b
bin	-inf	0
bin	0	0
bin	1	0
scalar RateControlShowcase.sinkHost.wlan[0].mac.dcf.channelAccess.pendingQueue droppedPacketsQueueOverflow:count 0
attr interpolationmode none
attr recordingmode count
attr source packetDropReasonIsQueueOverflow(packetDropped)
attr title "dropped packets: queue overflow, count"
attr unit pk
scalar RateControlShowcase.sinkHost.wlan[0].mac.dcf.channelAccess.pendingQueue droppedPacketLengthsQueueOverflow:sum 0
attr interpolationmode none
attr recordingmode sum
attr source packetLength(packetDropReasonIsQueueOverflow(packetDropped))
attr title "dropped packet lengths: queue overflow, sum"
attr unit b
statistic RateControlShowcase.sinkHost.wlan[0].mac.dcf.channelAccess.inProgressFrames queueingTime:histogram
field count 0
field mean -nan
field stddev nan
field min nan
field max nan
field sum 0
field sqrsum 0
attr interpolationmode none
attr recordingmode histogram
attr source queueingTime(packetDequeued)
attr title "queueing times"
bin	-inf	0
bin	0	0
bin	1	0
scalar RateControlShowcase.sinkHost.wlan[0].mac.dcf.channelAccess.inProgressFrames queueLength:max 0
attr autoWarmupFilter false
attr interpolationmode sample-hold
attr recordingmode max
attr source "warmup(count(packetEnqueued) - count(packetDequeued))"
attr title "queue length, max"
scalar RateControlShowcase.sinkHost.wlan[0].mac.dcf.channelAccess.inProgressFrames queueLength:timeavg 0
attr autoWarmupFilter false
attr interpolationmode sample-hold
attr recordingmode timeavg
attr source "warmup(count(packetEnqueued) - count(packetDequeued))"
attr title "queue length, timeavg"
scalar RateControlShowcase.sinkHost.wlan[0].mac.dcf.channelAccess.contention channelAccessGranted:count 0
attr recordingmode count
attr title "channel access granted, count"
scalar RateControlShowcase.sinkHost.wlan[0].mac.dcf.channelAccess.contention stateChanged:count 362764
attr enum IDLE,DEFER,IFS_AND_BACKOFF
attr interpolationmode none
attr recordingmode count
attr title "contention state changed, count"
attr type enum
scalar RateControlShowcase.sinkHost.wlan[0].mac.dcf.channelAccess channelOwnershipChanged:count 0
attr interpolationmode sample-hold
attr recordingmode count
attr title "channel ownership, count"
scalar RateControlShowcase.sinkHost.wlan[0].mac.dcf.originatorMacDataService packetAggregated:count 0
attr recordingmode count
attr title "packets aggregated, count"
scalar RateControlShowcase.sinkHost.wlan[0].mac.dcf.originatorMacDataService packetFragmented:count 0
attr recordingmode count
attr title "packets fragmented, count"
scalar RateControlShowcase.sinkHost.wlan[0].mac.dcf.recipientMacDataService packetDeaggregated:count 0
attr recordingmode count
attr title "packets deaggregated, count"
scalar RateControlShowcase.sinkHost.wlan[0].mac.dcf.recipientMacDataService packetDefragmented:count 43944
attr recordingmode count
attr title "packets defragmented, count"
scalar RateControlShowcase.sinkHost.wlan[0].mac.dcf.recipientMacDataService packetDropDuplicateDetected:count 12
attr interpolationmode none
attr recordingmode count
attr source packetDropReasonIsDuplicateDetected(packetDropped)
attr title "packet drops: duplicate detected, count"
scalar RateControlShowcase.sinkHost.wlan[0].mac.dcf.recipientMacDataService packetDropDuplicateDetected:sum(packetBytes) 12768
attr interpolationmode none
attr recordingmode sum(packetBytes)
attr source packetDropReasonIsDuplicateDetected(packetDropped)
attr title "packet drops: duplicate detected, sum(packetBytes)"
scalar RateControlShowcase.sinkHost.wlan[0].mac.dcf.recoveryProcedure retryLimitReached:count 0
attr recordingmode count
attr title "retry limit reached, count"
scalar RateControlShowcase.sinkHost.wlan[0].mac.dcf frameSequenceFinished:count 0
attr recordingmode count
attr title "finished frame sequences, count"
statistic RateControlShowcase.sinkHost.wlan[0].mac.dcf frameSequenceDuration:histogram
field count 0
field mean -nan
field stddev nan
field min nan
field max nan
field sum 0
field sqrsum 0
attr recordingmode histogram
attr source frameSequenceDuration(frameSequenceFinished)
attr title "frame sequence durations"
bin	-inf	0
bin	0	0
bin	1	0
statistic RateControlShowcase.sinkHost.wlan[0].mac.dcf frameSequenceNumPackets:histogram
field count 0
field mean -nan
field stddev nan
field min nan
field max nan
field sum 0
field sqrsum 0
attr recordingmode histogram
attr source frameSequenceNumPackets(frameSequenceFinished)
attr title "frame sequences: number of packets"
bin	-inf	0
bin	0	0
bin	1	0
scalar RateControlShowcase.sinkHost.wlan[0].mac.dcf packetReceivedFromPeer:count 43956
attr interpolationmode none
attr recordingmode count
attr title "packets received, count"
scalar RateControlShowcase.sinkHost.wlan[0].mac.dcf packetReceivedFromPeer:sum(packetBytes) 46769184
attr interpolationmode none
attr recordingmode sum(packetBytes)
attr title "packets received, sum(packetBytes)"
scalar RateControlShowcase.sinkHost.wlan[0].mac.dcf packetReceivedFromPeerUnicast:count 43956
attr interpolationmode none
attr recordingmode count
attr source ieee80211Unicast(packetReceivedFromPeer)
attr title "packets received: unicast, count"
scalar RateControlShowcase.sinkHost.wlan[0].mac.dcf packetReceivedFromPeerUnicast:sum(packetBytes) 46769184
attr interpolationmode none
attr recordingmode sum(packetBytes)
attr source ieee80211Unicast(packetReceivedFromPeer)
attr title "packets received: unicast, sum(packetBytes)"
scalar RateControlShowcase.sinkHost.wlan[0].mac.dcf packetReceivedFromPeerMulticast:count 0
attr interpolationmode none
attr recordingmode count
attr source ieee80211Multicast(packetReceivedFromPeer)
attr title "packets received: multicast, count"
scalar RateControlShowcase.sinkHost.wlan[0].mac.dcf packetReceivedFromPeerMulticast:sum(packetBytes) 0
attr interpolationmode none
attr recordingmode sum(packetBytes)
attr source ieee80211Multicast(packetReceivedFromPeer)
attr title "packets received: multicast, sum(packetBytes)"
scalar RateControlShowcase.sinkHost.wlan[0].mac.dcf packetReceivedFromPeerBroadcast:count 0
attr interpolationmode none
attr recordingmode count
attr source ieee80211Broadcast(packetReceivedFromPeer)
attr title "packets received: broadcast, count"
scalar RateControlShowcase.sinkHost.wlan[0].mac.dcf packetReceivedFromPeerBroadcast:sum(packetBytes) 0
attr interpolationmode none
attr recordingmode sum(packetBytes)
attr source ieee80211Broadcast(packetReceivedFromPeer)
attr title "packets received: broadcast, sum(packetBytes)"
scalar RateControlShowcase.sinkHost.wlan[0].mac.dcf packetReceivedFromPeerWithRetry:count 1510
attr interpolationmode none
attr recordingmode count
attr source ieee80211Retry(packetReceivedFromPeer)
attr title "packets received: with retry, count"
scalar RateControlShowcase.sinkHost.wlan[0].mac.dcf packetReceivedFromPeerWithRetry:sum(packetBytes) 1606640
attr interpolationmode none
attr recordingmode sum(packetBytes)
attr source ieee80211Retry(packetReceivedFromPeer)
attr title "packets received: with retry, sum(packetBytes)"
scalar RateControlShowcase.sinkHost.wlan[0].mac.dcf packetReceivedFromPeerWithoutRetry:count 42446
attr interpolationmode none
attr recordingmode count
attr source ieee80211NotRetry(packetReceivedFromPeer)
attr title "packets received: without retry, count"
scalar RateControlShowcase.sinkHost.wlan[0].mac.dcf packetReceivedFromPeerWithoutRetry:sum(packetBytes) 45162544
attr interpolationmode none
attr recordingmode sum(packetBytes)
attr source ieee80211NotRetry(packetReceivedFromPeer)
attr title "packets received: without retry, sum(packetBytes)"
scalar RateControlShowcase.sinkHost.wlan[0].mac.dcf packetSentToPeer:count 43956
attr interpolationmode none
attr recordingmode count
attr title "packets sent, count"
scalar RateControlShowcase.sinkHost.wlan[0].mac.dcf packetSentToPeer:sum(packetBytes) 615384
attr interpolationmode none
attr recordingmode sum(packetBytes)
attr title "packets sent, sum(packetBytes)"
scalar RateControlShowcase.sinkHost.wlan[0].mac.dcf packetSentToPeerUnicast:count 43956
attr interpolationmode none
attr recordingmode count
attr source ieee80211Unicast(packetSentToPeer)
attr title "packets sent: unicast, count"
scalar RateControlShowcase.sinkHost.wlan[0].mac.dcf packetSentToPeerUnicast:sum(packetBytes) 615384
attr interpolationmode none
attr recordingmode sum(packetBytes)
attr source ieee80211Unicast(packetSentToPeer)
attr title "packets sent: unicast, sum(packetBytes)"
scalar RateControlShowcase.sinkHost.wlan[0].mac.dcf packetSentToPeerMulticast:count 0
attr interpolationmode none
attr recordingmode count
attr source ieee80211Multicast(packetSentToPeer)
attr title "packets sent: multicast, count"
scalar RateControlShowcase.sinkHost.wlan[0].mac.dcf packetSentToPeerMulticast:sum(packetBytes) 0
attr interpolationmode none
attr recordingmode sum(packetBytes)
attr source ieee80211Multicast(packetSentToPeer)
attr title "packets sent: multicast, sum(packetBytes)"
scalar RateControlShowcase.sinkHost.wlan[0].mac.dcf packetSentToPeerBroadcast:count 0
attr interpolationmode none
attr recordingmode count
attr source ieee80211Broadcast(packetSentToPeer)
attr title "packets sent: broadcast , count"
scalar RateControlShowcase.sinkHost.wlan[0].mac.dcf packetSentToPeerBroadcast:sum(packetBytes) 0
attr interpolationmode none
attr recordingmode sum(packetBytes)
attr source ieee80211Broadcast(packetSentToPeer)
attr title "packets sent: broadcast , sum(packetBytes)"
scalar RateControlShowcase.sinkHost.wlan[0].mac.dcf packetSentToPeerWithRetry:count 0
attr interpolationmode none
attr recordingmode count
attr source ieee80211Retry(packetSentToPeer)
attr title "packets sent: with retry, count"
scalar RateControlShowcase.sinkHost.wlan[0].mac.dcf packetSentToPeerWithRetry:sum(packetBytes) 0
attr interpolationmode none
attr recordingmode sum(packetBytes)
attr source ieee80211Retry(packetSentToPeer)
attr title "packets sent: with retry, sum(packetBytes)"
scalar RateControlShowcase.sinkHost.wlan[0].mac.dcf packetSentToPeerWithoutRetry:count 43956
attr interpolationmode none
attr recordingmode count
attr source ieee80211NotRetry(packetSentToPeer)
attr title "packets sent: without retry, count"
scalar RateControlShowcase.sinkHost.wlan[0].mac.dcf packetSentToPeerWithoutRetry:sum(packetBytes) 615384
attr interpolationmode none
attr recordingmode sum(packetBytes)
attr source ieee80211NotRetry(packetSentToPeer)
attr title "packets sent: without retry, sum(packetBytes)"
scalar RateControlShowcase.sinkHost.wlan[0].mac.dcf packetDrop:count 12
attr interpolationmode none
attr recordingmode count
attr source packetDropped
attr title "packet drops, count"
scalar RateControlShowcase.sinkHost.wlan[0].mac.dcf packetDrop:sum(packetBytes) 12768
attr interpolationmode none
attr recordingmode sum(packetBytes)
attr source packetDropped
attr title "packet drops, sum(packetBytes)"
scalar RateControlShowcase.sinkHost.wlan[0].mac.dcf packetDropNotAddressedToUs:count 0
attr interpolationmode none
attr recordingmode count
attr source packetDropReasonIsNotAddressedToUs(packetDropped)
attr title "packet drops: not addressed to us, count"
scalar RateControlShowcase.sinkHost.wlan[0].mac.dcf packetDropNotAddressedToUs:sum(packetBytes) 0
attr interpolationmode none
attr recordingmode sum(packetBytes)
attr source packetDropReasonIsNotAddressedToUs(packetDropped)
attr title "packet drops: not addressed to us, sum(packetBytes)"
scalar RateControlShowcase.sinkHost.wlan[0].mac.dcf packetDropQueueOverflow:count 0
attr interpolationmode none
attr recordingmode count
attr source packetDropReasonIsQueueOverflow(packetDropped)
attr title "packet drops: queue overflow, count"
scalar RateControlShowcase.sinkHost.wlan[0].mac.dcf packetDropQueueOverflow:sum(packetBytes) 0
attr interpolationmode none
attr recordingmode sum(packetBytes)
attr source packetDropReasonIsQueueOverflow(packetDropped)
attr title "packet drops: queue overflow, sum(packetBytes)"
scalar RateControlShowcase.sinkHost.wlan[0].mac.dcf packetDropRetryLimitReached:count 0
attr interpolationmode none
attr recordingmode count
attr source packetDropReasonIsRetryLimitReached(packetDropped)
attr title "packet drops: retry limit reached, count"
scalar RateControlShowcase.sinkHost.wlan[0].mac.dcf packetDropRetryLimitReached:sum(packetBytes) 0
attr interpolationmode none
attr recordingmode sum(packetBytes)
attr source packetDropReasonIsRetryLimitReached(packetDropped)
attr title "packet drops: retry limit reached, sum(packetBytes)"
scalar RateControlShowcase.sinkHost.wlan[0].mac.dcf linkBroken:count 0
attr interpolationmode none
attr recordingmode count
attr title "link breaks, count"
scalar RateControlShowcase.sinkHost.wlan[0].mac packetReceivedFromLower:count 45756
attr interpolationmode none
attr recordingmode count
attr title "packets received from lower layer, count"
scalar RateControlShowcase.sinkHost.wlan[0].mac packetReceivedFromLower:sum(packetBytes) 48684384
attr interpolationmode none
attr recordingmode sum(packetBytes)
attr title "packets received from lower layer, sum(packetBytes)"
scalar RateControlShowcase.sinkHost.wlan[0].mac packetSentToLower:count 43956
attr interpolationmode none
attr recordingmode count
attr title "packets sent to lower layer, count"
scalar RateControlShowcase.sinkHost.wlan[0].mac packetSentToLower:sum(packetBytes) 615384
attr interpolationmode none
attr recordingmode sum(packetBytes)
attr title "packets sent to lower layer, sum(packetBytes)"
scalar RateControlShowcase.sinkHost.wlan[0].mac packetReceivedFromUpper:count 0
attr interpolationmode none
attr recordingmode count
attr title "packets received from upper layer, count"
scalar RateControlShowcase.sinkHost.wlan[0].mac packetReceivedFromUpper:sum(packetBytes) 0
attr interpolationmode none
attr recordingmode sum(packetBytes)
attr title "packets received from upper layer, sum(packetBytes)"
scalar RateControlShowcase.sinkHost.wlan[0].mac packetSentToUpper:count 43944
attr interpolationmode none
attr recordingmode count
attr title "packets sent to upper layer, count"
scalar RateControlShowcase.sinkHost.wlan[0].mac packetSentToUpper:sum(packetBytes) 45525984
attr interpolationmode none
attr recordingmode sum(packetBytes)
attr title "packets sent to upper layer, sum(packetBytes)"
scalar RateControlShowcase.sinkHost.wlan[0].mac packetDrop:count 1812
attr interpolationmode none
attr recordingmode count
attr source packetDropped
attr title "packet drops, count"
scalar RateControlShowcase.sinkHost.wlan[0].mac packetDrop:sum(packetBytes) 1927968
attr interpolationmode none
attr recordingmode sum(packetBytes)
attr source packetDropped
attr title "packet drops, sum(packetBytes)"
scalar RateControlShowcase.sinkHost.wlan[0].mac packetDropIncorrectlyReceived:count 1800
attr interpolationmode none
attr recordingmode count
attr source packetDropReasonIsIncorrectlyReceived(packetDropped)
attr title "packet drops: incorrectly received, count"
scalar RateControlShowcase.sinkHost.wlan[0].mac packetDropIncorrectlyReceived:sum(packetBytes) 1915200
attr interpolationmode none
attr recordingmode sum(packetBytes)
attr source packetDropReasonIsIncorrectlyReceived(packetDropped)
attr title "packet drops: incorrectly received, sum(packetBytes)"
scalar RateControlShowcase.sinkHost.wlan[0].mac packetDropNotAddressedToUs:count 0
attr interpolationmode none
attr recordingmode count
attr source packetDropReasonIsNotAddressedToUs(packetDropped)
attr title "packet drops: not addressed to us, count"
scalar RateControlShowcase.sinkHost.wlan[0].mac packetDropNotAddressedToUs:sum(packetBytes) 0
attr interpolationmode none
attr recordingmode sum(packetBytes)
attr source packetDropReasonIsNotAddressedToUs(packetDropped)
attr title "packet drops: not addressed to us, sum(packetBytes)"
scalar RateControlShowcase.sinkHost.wlan[0].mac packetDropQueueOverflow:count 0
attr interpolationmode none
attr recordingmode count
attr source packetDropReasonIsQueueOverflow(packetDropped)
attr title "packet drops: queue overflow, count"
scalar RateControlShowcase.sinkHost.wlan[0].mac packetDropQueueOverflow:sum(packetBytes) 0
attr interpolationmode none
attr recordingmode sum(packetBytes)
attr source packetDropReasonIsQueueOverflow(packetDropped)
attr title "packet drops: queue overflow, sum(packetBytes)"
scalar RateControlShowcase.sinkHost.wlan[0].mac packetDropRetryLimitReached:count 0
attr interpolationmode none
attr recordingmode count
attr source packetDropReasonIsRetryLimitReached(packetDropped)
attr title "packet drops: retry limit reached, count"
scalar RateControlShowcase.sinkHost.wlan[0].mac packetDropRetryLimitReached:sum(packetBytes) 0
attr interpolationmode none
attr recordingmode sum(packetBytes)
attr source packetDropReasonIsRetryLimitReached(packetDropped)
attr title "packet drops: retry limit reached, sum(packetBytes)"
scalar RateControlShowcase.sinkHost.wlan[0].mac packetDropDuplicateDetected:count 12
attr interpolationmode none
attr recordingmode count
attr source packetDropReasonIsDuplicateDetected(packetDropped)
attr title "packet drops: duplicate detected, count"
scalar RateControlShowcase.sinkHost.wlan[0].mac packetDropDuplicateDetected:sum(packetBytes) 12768
attr interpolationmode none
attr recordingmode sum(packetBytes)
attr source packetDropReasonIsDuplicateDetected(packetDropped)
attr title "packet drops: duplicate detected, sum(packetBytes)"
scalar RateControlShowcase.sinkHost.wlan[0].mac packetDropOther:count 0
attr interpolationmode none
attr recordingmode count
attr source packetDropReasonIsOther(packetDropped)
attr title "packet drops: other, count"
scalar RateControlShowcase.sinkHost.wlan[0].mac packetDropOther:sum(packetBytes) 0
attr interpolationmode none
attr recordingmode sum(packetBytes)
attr source packetDropReasonIsOther(packetDropped)
attr title "packet drops: other, sum(packetBytes)"
scalar RateControlShowcase.sinkHost.wlan[0].mac linkBroken:count 0
attr interpolationmode none
attr recordingmode count
attr title "link breaks, count"
statistic RateControlShowcase.sinkHost.wlan[0].radio radioChannel:histogram
field count 1
field mean 0
field stddev nan
field min 0
field max 0
field sum 0
field sqrsum 0
attr interpolationmode sample-hold
attr recordingmode histogram
attr source radioChannelChanged
attr title "Radio channel"
bin	-inf	0
bin	-0.5	0
bin	-0.48	0
bin	-0.46	0
bin	-0.44	0
bin	-0.42	0
bin	-0.4	0
bin	-0.38	0
bin	-0.36	0
bin	-0.34	0
bin	-0.32	0
bin	-0.3	0
bin	-0.28	0
bin	-0.26	0
bin	-0.24	0
bin	-0.22	0
bin	-0.2	0
bin	-0.18	0
bin	-0.16	0
bin	-0.14	0
bin	-0.12	0
bin	-0.1	0
bin	-0.08	0
bin	-0.06	0
bin	-0.04	0
bin	-0.02	0
bin	0	1
bin	0.02	0
bin	0.04	0
bin	0.06	0
bin	0.08	0
bin	0.1	0
bin	0.12	0
bin	0.14	0
bin	0.16	0
bin	0.18	0
bin	0.2	0
bin	0.22	0
bin	0.24	0
bin	0.26	0
bin	0.28	0
bin	0.3	0
bin	0.32	0
bin	0.34	0
bin	0.36	0
bin	0.38	0
bin	0.4	0
bin	0.42	0
bin	0.44	0
bin	0.46	0
bin	0.48	0
bin	0.5	0
scalar RateControlShowcase.sinkHost.wlan[0].radio radioMode:count 87915
attr interpolationmode sample-hold
attr recordingmode count
attr source radioModeChanged
attr title "Radio mode, count"
scalar RateControlShowcase.sinkHost.wlan[0].radio receptionState:count 179582
attr interpolationmode sample-hold
attr recordingmode count
attr source receptionStateChanged
attr title "Radio reception state, count"
scalar RateControlShowcase.sinkHost.wlan[0].radio transmissionState:count 175824
attr interpolationmode sample-hold
attr recordingmode count
attr source transmissionStateChanged
attr title "Radio transmission state, count"
statistic RateControlShowcase.sinkHost.wlan[0].radio minSnir:histogram
field count 45756
field mean 156.65445212908
field stddev 113.05915940013
field min 31.623819330555
field max 379.54431324848
field sum 7167881.1116182
field sqrsum 1707737989.0696
attr recordingmode histogram
attr source minimumSnir(packetSentToUpper)
attr title "Min SNIR"
bin	-inf	0
bin	31	1338
bin	35	969
bin	39	1021
bin	43	2554
bin	47	3353
bin	51	3076
bin	55	2119
bin	59	1658
bin	63	1040
bin	67	959
bin	71	892
bin	75	667
bin	79	551
bin	83	524
bin	87	500
bin	91	478
bin	95	461
bin	99	453
bin	103	437
bin	107	429
bin	111	403
bin	115	409
bin	119	251
bin	123	256
bin	127	258
bin	131	250
bin	135	247
bin	139	241
bin	143	231
bin	147	212
bin	151	215
bin	155	198
bin	159	200
bin	163	196
bin	167	204
bin	171	198
bin	175	196
bin	179	192
bin	183	194
bin	187	188
bin	191	189
bin	195	187
bin	199	183
bin	203	179
bin	207	176
bin	211	177
bin	215	177
bin	219	363
bin	223	365
bin	227	363
bin	231	364
bin	235	365
bin	239	367
bin	243	369
bin	247	375
bin	251	371
bin	255	376
bin	259	385
bin	263	392
bin	267	402
bin	271	418
bin	275	433
bin	279	460
bin	283	526
bin	287	742
bin	291	868
bin	295	1194
bin	299	1384
bin	303	622
bin	307	162
bin	311	164
bin	315	168
bin	319	167
bin	323	172
bin	327	171
bin	331	179
bin	335	185
bin	339	192
bin	343	197
bin	347	208
bin	351	217
bin	355	234
bin	359	254
bin	363	279
bin	367	325
bin	371	412
bin	375	709
bin	379	371
bin	383	0
statistic RateControlShowcase.sinkHost.wlan[0].radio packetErrorRate:histogram
field count 45756
field mean 0.039783413514792
field stddev 0.13022227572455
field min 0
field max 1
field sum 1820.3298687828
field sqrsum 848.32495519937
attr recordingmode histogram
attr source packetErrorRate(packetSentToUpper)
attr title "Packet error rate"
bin	-inf	0
bin	0	34381
bin	0.016384	2794
bin	0.032768	1643
bin	0.049152	1160
bin	0.065536	868
bin	0.08192	743
bin	0.098304	603
bin	0.114688	257
bin	0.131072	269
bin	0.147456	243
bin	0.16384	215
bin	0.180224	173
bin	0.196608	181
bin	0.212992	173
bin	0.229376	145
bin	0.24576	99
bin	0.262144	90
bin	0.278528	108
bin	0.294912	97
bin	0.311296	88
bin	0.32768	94
bin	0.344064	64
bin	0.360448	47
bin	0.376832	55
bin	0.393216	85
bin	0.4096	79
bin	0.425984	54
bin	0.442368	33
bin	0.458752	58
bin	0.475136	50
bin	0.49152	45
bin	0.507904	22
bin	0.524288	13
bin	0.540672	27
bin	0.557056	8
bin	0.57344	27
bin	0.589824	26
bin	0.606208	24
bin	0.622592	1
bin	0.638976	5
bin	0.65536	0
bin	0.671744	4
bin	0.688128	18
bin	0.704512	14
bin	0.720896	1
bin	0.73728	4
bin	0.753664	4
bin	0.770048	9
bin	0.786432	6
bin	0.802816	8
bin	0.8192	6
bin	0.835584	11
bin	0.851968	3
bin	0.868352	4
bin	0.884736	3
bin	0.90112	3
bin	0.917504	4
bin	0.933888	8
bin	0.950272	7
bin	0.966656	9
bin	0.98304	28
bin	0.999424	455
bin	1.015808	0
statistic RateControlShowcase.sinkHost.wlan[0].radio bitErrorRate:histogram
field count 0
field mean -nan
field stddev nan
field min nan
field max nan
field sum 0
field sqrsum 0
attr recordingmode histogram
attr source bitErrorRate(packetSentToUpper)
attr title "Bit error rate"
bin	-inf	0
bin	0	0
bin	1	0
statistic RateControlShowcase.sinkHost.wlan[0].radio symbolErrorRate:histogram
field count 0
field mean -nan
field stddev nan
field min nan
field max nan
field sum 0
field sqrsum 0
attr recordingmode histogram
attr source symbolErrorRate(packetSentToUpper)
attr title "Symbol error rate"
bin	-inf	0
bin	0	0
bin	1	0
scalar RateControlShowcase.sinkHost.wlan[0] packetDropInterfaceDown:count 0
attr interpolationmode none
attr recordingmode count
attr source packetDropReasonIsInterfaceDown(packetDropped)
attr title "packet drops: interface down, count"
scalar RateControlShowcase.sinkHost.wlan[0] packetDropInterfaceDown:sum(packetBytes) 0
attr interpolationmode none
attr recordingmode sum(packetBytes)
attr source packetDropReasonIsInterfaceDown(packetDropped)
attr title "packet drops: interface down, sum(packetBytes)"
scalar RateControlShowcase.sinkHost.wlan[0] packetDropNoCarrier:count 0
attr interpolationmode none
attr recordingmode count
attr source packetDropReasonIsNoCarrier(packetDropped)
attr title "packet drops: no carrier, count"
scalar RateControlShowcase.sinkHost.wlan[0] packetDropNoCarrier:sum(packetBytes) 0
attr interpolationmode none
attr recordingmode sum(packetBytes)
attr source packetDropReasonIsNoCarrier(packetDropped)
attr title "packet drops: no carrier, sum(packetBytes)"
scalar RateControlShowcase.sinkHost.ipv4.ip packetDropAddressResolutionFailed:count 0
attr interpolationmode none
attr recordingmode count
attr source packetDropReasonIsAddressResolutionFailed(packetDropped)
attr title "packet drop: address resolution failed, count"
scalar RateControlShowcase.sinkHost.ipv4.ip packetDropAddressResolutionFailed:sum(packetBytes) 0
attr interpolationmode none
attr recordingmode sum(packetBytes)
attr source packetDropReasonIsAddressResolutionFailed(packetDropped)
attr title "packet drop: address resolution failed, sum(packetBytes)"
scalar RateControlShowcase.sinkHost.ipv4.ip packetDropHopLimitReached:count 0
attr interpolationmode none
attr recordingmode count
attr source packetDropReasonIsHopLimitReached(packetDropped)
attr title "packet drop: hop limit reached, count"
scalar RateControlShowcase.sinkHost.ipv4.ip packetDropHopLimitReached:sum(packetBytes) 0
attr interpolationmode none
attr recordingmode sum(packetBytes)
attr source packetDropReasonIsHopLimitReached(packetDropped)
attr title "packet drop: hop limit reached, sum(packetBytes)"
scalar RateControlShowcase.sinkHost.ipv4.ip packetDropForwardingDisabled:count 0
attr interpolationmode none
attr recordingmode count
attr source packetDropReasonIsForwardingDisabled(packetDropped)
attr title "packet drop: forwarding disabled, count"
scalar RateControlShowcase.sinkHost.ipv4.ip packetDropForwardingDisabled:sum(packetBytes) 0
attr interpolationmode none
attr recordingmode sum(packetBytes)
attr source packetDropReasonIsForwardingDisabled(packetDropped)
attr title "packet drop: forwarding disabled, sum(packetBytes)"
scalar RateControlShowcase.sinkHost.ipv4.ip packetDropNoInterfaceFound:count 0
attr interpolationmode none
attr recordingmode count
attr source packetDropReasonIsNoInterfaceFound(packetDropped)
attr title "packet drop: no interface found, count"
scalar RateControlShowcase.sinkHost.ipv4.ip packetDropNoInterfaceFound:sum(packetBytes) 0
attr interpolationmode none
attr recordingmode sum(packetBytes)
attr source packetDropReasonIsNoInterfaceFound(packetDropped)
attr title "packet drop: no interface found, sum(packetBytes)"
scalar RateControlShowcase.sinkHost.ipv4.ip packetDropNoRouteFound:count 0
attr interpolationmode none
attr recordingmode count
attr source packetDropReasonIsNoRouteFound(packetDropped)
attr title "packet drop: no route found, count"
scalar RateControlShowcase.sinkHost.ipv4.ip packetDropNoRouteFound:sum(packetBytes) 0
attr interpolationmode none
attr recordingmode sum(packetBytes)
attr source packetDropReasonIsNoRouteFound(packetDropped)
attr title "packet drop: no route found, sum(packetBytes)"
scalar RateControlShowcase.sinkHost.ipv4.ip packetDropUndefined:count 0
attr interpolationmode none
attr recordingmode count
attr source packetDropReasonIsUndefined(packetDropped)
attr title "packet drop: undefined, count"
scalar RateControlShowcase.sinkHost.ipv4.ip packetDropUndefined:sum(packetBytes) 0
attr interpolationmode none
attr recordingmode sum(packetBytes)
attr source packetDropReasonIsUndefined(packetDropped)
attr title "packet drop: undefined, sum(packetBytes)"
scalar RateControlShowcase.sinkHost.udp packetReceived:count 43944
attr interpolationmode none
attr recordingmode count
attr source packetReceived
attr title "packets received, count"
scalar RateControlShowcase.sinkHost.udp packetReceived:sum(packetBytes) 44295552
attr interpolationmode none
attr recordingmode sum(packetBytes)
attr source packetReceived
attr title "packets received, sum(packetBytes)"
scalar RateControlShowcase.sinkHost.udp packetSent:count 0
attr interpolationmode none
attr recordingmode count
attr source packetSent
attr title "packets sent, count"
scalar RateControlShowcase.sinkHost.udp packetSent:sum(packetBytes) 0
attr interpolationmode none
attr recordingmode sum(packetBytes)
attr source packetSent
attr title "packets sent, sum(packetBytes)"
scalar RateControlShowcase.sinkHost.udp passedUpPk:count 43944
attr interpolationmode none
attr recordingmode count
attr source packetSentToUpper
attr title "packets passed up, count"
scalar RateControlShowcase.sinkHost.udp droppedPkWrongPort:count 0
attr interpolationmode none
attr recordingmode count
attr source packetDropReasonIsNoPortFound(packetDropped)
attr title "packets dropped (wrong port), count"
scalar RateControlShowcase.sinkHost.udp droppedPkBadChecksum:count 0
attr interpolationmode none
attr recordingmode count
attr source packetDropReasonIsIncorrectlyReceived(packetDropped)
attr title "packets dropped (checksum error), count"
scalar RateControlShowcase.sinkHost.app[0] packetReceived:count 43944
attr interpolationmode none
attr recordingmode count
attr source packetReceived
attr title "packets received, count"
scalar RateControlShowcase.sinkHost.app[0] packetReceived:sum(packetBytes) 43944000
attr interpolationmode none
attr recordingmode sum(packetBytes)
attr source packetReceived
attr title "packets received, sum(packetBytes)"
statistic RateControlShowcase.sinkHost.app[0] endToEndDelay:histogram
field count 43944
field mean 0.051816142311337
field stddev 0.16014940480974
field min 0.000187337874
field max 3.837878059808
field sum 2277.0085577294
field sqrsum 1245.0284749355
attr interpolationmode none
attr recordingmode histogram
attr source dataAge(packetReceived)
attr title "end-to-end delay"
attr unit s
bin	-inf	0
bin	0	34825
bin	0.044	8778
bin	0.088	37
bin	0.132	3
bin	0.176	4
bin	0.22	3
bin	0.264	3
bin	0.308	3
bin	0.352	3
bin	0.396	3
bin	0.44	3
bin	0.484	4
bin	0.528	3
bin	0.572	3
bin	0.616	3
bin	0.66	2
bin	0.704	4
bin	0.748	2
bin	0.792	3
bin	0.836	2
bin	0.88	4
bin	0.924	9
bin	0.968	78
bin	1.012	2
bin	1.056	2
bin	1.1	2
bin	1.144	2
bin	1.188	2
bin	1.232	2
bin	1.276	3
bin	1.32	2
bin	1.364	2
bin	1.408	2
bin	1.452	2
bin	1.496	2
bin	1.54	3
bin	1.584	2
bin	1.628	2
bin	1.672	2
bin	1.716	2
bin	1.76	1
bin	1.804	2
bin	1.848	2
bin	1.892	3
bin	1.936	1
bin	1.98	2
bin	2.024	2
bin	2.068	2
bin	2.112	2
bin	2.156	3
bin	2.2	2
bin	2.244	2
bin	2.288	2
bin	2.332	2
bin	2.376	2
bin	2.42	1
bin	2.464	2
bin	2.508	2
bin	2.552	3
bin	2.596	20
bin	2.64	28
bin	2.684	1
bin	2.728	1
bin	2.772	1
bin	2.816	1
bin	2.86	2
bin	2.904	1
bin	2.948	0
bin	2.992	1
bin	3.036	1
bin	3.08	1
bin	3.124	1
bin	3.168	2
bin	3.212	1
bin	3.256	1
bin	3.3	1
bin	3.344	1
bin	3.388	1
bin	3.432	1
bin	3.476	1
bin	3.52	1
bin	3.564	1
bin	3.608	1
bin	3.652	1
bin	3.696	1
bin	3.74	1
bin	3.784	4
bin	3.828	10
bin	3.872	0
scalar RateControlShowcase.radioMedium.propagation "Arrival computation count" 90893
scalar RateControlShowcase.radioMedium.obstacleLoss "Obstacle loss intersection computation count" 90893
scalar RateControlShowcase.radioMedium.obstacleLoss "Obstacle loss intersection count" 8666
scalar RateControlShowcase.radioMedium "transmission count" 90893
scalar RateControlShowcase.radioMedium "signal send count" 90893
scalar RateControlShowcase.radioMedium "reception computation count" 90893
scalar RateControlShowcase.radioMedium "interference computation count" 363573
scalar RateControlShowcase.radioMedium "reception decision computation count" 89696
scalar RateControlShowcase.radioMedium "listening decision computation count" 182984
scalar RateControlShowcase.radioMedium "reception cache hit" 85.633176798244
attr unit %
scalar RateControlShowcase.radioMedium "interference cache hit" 66.666666666667
attr unit %
scalar RateControlShowcase.radioMedium "noise cache hit" 0
attr unit %
scalar RateControlShowcase.radioMedium "snir cache hit" 50
attr unit %
scalar RateControlShowcase.radioMedium "reception decision cache hit" 50
attr unit %
scalar RateControlShowcase.radioMedium "reception result cache hit" 0
attr unit %

