version 3
run Annotation-0-20250108-11:37:03-14175
attr configname Annotation
attr datetime 20250108-11:37:03
attr datetimef 20250108-113703
attr experiment Annotation
attr inifile omnetpp.ini
attr iterationvars ""
attr iterationvarsd ""
attr iterationvarsf ""
attr measurement ""
attr network AnnotationShowcase
attr processid 14175
attr repetition 0
attr replication #0
attr resultdir results
attr runnumber 0
attr seedset 0
config **.param-recording false
config image-path /home/levy/workspace/inet/images
config output-scalar-file results/omnetpp.ini-Annotation-#0.sca
config output-vector-file results/omnetpp.ini-Annotation-#0.vec
config sim-time-limit 25s
config sim-time-limit 25s
config description "Placing Annotations"
config network AnnotationShowcase
config *.host1.numApps 9
config *.host1.app[*].typename TcpSessionApp
config *.host1.app[*].connectAddress "\"host2\""
config *.host1.app[0].connectPort 10
config *.host1.app[1].connectPort 20
config *.host1.app[2].connectPort 30
config *.host1.app[3].connectPort 40
config *.host1.app[4].connectPort 50
config *.host1.app[5].connectPort 60
config *.host1.app[6].connectPort 70
config *.host1.app[7].connectPort 80
config *.host1.app[8].connectPort 90
config *.host1.app[*].sendBytes 250KiB
config *.host1.app[*].tOpen 0s
config *.host1.app[*].tSend 0s
config *.host1.app[*].tClose 0s
config *.host2.numApps 9
config *.host2.app[*].typename TcpSinkApp
config *.host2.app[0].localPort 10
config *.host2.app[1].localPort 20
config *.host2.app[2].localPort 30
config *.host2.app[3].localPort 40
config *.host2.app[4].localPort 50
config *.host2.app[5].localPort 60
config *.host2.app[6].localPort 70
config *.host2.app[7].localPort 80
config *.host2.app[8].localPort 90
config *.visualizer.ieee80211Visualizer.displayAssociations true
config *.visualizer.transportConnectionVisualizer.displayTransportConnections true
config *.visualizer.transportConnectionVisualizer.placementHint "\"bottom\""

scalar AnnotationShowcase.host1.lo[0].lo rcvdPkFromHl:count 0
scalar AnnotationShowcase.host1.lo[0].lo rcvdPkFromHl:sum(packetBytes) 0
scalar AnnotationShowcase.host1.lo[0].lo passedUpPk:count 0
scalar AnnotationShowcase.host1.lo[0].lo passedUpPk:sum(packetBytes) 0
scalar AnnotationShowcase.host1.lo[0] packetDropInterfaceDown:count 0
scalar AnnotationShowcase.host1.lo[0] packetDropInterfaceDown:sum(packetBytes) 0
scalar AnnotationShowcase.host1.lo[0] packetDropNoCarrier:count 0
scalar AnnotationShowcase.host1.lo[0] packetDropNoCarrier:sum(packetBytes) 0
scalar AnnotationShowcase.host1.wlan[0].agent dropConfirm:count 0
scalar AnnotationShowcase.host1.wlan[0].agent acceptConfirm:count 3
scalar AnnotationShowcase.host1.wlan[0].agent sentRequest:count 3
scalar AnnotationShowcase.host1.wlan[0].mac.dcf.channelAccess.pendingQueue queueLength:last 0
scalar AnnotationShowcase.host1.wlan[0].mac.dcf.channelAccess.pendingQueue queueLength:max 17
scalar AnnotationShowcase.host1.wlan[0].mac.dcf.channelAccess.pendingQueue queueLength:timeavg 0.18157973018636
scalar AnnotationShowcase.host1.wlan[0].mac.dcf.channelAccess.pendingQueue queueBitLength:last 0
scalar AnnotationShowcase.host1.wlan[0].mac.dcf.channelAccess.pendingQueue queueBitLength:max 83232
scalar AnnotationShowcase.host1.wlan[0].mac.dcf.channelAccess.pendingQueue queueBitLength:timeavg 877.38704981097
scalar AnnotationShowcase.host1.wlan[0].mac.dcf.channelAccess.pendingQueue outgoingPackets:count 4369
scalar AnnotationShowcase.host1.wlan[0].mac.dcf.channelAccess.pendingQueue outgoingPacketLengths:sum 21237344
scalar AnnotationShowcase.host1.wlan[0].mac.dcf.channelAccess.pendingQueue incomingPackets:count 4369
scalar AnnotationShowcase.host1.wlan[0].mac.dcf.channelAccess.pendingQueue incomingPacketLengths:sum 21237344
scalar AnnotationShowcase.host1.wlan[0].mac.dcf.channelAccess.pendingQueue droppedPacketsQueueOverflow:count 0
scalar AnnotationShowcase.host1.wlan[0].mac.dcf.channelAccess.pendingQueue droppedPacketLengthsQueueOverflow:sum 0
scalar AnnotationShowcase.host1.wlan[0].mac.dcf.channelAccess.inProgressFrames queueLength:max 2
scalar AnnotationShowcase.host1.wlan[0].mac.dcf.channelAccess.inProgressFrames queueLength:timeavg 0.1256122491968
scalar AnnotationShowcase.host1.wlan[0].mac.dcf.channelAccess.contention channelAccessGranted:count 4418
scalar AnnotationShowcase.host1.wlan[0].mac.dcf.channelAccess.contention stateChanged:count 140622
scalar AnnotationShowcase.host1.wlan[0].mac.dcf.channelAccess channelOwnershipChanged:count 8836
scalar AnnotationShowcase.host1.wlan[0].mac.dcf.originatorMacDataService packetAggregated:count 0
scalar AnnotationShowcase.host1.wlan[0].mac.dcf.originatorMacDataService packetFragmented:count 0
scalar AnnotationShowcase.host1.wlan[0].mac.dcf.recipientMacDataService packetDeaggregated:count 0
scalar AnnotationShowcase.host1.wlan[0].mac.dcf.recipientMacDataService packetDefragmented:count 4576
scalar AnnotationShowcase.host1.wlan[0].mac.dcf.recipientMacDataService packetDropDuplicateDetected:count 0
scalar AnnotationShowcase.host1.wlan[0].mac.dcf.recipientMacDataService packetDropDuplicateDetected:sum(packetBytes) 0
scalar AnnotationShowcase.host1.wlan[0].mac.dcf.recoveryProcedure retryLimitReached:count 0
scalar AnnotationShowcase.host1.wlan[0].mac.dcf frameSequenceFinished:count 4418
scalar AnnotationShowcase.host1.wlan[0].mac.dcf packetReceivedFromPeer:count 8944
scalar AnnotationShowcase.host1.wlan[0].mac.dcf packetReceivedFromPeer:sum(packetBytes) 403780
scalar AnnotationShowcase.host1.wlan[0].mac.dcf packetReceivedFromPeerUnicast:count 8693
scalar AnnotationShowcase.host1.wlan[0].mac.dcf packetReceivedFromPeerUnicast:sum(packetBytes) 389740
scalar AnnotationShowcase.host1.wlan[0].mac.dcf packetReceivedFromPeerMulticast:count 251
scalar AnnotationShowcase.host1.wlan[0].mac.dcf packetReceivedFromPeerMulticast:sum(packetBytes) 14040
scalar AnnotationShowcase.host1.wlan[0].mac.dcf packetReceivedFromPeerBroadcast:count 251
scalar AnnotationShowcase.host1.wlan[0].mac.dcf packetReceivedFromPeerBroadcast:sum(packetBytes) 14040
scalar AnnotationShowcase.host1.wlan[0].mac.dcf packetReceivedFromPeerWithRetry:count 76
scalar AnnotationShowcase.host1.wlan[0].mac.dcf packetReceivedFromPeerWithRetry:sum(packetBytes) 5780
scalar AnnotationShowcase.host1.wlan[0].mac.dcf packetReceivedFromPeerWithoutRetry:count 8868
scalar AnnotationShowcase.host1.wlan[0].mac.dcf packetReceivedFromPeerWithoutRetry:sum(packetBytes) 398000
scalar AnnotationShowcase.host1.wlan[0].mac.dcf packetSentToPeer:count 8743
scalar AnnotationShowcase.host1.wlan[0].mac.dcf packetSentToPeer:sum(packetBytes) 2744674
scalar AnnotationShowcase.host1.wlan[0].mac.dcf packetSentToPeerUnicast:count 8742
scalar AnnotationShowcase.host1.wlan[0].mac.dcf packetSentToPeerUnicast:sum(packetBytes) 2744634
scalar AnnotationShowcase.host1.wlan[0].mac.dcf packetSentToPeerMulticast:count 1
scalar AnnotationShowcase.host1.wlan[0].mac.dcf packetSentToPeerMulticast:sum(packetBytes) 40
scalar AnnotationShowcase.host1.wlan[0].mac.dcf packetSentToPeerBroadcast:count 1
scalar AnnotationShowcase.host1.wlan[0].mac.dcf packetSentToPeerBroadcast:sum(packetBytes) 40
scalar AnnotationShowcase.host1.wlan[0].mac.dcf packetSentToPeerWithRetry:count 49
scalar AnnotationShowcase.host1.wlan[0].mac.dcf packetSentToPeerWithRetry:sum(packetBytes) 29456
scalar AnnotationShowcase.host1.wlan[0].mac.dcf packetSentToPeerWithoutRetry:count 8694
scalar AnnotationShowcase.host1.wlan[0].mac.dcf packetSentToPeerWithoutRetry:sum(packetBytes) 2715218
scalar AnnotationShowcase.host1.wlan[0].mac.dcf packetDrop:count 17375
scalar AnnotationShowcase.host1.wlan[0].mac.dcf packetDrop:sum(packetBytes) 3093734
scalar AnnotationShowcase.host1.wlan[0].mac.dcf packetDropNotAddressedToUs:count 17375
scalar AnnotationShowcase.host1.wlan[0].mac.dcf packetDropNotAddressedToUs:sum(packetBytes) 3093734
scalar AnnotationShowcase.host1.wlan[0].mac.dcf packetDropQueueOverflow:count 0
scalar AnnotationShowcase.host1.wlan[0].mac.dcf packetDropQueueOverflow:sum(packetBytes) 0
scalar AnnotationShowcase.host1.wlan[0].mac.dcf packetDropRetryLimitReached:count 0
scalar AnnotationShowcase.host1.wlan[0].mac.dcf packetDropRetryLimitReached:sum(packetBytes) 0
scalar AnnotationShowcase.host1.wlan[0].mac.dcf linkBroken:count 0
scalar AnnotationShowcase.host1.wlan[0].mac packetReceivedFromLower:count 26348
scalar AnnotationShowcase.host1.wlan[0].mac packetReceivedFromLower:sum(packetBytes) 3507222
scalar AnnotationShowcase.host1.wlan[0].mac packetSentToLower:count 8743
scalar AnnotationShowcase.host1.wlan[0].mac packetSentToLower:sum(packetBytes) 2744674
scalar AnnotationShowcase.host1.wlan[0].mac packetReceivedFromUpper:count 4366
scalar AnnotationShowcase.host1.wlan[0].mac packetReceivedFromUpper:sum(packetBytes) 2532340
scalar AnnotationShowcase.host1.wlan[0].mac packetSentToUpper:count 4321
scalar AnnotationShowcase.host1.wlan[0].mac packetSentToUpper:sum(packetBytes) 207432
scalar AnnotationShowcase.host1.wlan[0].mac packetDrop:count 17404
scalar AnnotationShowcase.host1.wlan[0].mac packetDrop:sum(packetBytes) 3103402
scalar AnnotationShowcase.host1.wlan[0].mac packetDropIncorrectlyReceived:count 28
scalar AnnotationShowcase.host1.wlan[0].mac packetDropIncorrectlyReceived:sum(packetBytes) 9632
scalar AnnotationShowcase.host1.wlan[0].mac packetDropNotAddressedToUs:count 17375
scalar AnnotationShowcase.host1.wlan[0].mac packetDropNotAddressedToUs:sum(packetBytes) 3093734
scalar AnnotationShowcase.host1.wlan[0].mac packetDropQueueOverflow:count 0
scalar AnnotationShowcase.host1.wlan[0].mac packetDropQueueOverflow:sum(packetBytes) 0
scalar AnnotationShowcase.host1.wlan[0].mac packetDropRetryLimitReached:count 0
scalar AnnotationShowcase.host1.wlan[0].mac packetDropRetryLimitReached:sum(packetBytes) 0
scalar AnnotationShowcase.host1.wlan[0].mac packetDropDuplicateDetected:count 0
scalar AnnotationShowcase.host1.wlan[0].mac packetDropDuplicateDetected:sum(packetBytes) 0
scalar AnnotationShowcase.host1.wlan[0].mac packetDropOther:count 1
scalar AnnotationShowcase.host1.wlan[0].mac packetDropOther:sum(packetBytes) 36
scalar AnnotationShowcase.host1.wlan[0].mac linkBroken:count 0
scalar AnnotationShowcase.host1.wlan[0].radio radioMode:count 17489
scalar AnnotationShowcase.host1.wlan[0].radio receptionState:count 70210
scalar AnnotationShowcase.host1.wlan[0].radio transmissionState:count 34972
scalar AnnotationShowcase.host1.wlan[0] packetDropInterfaceDown:count 0
scalar AnnotationShowcase.host1.wlan[0] packetDropInterfaceDown:sum(packetBytes) 0
scalar AnnotationShowcase.host1.wlan[0] packetDropNoCarrier:count 0
scalar AnnotationShowcase.host1.wlan[0] packetDropNoCarrier:sum(packetBytes) 0
scalar AnnotationShowcase.host1.ipv4.ip packetDropAddressResolutionFailed:count 0
scalar AnnotationShowcase.host1.ipv4.ip packetDropAddressResolutionFailed:sum(packetBytes) 0
scalar AnnotationShowcase.host1.ipv4.ip packetDropHopLimitReached:count 0
scalar AnnotationShowcase.host1.ipv4.ip packetDropHopLimitReached:sum(packetBytes) 0
scalar AnnotationShowcase.host1.ipv4.ip packetDropForwardingDisabled:count 0
scalar AnnotationShowcase.host1.ipv4.ip packetDropForwardingDisabled:sum(packetBytes) 0
scalar AnnotationShowcase.host1.ipv4.ip packetDropLifetimeExpired:count 0
scalar AnnotationShowcase.host1.ipv4.ip packetDropLifetimeExpired:sum(packetBytes) 0
scalar AnnotationShowcase.host1.ipv4.ip packetDropNoInterfaceFound:count 0
scalar AnnotationShowcase.host1.ipv4.ip packetDropNoInterfaceFound:sum(packetBytes) 0
scalar AnnotationShowcase.host1.ipv4.ip packetDropNoRouteFound:count 0
scalar AnnotationShowcase.host1.ipv4.ip packetDropNoRouteFound:sum(packetBytes) 0
scalar AnnotationShowcase.host1.ipv4.ip packetDropUndefined:count 0
scalar AnnotationShowcase.host1.ipv4.ip packetDropUndefined:sum(packetBytes) 0
scalar AnnotationShowcase.host1.ipv4.arp arpResolutionFailed:count 0
scalar AnnotationShowcase.host1.ipv4.arp arpResolutionCompleted:count 1
scalar AnnotationShowcase.host1.ipv4.arp arpResolutionInitiated:count 1
scalar AnnotationShowcase.host1.ipv4.arp arpReplySent:count 0
scalar AnnotationShowcase.host1.ipv4.arp arpReplySent:sum(packetBytes) 0
scalar AnnotationShowcase.host1.ipv4.arp arpRequestSent:count 2
scalar AnnotationShowcase.host1.ipv4.arp arpRequestSent:sum(packetBytes) 56
scalar AnnotationShowcase.host1.udp packetReceived:count 0
scalar AnnotationShowcase.host1.udp packetReceived:sum(packetBytes) 0
scalar AnnotationShowcase.host1.udp packetSent:count 0
scalar AnnotationShowcase.host1.udp packetSent:sum(packetBytes) 0
scalar AnnotationShowcase.host1.udp passedUpPk:count 0
scalar AnnotationShowcase.host1.udp droppedPkWrongPort:count 0
scalar AnnotationShowcase.host1.udp droppedPkBadChecksum:count 0
scalar AnnotationShowcase.host1.app[0] bytesRcvd 0
scalar AnnotationShowcase.host1.app[0] bytesSent 256000
scalar AnnotationShowcase.host1.app[0] packetReceived:count 0
scalar AnnotationShowcase.host1.app[0] packetReceived:sum(packetBytes) 0
scalar AnnotationShowcase.host1.app[0] packetSent:count 1
scalar AnnotationShowcase.host1.app[0] packetSent:sum(packetBytes) 256000
scalar AnnotationShowcase.host1.app[1] bytesRcvd 0
scalar AnnotationShowcase.host1.app[1] bytesSent 256000
scalar AnnotationShowcase.host1.app[1] packetReceived:count 0
scalar AnnotationShowcase.host1.app[1] packetReceived:sum(packetBytes) 0
scalar AnnotationShowcase.host1.app[1] packetSent:count 1
scalar AnnotationShowcase.host1.app[1] packetSent:sum(packetBytes) 256000
scalar AnnotationShowcase.host1.app[2] bytesRcvd 0
scalar AnnotationShowcase.host1.app[2] bytesSent 256000
scalar AnnotationShowcase.host1.app[2] packetReceived:count 0
scalar AnnotationShowcase.host1.app[2] packetReceived:sum(packetBytes) 0
scalar AnnotationShowcase.host1.app[2] packetSent:count 1
scalar AnnotationShowcase.host1.app[2] packetSent:sum(packetBytes) 256000
scalar AnnotationShowcase.host1.app[3] bytesRcvd 0
scalar AnnotationShowcase.host1.app[3] bytesSent 256000
scalar AnnotationShowcase.host1.app[3] packetReceived:count 0
scalar AnnotationShowcase.host1.app[3] packetReceived:sum(packetBytes) 0
scalar AnnotationShowcase.host1.app[3] packetSent:count 1
scalar AnnotationShowcase.host1.app[3] packetSent:sum(packetBytes) 256000
scalar AnnotationShowcase.host1.app[4] bytesRcvd 0
scalar AnnotationShowcase.host1.app[4] bytesSent 256000
scalar AnnotationShowcase.host1.app[4] packetReceived:count 0
scalar AnnotationShowcase.host1.app[4] packetReceived:sum(packetBytes) 0
scalar AnnotationShowcase.host1.app[4] packetSent:count 1
scalar AnnotationShowcase.host1.app[4] packetSent:sum(packetBytes) 256000
scalar AnnotationShowcase.host1.app[5] bytesRcvd 0
scalar AnnotationShowcase.host1.app[5] bytesSent 256000
scalar AnnotationShowcase.host1.app[5] packetReceived:count 0
scalar AnnotationShowcase.host1.app[5] packetReceived:sum(packetBytes) 0
scalar AnnotationShowcase.host1.app[5] packetSent:count 1
scalar AnnotationShowcase.host1.app[5] packetSent:sum(packetBytes) 256000
scalar AnnotationShowcase.host1.app[6] bytesRcvd 0
scalar AnnotationShowcase.host1.app[6] bytesSent 256000
scalar AnnotationShowcase.host1.app[6] packetReceived:count 0
scalar AnnotationShowcase.host1.app[6] packetReceived:sum(packetBytes) 0
scalar AnnotationShowcase.host1.app[6] packetSent:count 1
scalar AnnotationShowcase.host1.app[6] packetSent:sum(packetBytes) 256000
scalar AnnotationShowcase.host1.app[7] bytesRcvd 0
scalar AnnotationShowcase.host1.app[7] bytesSent 256000
scalar AnnotationShowcase.host1.app[7] packetReceived:count 0
scalar AnnotationShowcase.host1.app[7] packetReceived:sum(packetBytes) 0
scalar AnnotationShowcase.host1.app[7] packetSent:count 1
scalar AnnotationShowcase.host1.app[7] packetSent:sum(packetBytes) 256000
scalar AnnotationShowcase.host1.app[8] bytesRcvd 0
scalar AnnotationShowcase.host1.app[8] bytesSent 256000
scalar AnnotationShowcase.host1.app[8] packetReceived:count 0
scalar AnnotationShowcase.host1.app[8] packetReceived:sum(packetBytes) 0
scalar AnnotationShowcase.host1.app[8] packetSent:count 1
scalar AnnotationShowcase.host1.app[8] packetSent:sum(packetBytes) 256000
scalar AnnotationShowcase.host2.lo[0].lo rcvdPkFromHl:count 0
scalar AnnotationShowcase.host2.lo[0].lo rcvdPkFromHl:sum(packetBytes) 0
scalar AnnotationShowcase.host2.lo[0].lo passedUpPk:count 0
scalar AnnotationShowcase.host2.lo[0].lo passedUpPk:sum(packetBytes) 0
scalar AnnotationShowcase.host2.lo[0] packetDropInterfaceDown:count 0
scalar AnnotationShowcase.host2.lo[0] packetDropInterfaceDown:sum(packetBytes) 0
scalar AnnotationShowcase.host2.lo[0] packetDropNoCarrier:count 0
scalar AnnotationShowcase.host2.lo[0] packetDropNoCarrier:sum(packetBytes) 0
scalar AnnotationShowcase.host2.wlan[0].agent dropConfirm:count 0
scalar AnnotationShowcase.host2.wlan[0].agent acceptConfirm:count 3
scalar AnnotationShowcase.host2.wlan[0].agent sentRequest:count 3
scalar AnnotationShowcase.host2.wlan[0].mac.dcf.channelAccess.pendingQueue queueLength:last 0
scalar AnnotationShowcase.host2.wlan[0].mac.dcf.channelAccess.pendingQueue queueLength:max 9
scalar AnnotationShowcase.host2.wlan[0].mac.dcf.channelAccess.pendingQueue queueLength:timeavg 0.14952757234208
scalar AnnotationShowcase.host2.wlan[0].mac.dcf.channelAccess.pendingQueue queueBitLength:last 0
scalar AnnotationShowcase.host2.wlan[0].mac.dcf.channelAccess.pendingQueue queueBitLength:max 5472
scalar AnnotationShowcase.host2.wlan[0].mac.dcf.channelAccess.pendingQueue queueBitLength:timeavg 90.919020350665
scalar AnnotationShowcase.host2.wlan[0].mac.dcf.channelAccess.pendingQueue outgoingPackets:count 4340
scalar AnnotationShowcase.host2.wlan[0].mac.dcf.channelAccess.pendingQueue outgoingPacketLengths:sum 2637632
scalar AnnotationShowcase.host2.wlan[0].mac.dcf.channelAccess.pendingQueue incomingPackets:count 4340
scalar AnnotationShowcase.host2.wlan[0].mac.dcf.channelAccess.pendingQueue incomingPacketLengths:sum 2637632
scalar AnnotationShowcase.host2.wlan[0].mac.dcf.channelAccess.pendingQueue droppedPacketsQueueOverflow:count 0
scalar AnnotationShowcase.host2.wlan[0].mac.dcf.channelAccess.pendingQueue droppedPacketLengthsQueueOverflow:sum 0
scalar AnnotationShowcase.host2.wlan[0].mac.dcf.channelAccess.inProgressFrames queueLength:max 2
scalar AnnotationShowcase.host2.wlan[0].mac.dcf.channelAccess.inProgressFrames queueLength:timeavg 0.085341809429761
scalar AnnotationShowcase.host2.wlan[0].mac.dcf.channelAccess.contention channelAccessGranted:count 4385
scalar AnnotationShowcase.host2.wlan[0].mac.dcf.channelAccess.contention stateChanged:count 140618
scalar AnnotationShowcase.host2.wlan[0].mac.dcf.channelAccess channelOwnershipChanged:count 8770
scalar AnnotationShowcase.host2.wlan[0].mac.dcf.originatorMacDataService packetAggregated:count 0
scalar AnnotationShowcase.host2.wlan[0].mac.dcf.originatorMacDataService packetFragmented:count 0
scalar AnnotationShowcase.host2.wlan[0].mac.dcf.recipientMacDataService packetDeaggregated:count 0
scalar AnnotationShowcase.host2.wlan[0].mac.dcf.recipientMacDataService packetDefragmented:count 4600
scalar AnnotationShowcase.host2.wlan[0].mac.dcf.recipientMacDataService packetDropDuplicateDetected:count 0
scalar AnnotationShowcase.host2.wlan[0].mac.dcf.recipientMacDataService packetDropDuplicateDetected:sum(packetBytes) 0
scalar AnnotationShowcase.host2.wlan[0].mac.dcf.recoveryProcedure retryLimitReached:count 0
scalar AnnotationShowcase.host2.wlan[0].mac.dcf frameSequenceFinished:count 4385
scalar AnnotationShowcase.host2.wlan[0].mac.dcf packetReceivedFromPeer:count 8939
scalar AnnotationShowcase.host2.wlan[0].mac.dcf packetReceivedFromPeer:sum(packetBytes) 2717238
scalar AnnotationShowcase.host2.wlan[0].mac.dcf packetReceivedFromPeerUnicast:count 8687
scalar AnnotationShowcase.host2.wlan[0].mac.dcf packetReceivedFromPeerUnicast:sum(packetBytes) 2703134
scalar AnnotationShowcase.host2.wlan[0].mac.dcf packetReceivedFromPeerMulticast:count 252
scalar AnnotationShowcase.host2.wlan[0].mac.dcf packetReceivedFromPeerMulticast:sum(packetBytes) 14104
scalar AnnotationShowcase.host2.wlan[0].mac.dcf packetReceivedFromPeerBroadcast:count 252
scalar AnnotationShowcase.host2.wlan[0].mac.dcf packetReceivedFromPeerBroadcast:sum(packetBytes) 14104
scalar AnnotationShowcase.host2.wlan[0].mac.dcf packetReceivedFromPeerWithRetry:count 76
scalar AnnotationShowcase.host2.wlan[0].mac.dcf packetReceivedFromPeerWithRetry:sum(packetBytes) 45444
scalar AnnotationShowcase.host2.wlan[0].mac.dcf packetReceivedFromPeerWithoutRetry:count 8863
scalar AnnotationShowcase.host2.wlan[0].mac.dcf packetReceivedFromPeerWithoutRetry:sum(packetBytes) 2671794
scalar AnnotationShowcase.host2.wlan[0].mac.dcf packetSentToPeer:count 8733
scalar AnnotationShowcase.host2.wlan[0].mac.dcf packetSentToPeer:sum(packetBytes) 394000
scalar AnnotationShowcase.host2.wlan[0].mac.dcf packetSentToPeerUnicast:count 8732
scalar AnnotationShowcase.host2.wlan[0].mac.dcf packetSentToPeerUnicast:sum(packetBytes) 393960
scalar AnnotationShowcase.host2.wlan[0].mac.dcf packetSentToPeerMulticast:count 1
scalar AnnotationShowcase.host2.wlan[0].mac.dcf packetSentToPeerMulticast:sum(packetBytes) 40
scalar AnnotationShowcase.host2.wlan[0].mac.dcf packetSentToPeerBroadcast:count 1
scalar AnnotationShowcase.host2.wlan[0].mac.dcf packetSentToPeerBroadcast:sum(packetBytes) 40
scalar AnnotationShowcase.host2.wlan[0].mac.dcf packetSentToPeerWithRetry:count 45
scalar AnnotationShowcase.host2.wlan[0].mac.dcf packetSentToPeerWithRetry:sum(packetBytes) 3424
scalar AnnotationShowcase.host2.wlan[0].mac.dcf packetSentToPeerWithoutRetry:count 8688
scalar AnnotationShowcase.host2.wlan[0].mac.dcf packetSentToPeerWithoutRetry:sum(packetBytes) 390576
scalar AnnotationShowcase.host2.wlan[0].mac.dcf packetDrop:count 17387
scalar AnnotationShowcase.host2.wlan[0].mac.dcf packetDrop:sum(packetBytes) 3104994
scalar AnnotationShowcase.host2.wlan[0].mac.dcf packetDropNotAddressedToUs:count 17387
scalar AnnotationShowcase.host2.wlan[0].mac.dcf packetDropNotAddressedToUs:sum(packetBytes) 3104994
scalar AnnotationShowcase.host2.wlan[0].mac.dcf packetDropQueueOverflow:count 0
scalar AnnotationShowcase.host2.wlan[0].mac.dcf packetDropQueueOverflow:sum(packetBytes) 0
scalar AnnotationShowcase.host2.wlan[0].mac.dcf packetDropRetryLimitReached:count 0
scalar AnnotationShowcase.host2.wlan[0].mac.dcf packetDropRetryLimitReached:sum(packetBytes) 0
scalar AnnotationShowcase.host2.wlan[0].mac.dcf linkBroken:count 0
scalar AnnotationShowcase.host2.wlan[0].mac packetReceivedFromLower:count 26358
scalar AnnotationShowcase.host2.wlan[0].mac packetReceivedFromLower:sum(packetBytes) 5831096
scalar AnnotationShowcase.host2.wlan[0].mac packetSentToLower:count 8733
scalar AnnotationShowcase.host2.wlan[0].mac packetSentToLower:sum(packetBytes) 394000
scalar AnnotationShowcase.host2.wlan[0].mac packetReceivedFromUpper:count 4336
scalar AnnotationShowcase.host2.wlan[0].mac packetReceivedFromUpper:sum(packetBytes) 208152
scalar AnnotationShowcase.host2.wlan[0].mac packetSentToUpper:count 4345
scalar AnnotationShowcase.host2.wlan[0].mac packetSentToUpper:sum(packetBytes) 2520624
scalar AnnotationShowcase.host2.wlan[0].mac packetDrop:count 17419
scalar AnnotationShowcase.host2.wlan[0].mac packetDrop:sum(packetBytes) 3113858
scalar AnnotationShowcase.host2.wlan[0].mac packetDropIncorrectlyReceived:count 32
scalar AnnotationShowcase.host2.wlan[0].mac packetDropIncorrectlyReceived:sum(packetBytes) 8864
scalar AnnotationShowcase.host2.wlan[0].mac packetDropNotAddressedToUs:count 17387
scalar AnnotationShowcase.host2.wlan[0].mac packetDropNotAddressedToUs:sum(packetBytes) 3104994
scalar AnnotationShowcase.host2.wlan[0].mac packetDropQueueOverflow:count 0
scalar AnnotationShowcase.host2.wlan[0].mac packetDropQueueOverflow:sum(packetBytes) 0
scalar AnnotationShowcase.host2.wlan[0].mac packetDropRetryLimitReached:count 0
scalar AnnotationShowcase.host2.wlan[0].mac packetDropRetryLimitReached:sum(packetBytes) 0
scalar AnnotationShowcase.host2.wlan[0].mac packetDropDuplicateDetected:count 0
scalar AnnotationShowcase.host2.wlan[0].mac packetDropDuplicateDetected:sum(packetBytes) 0
scalar AnnotationShowcase.host2.wlan[0].mac packetDropOther:count 0
scalar AnnotationShowcase.host2.wlan[0].mac packetDropOther:sum(packetBytes) 0
scalar AnnotationShowcase.host2.wlan[0].mac linkBroken:count 0
scalar AnnotationShowcase.host2.wlan[0].radio radioMode:count 17469
scalar AnnotationShowcase.host2.wlan[0].radio receptionState:count 70260
scalar AnnotationShowcase.host2.wlan[0].radio transmissionState:count 34932
scalar AnnotationShowcase.host2.wlan[0] packetDropInterfaceDown:count 0
scalar AnnotationShowcase.host2.wlan[0] packetDropInterfaceDown:sum(packetBytes) 0
scalar AnnotationShowcase.host2.wlan[0] packetDropNoCarrier:count 0
scalar AnnotationShowcase.host2.wlan[0] packetDropNoCarrier:sum(packetBytes) 0
scalar AnnotationShowcase.host2.ipv4.ip packetDropAddressResolutionFailed:count 0
scalar AnnotationShowcase.host2.ipv4.ip packetDropAddressResolutionFailed:sum(packetBytes) 0
scalar AnnotationShowcase.host2.ipv4.ip packetDropHopLimitReached:count 0
scalar AnnotationShowcase.host2.ipv4.ip packetDropHopLimitReached:sum(packetBytes) 0
scalar AnnotationShowcase.host2.ipv4.ip packetDropForwardingDisabled:count 0
scalar AnnotationShowcase.host2.ipv4.ip packetDropForwardingDisabled:sum(packetBytes) 0
scalar AnnotationShowcase.host2.ipv4.ip packetDropLifetimeExpired:count 0
scalar AnnotationShowcase.host2.ipv4.ip packetDropLifetimeExpired:sum(packetBytes) 0
scalar AnnotationShowcase.host2.ipv4.ip packetDropNoInterfaceFound:count 0
scalar AnnotationShowcase.host2.ipv4.ip packetDropNoInterfaceFound:sum(packetBytes) 0
scalar AnnotationShowcase.host2.ipv4.ip packetDropNoRouteFound:count 0
scalar AnnotationShowcase.host2.ipv4.ip packetDropNoRouteFound:sum(packetBytes) 0
scalar AnnotationShowcase.host2.ipv4.ip packetDropUndefined:count 0
scalar AnnotationShowcase.host2.ipv4.ip packetDropUndefined:sum(packetBytes) 0
scalar AnnotationShowcase.host2.ipv4.arp arpResolutionFailed:count 0
scalar AnnotationShowcase.host2.ipv4.arp arpResolutionCompleted:count 1
scalar AnnotationShowcase.host2.ipv4.arp arpResolutionInitiated:count 0
scalar AnnotationShowcase.host2.ipv4.arp arpReplySent:count 1
scalar AnnotationShowcase.host2.ipv4.arp arpReplySent:sum(packetBytes) 28
scalar AnnotationShowcase.host2.ipv4.arp arpRequestSent:count 0
scalar AnnotationShowcase.host2.ipv4.arp arpRequestSent:sum(packetBytes) 0
scalar AnnotationShowcase.host2.udp packetReceived:count 0
scalar AnnotationShowcase.host2.udp packetReceived:sum(packetBytes) 0
scalar AnnotationShowcase.host2.udp packetSent:count 0
scalar AnnotationShowcase.host2.udp packetSent:sum(packetBytes) 0
scalar AnnotationShowcase.host2.udp passedUpPk:count 0
scalar AnnotationShowcase.host2.udp droppedPkWrongPort:count 0
scalar AnnotationShowcase.host2.udp droppedPkBadChecksum:count 0
scalar AnnotationShowcase.host2.app[0] bytesRcvd 256000
scalar AnnotationShowcase.host2.app[0] packetReceived:count 478
scalar AnnotationShowcase.host2.app[0] packetReceived:sum(packetBytes) 256000
scalar AnnotationShowcase.host2.app[1] bytesRcvd 256000
scalar AnnotationShowcase.host2.app[1] packetReceived:count 478
scalar AnnotationShowcase.host2.app[1] packetReceived:sum(packetBytes) 256000
scalar AnnotationShowcase.host2.app[2] bytesRcvd 256000
scalar AnnotationShowcase.host2.app[2] packetReceived:count 465
scalar AnnotationShowcase.host2.app[2] packetReceived:sum(packetBytes) 256000
scalar AnnotationShowcase.host2.app[3] bytesRcvd 256000
scalar AnnotationShowcase.host2.app[3] packetReceived:count 468
scalar AnnotationShowcase.host2.app[3] packetReceived:sum(packetBytes) 256000
scalar AnnotationShowcase.host2.app[4] bytesRcvd 256000
scalar AnnotationShowcase.host2.app[4] packetReceived:count 478
scalar AnnotationShowcase.host2.app[4] packetReceived:sum(packetBytes) 256000
scalar AnnotationShowcase.host2.app[5] bytesRcvd 256000
scalar AnnotationShowcase.host2.app[5] packetReceived:count 466
scalar AnnotationShowcase.host2.app[5] packetReceived:sum(packetBytes) 256000
scalar AnnotationShowcase.host2.app[6] bytesRcvd 256000
scalar AnnotationShowcase.host2.app[6] packetReceived:count 469
scalar AnnotationShowcase.host2.app[6] packetReceived:sum(packetBytes) 256000
scalar AnnotationShowcase.host2.app[7] bytesRcvd 256000
scalar AnnotationShowcase.host2.app[7] packetReceived:count 469
scalar AnnotationShowcase.host2.app[7] packetReceived:sum(packetBytes) 256000
scalar AnnotationShowcase.host2.app[8] bytesRcvd 256000
scalar AnnotationShowcase.host2.app[8] packetReceived:count 467
scalar AnnotationShowcase.host2.app[8] packetReceived:sum(packetBytes) 256000
scalar AnnotationShowcase.radioMedium.propagation "Arrival computation count" 70336
scalar AnnotationShowcase.radioMedium "transmission count" 35168
scalar AnnotationShowcase.radioMedium "signal send count" 70336
scalar AnnotationShowcase.radioMedium "reception computation count" 70336
scalar AnnotationShowcase.radioMedium "interference computation count" 245717
scalar AnnotationShowcase.radioMedium "reception decision computation count" 70105
scalar AnnotationShowcase.radioMedium "listening decision computation count" 105430
scalar AnnotationShowcase.radioMedium "reception cache hit" 85.689580103438
scalar AnnotationShowcase.radioMedium "interference cache hit" 66.666666666667
scalar AnnotationShowcase.radioMedium "noise cache hit" 0
scalar AnnotationShowcase.radioMedium "snir cache hit" 50
scalar AnnotationShowcase.radioMedium "reception decision cache hit" 50
scalar AnnotationShowcase.radioMedium "reception result cache hit" 0
scalar AnnotationShowcase.accessPoint.wlan[0].mac.dcf.channelAccess.pendingQueue queueLength:last 0
scalar AnnotationShowcase.accessPoint.wlan[0].mac.dcf.channelAccess.pendingQueue queueLength:max 100
scalar AnnotationShowcase.accessPoint.wlan[0].mac.dcf.channelAccess.pendingQueue queueLength:timeavg 17.633668965801
scalar AnnotationShowcase.accessPoint.wlan[0].mac.dcf.channelAccess.pendingQueue queueBitLength:last 0
scalar AnnotationShowcase.accessPoint.wlan[0].mac.dcf.channelAccess.pendingQueue queueBitLength:max 322368
scalar AnnotationShowcase.accessPoint.wlan[0].mac.dcf.channelAccess.pendingQueue queueBitLength:timeavg 48577.224184158
scalar AnnotationShowcase.accessPoint.wlan[0].mac.dcf.channelAccess.pendingQueue outgoingPackets:count 8924
scalar AnnotationShowcase.accessPoint.wlan[0].mac.dcf.channelAccess.pendingQueue outgoingPacketLengths:sum 23880320
scalar AnnotationShowcase.accessPoint.wlan[0].mac.dcf.channelAccess.pendingQueue incomingPackets:count 8959
scalar AnnotationShowcase.accessPoint.wlan[0].mac.dcf.channelAccess.pendingQueue incomingPacketLengths:sum 23987360
scalar AnnotationShowcase.accessPoint.wlan[0].mac.dcf.channelAccess.pendingQueue droppedPacketsQueueOverflow:count 35
scalar AnnotationShowcase.accessPoint.wlan[0].mac.dcf.channelAccess.pendingQueue droppedPacketLengthsQueueOverflow:sum 107040
scalar AnnotationShowcase.accessPoint.wlan[0].mac.dcf.channelAccess.inProgressFrames queueLength:max 2
scalar AnnotationShowcase.accessPoint.wlan[0].mac.dcf.channelAccess.inProgressFrames queueLength:timeavg 0.34580991996633
scalar AnnotationShowcase.accessPoint.wlan[0].mac.dcf.channelAccess.contention channelAccessGranted:count 8985
scalar AnnotationShowcase.accessPoint.wlan[0].mac.dcf.channelAccess.contention stateChanged:count 141648
scalar AnnotationShowcase.accessPoint.wlan[0].mac.dcf.channelAccess channelOwnershipChanged:count 17970
scalar AnnotationShowcase.accessPoint.wlan[0].mac.dcf.originatorMacDataService packetAggregated:count 0
scalar AnnotationShowcase.accessPoint.wlan[0].mac.dcf.originatorMacDataService packetFragmented:count 0
scalar AnnotationShowcase.accessPoint.wlan[0].mac.dcf.recipientMacDataService packetDeaggregated:count 0
scalar AnnotationShowcase.accessPoint.wlan[0].mac.dcf.recipientMacDataService packetDefragmented:count 8709
scalar AnnotationShowcase.accessPoint.wlan[0].mac.dcf.recipientMacDataService packetDropDuplicateDetected:count 0
scalar AnnotationShowcase.accessPoint.wlan[0].mac.dcf.recipientMacDataService packetDropDuplicateDetected:sum(packetBytes) 0
scalar AnnotationShowcase.accessPoint.wlan[0].mac.dcf.recoveryProcedure retryLimitReached:count 0
scalar AnnotationShowcase.accessPoint.wlan[0].mac.dcf frameSequenceFinished:count 8985
scalar AnnotationShowcase.accessPoint.wlan[0].mac.dcf packetReceivedFromPeer:count 17382
scalar AnnotationShowcase.accessPoint.wlan[0].mac.dcf packetReceivedFromPeer:sum(packetBytes) 3105794
scalar AnnotationShowcase.accessPoint.wlan[0].mac.dcf packetReceivedFromPeerUnicast:count 17380
scalar AnnotationShowcase.accessPoint.wlan[0].mac.dcf packetReceivedFromPeerUnicast:sum(packetBytes) 3105714
scalar AnnotationShowcase.accessPoint.wlan[0].mac.dcf packetReceivedFromPeerMulticast:count 2
scalar AnnotationShowcase.accessPoint.wlan[0].mac.dcf packetReceivedFromPeerMulticast:sum(packetBytes) 80
scalar AnnotationShowcase.accessPoint.wlan[0].mac.dcf packetReceivedFromPeerBroadcast:count 2
scalar AnnotationShowcase.accessPoint.wlan[0].mac.dcf packetReceivedFromPeerBroadcast:sum(packetBytes) 80
scalar AnnotationShowcase.accessPoint.wlan[0].mac.dcf packetReceivedFromPeerWithRetry:count 93
scalar AnnotationShowcase.accessPoint.wlan[0].mac.dcf packetReceivedFromPeerWithRetry:sum(packetBytes) 32804
scalar AnnotationShowcase.accessPoint.wlan[0].mac.dcf packetReceivedFromPeerWithoutRetry:count 17289
scalar AnnotationShowcase.accessPoint.wlan[0].mac.dcf packetReceivedFromPeerWithoutRetry:sum(packetBytes) 3072990
scalar AnnotationShowcase.accessPoint.wlan[0].mac.dcf packetSentToPeer:count 17692
scalar AnnotationShowcase.accessPoint.wlan[0].mac.dcf packetSentToPeer:sum(packetBytes) 3125510
scalar AnnotationShowcase.accessPoint.wlan[0].mac.dcf packetSentToPeerUnicast:count 17441
scalar AnnotationShowcase.accessPoint.wlan[0].mac.dcf packetSentToPeerUnicast:sum(packetBytes) 3111446
scalar AnnotationShowcase.accessPoint.wlan[0].mac.dcf packetSentToPeerMulticast:count 251
scalar AnnotationShowcase.accessPoint.wlan[0].mac.dcf packetSentToPeerMulticast:sum(packetBytes) 14064
scalar AnnotationShowcase.accessPoint.wlan[0].mac.dcf packetSentToPeerBroadcast:count 251
scalar AnnotationShowcase.accessPoint.wlan[0].mac.dcf packetSentToPeerBroadcast:sum(packetBytes) 14064
scalar AnnotationShowcase.accessPoint.wlan[0].mac.dcf packetSentToPeerWithRetry:count 153
scalar AnnotationShowcase.accessPoint.wlan[0].mac.dcf packetSentToPeerWithRetry:sum(packetBytes) 51300
scalar AnnotationShowcase.accessPoint.wlan[0].mac.dcf packetSentToPeerWithoutRetry:count 17539
scalar AnnotationShowcase.accessPoint.wlan[0].mac.dcf packetSentToPeerWithoutRetry:sum(packetBytes) 3074210
scalar AnnotationShowcase.accessPoint.wlan[0].mac.dcf packetDrop:count 35
scalar AnnotationShowcase.accessPoint.wlan[0].mac.dcf packetDrop:sum(packetBytes) 13380
scalar AnnotationShowcase.accessPoint.wlan[0].mac.dcf packetDropNotAddressedToUs:count 0
scalar AnnotationShowcase.accessPoint.wlan[0].mac.dcf packetDropNotAddressedToUs:sum(packetBytes) 0
scalar AnnotationShowcase.accessPoint.wlan[0].mac.dcf packetDropQueueOverflow:count 35
scalar AnnotationShowcase.accessPoint.wlan[0].mac.dcf packetDropQueueOverflow:sum(packetBytes) 13380
scalar AnnotationShowcase.accessPoint.wlan[0].mac.dcf packetDropRetryLimitReached:count 0
scalar AnnotationShowcase.accessPoint.wlan[0].mac.dcf packetDropRetryLimitReached:sum(packetBytes) 0
scalar AnnotationShowcase.accessPoint.wlan[0].mac.dcf linkBroken:count 0
scalar AnnotationShowcase.accessPoint.wlan[0].mac packetReceivedFromLower:count 17399
scalar AnnotationShowcase.accessPoint.wlan[0].mac packetReceivedFromLower:sum(packetBytes) 3115666
scalar AnnotationShowcase.accessPoint.wlan[0].mac packetSentToLower:count 17692
scalar AnnotationShowcase.accessPoint.wlan[0].mac packetSentToLower:sum(packetBytes) 3125510
scalar AnnotationShowcase.accessPoint.wlan[0].mac packetReceivedFromUpper:count 0
scalar AnnotationShowcase.accessPoint.wlan[0].mac packetReceivedFromUpper:sum(packetBytes) 0
scalar AnnotationShowcase.accessPoint.wlan[0].mac packetSentToUpper:count 1
scalar AnnotationShowcase.accessPoint.wlan[0].mac packetSentToUpper:sum(packetBytes) 36
scalar AnnotationShowcase.accessPoint.wlan[0].mac packetDrop:count 52
scalar AnnotationShowcase.accessPoint.wlan[0].mac packetDrop:sum(packetBytes) 23252
scalar AnnotationShowcase.accessPoint.wlan[0].mac packetDropIncorrectlyReceived:count 17
scalar AnnotationShowcase.accessPoint.wlan[0].mac packetDropIncorrectlyReceived:sum(packetBytes) 9872
scalar AnnotationShowcase.accessPoint.wlan[0].mac packetDropNotAddressedToUs:count 0
scalar AnnotationShowcase.accessPoint.wlan[0].mac packetDropNotAddressedToUs:sum(packetBytes) 0
scalar AnnotationShowcase.accessPoint.wlan[0].mac packetDropQueueOverflow:count 35
scalar AnnotationShowcase.accessPoint.wlan[0].mac packetDropQueueOverflow:sum(packetBytes) 13380
scalar AnnotationShowcase.accessPoint.wlan[0].mac packetDropRetryLimitReached:count 0
scalar AnnotationShowcase.accessPoint.wlan[0].mac packetDropRetryLimitReached:sum(packetBytes) 0
scalar AnnotationShowcase.accessPoint.wlan[0].mac packetDropDuplicateDetected:count 0
scalar AnnotationShowcase.accessPoint.wlan[0].mac packetDropDuplicateDetected:sum(packetBytes) 0
scalar AnnotationShowcase.accessPoint.wlan[0].mac packetDropOther:count 0
scalar AnnotationShowcase.accessPoint.wlan[0].mac packetDropOther:sum(packetBytes) 0
scalar AnnotationShowcase.accessPoint.wlan[0].mac linkBroken:count 0
scalar AnnotationShowcase.accessPoint.wlan[0].radio radioMode:count 35387
scalar AnnotationShowcase.accessPoint.wlan[0].radio receptionState:count 70230
scalar AnnotationShowcase.accessPoint.wlan[0].radio transmissionState:count 70768
scalar AnnotationShowcase.accessPoint.wlan[0] packetDropInterfaceDown:count 0
scalar AnnotationShowcase.accessPoint.wlan[0] packetDropInterfaceDown:sum(packetBytes) 0
scalar AnnotationShowcase.accessPoint.wlan[0] packetDropNoCarrier:count 0
scalar AnnotationShowcase.accessPoint.wlan[0] packetDropNoCarrier:sum(packetBytes) 0
scalar AnnotationShowcase.host1.wlan[0].mac.dcf.channelAccess.pendingQueue queueingTime:histogram:count 4369
scalar AnnotationShowcase.host1.wlan[0].mac.dcf.channelAccess.pendingQueue queueingTime:histogram:sumweights 4369
scalar AnnotationShowcase.host1.wlan[0].mac.dcf.channelAccess.pendingQueue queueingTime:histogram:mean 0.0010390234045912
scalar AnnotationShowcase.host1.wlan[0].mac.dcf.channelAccess.pendingQueue queueingTime:histogram:stddev 0.0015285351098473
scalar AnnotationShowcase.host1.wlan[0].mac.dcf.channelAccess.pendingQueue queueingTime:histogram:min 0
scalar AnnotationShowcase.host1.wlan[0].mac.dcf.channelAccess.pendingQueue queueingTime:histogram:max 0.01601468325
scalar AnnotationShowcase.host1.wlan[0].mac.dcf.channelAccess.pendingQueue queueingTime:histogram:numbins 81
scalar AnnotationShowcase.host1.wlan[0].mac.dcf.channelAccess.pendingQueue queueingTime:histogram:rangemin 0
scalar AnnotationShowcase.host1.wlan[0].mac.dcf.channelAccess.pendingQueue queueingTime:histogram:rangemax 0.0162
scalar AnnotationShowcase.host1.wlan[0].mac.dcf.channelAccess.pendingQueue queueingTime:histogram:underflows 0
scalar AnnotationShowcase.host1.wlan[0].mac.dcf.channelAccess.pendingQueue queueingTime:histogram:overflows 0
scalar AnnotationShowcase.host1.wlan[0].mac.dcf.channelAccess.pendingQueue outgoingPacketLengths:histogram:count 4369
scalar AnnotationShowcase.host1.wlan[0].mac.dcf.channelAccess.pendingQueue outgoingPacketLengths:histogram:sumweights 4369
scalar AnnotationShowcase.host1.wlan[0].mac.dcf.channelAccess.pendingQueue outgoingPacketLengths:histogram:mean 4860.9164568551
scalar AnnotationShowcase.host1.wlan[0].mac.dcf.channelAccess.pendingQueue outgoingPacketLengths:histogram:stddev 376.04704939379
scalar AnnotationShowcase.host1.wlan[0].mac.dcf.channelAccess.pendingQueue outgoingPacketLengths:histogram:min 272
scalar AnnotationShowcase.host1.wlan[0].mac.dcf.channelAccess.pendingQueue outgoingPacketLengths:histogram:max 4896
scalar AnnotationShowcase.host1.wlan[0].mac.dcf.channelAccess.pendingQueue outgoingPacketLengths:histogram:numbins 61
scalar AnnotationShowcase.host1.wlan[0].mac.dcf.channelAccess.pendingQueue outgoingPacketLengths:histogram:rangemin 0
scalar AnnotationShowcase.host1.wlan[0].mac.dcf.channelAccess.pendingQueue outgoingPacketLengths:histogram:rangemax 6100
scalar AnnotationShowcase.host1.wlan[0].mac.dcf.channelAccess.pendingQueue outgoingPacketLengths:histogram:underflows 0
scalar AnnotationShowcase.host1.wlan[0].mac.dcf.channelAccess.pendingQueue outgoingPacketLengths:histogram:overflows 0
scalar AnnotationShowcase.host1.wlan[0].mac.dcf.channelAccess.pendingQueue flowQueueingTime:histogram:count 0
scalar AnnotationShowcase.host1.wlan[0].mac.dcf.channelAccess.pendingQueue flowQueueingTime:histogram:sumweights 0
scalar AnnotationShowcase.host1.wlan[0].mac.dcf.channelAccess.pendingQueue flowQueueingTime:histogram:mean -nan
scalar AnnotationShowcase.host1.wlan[0].mac.dcf.channelAccess.pendingQueue flowQueueingTime:histogram:stddev nan
scalar AnnotationShowcase.host1.wlan[0].mac.dcf.channelAccess.pendingQueue flowQueueingTime:histogram:min nan
scalar AnnotationShowcase.host1.wlan[0].mac.dcf.channelAccess.pendingQueue flowQueueingTime:histogram:max nan
scalar AnnotationShowcase.host1.wlan[0].mac.dcf.channelAccess.pendingQueue flowQueueingTime:histogram:numbins 1
scalar AnnotationShowcase.host1.wlan[0].mac.dcf.channelAccess.pendingQueue flowQueueingTime:histogram:rangemin 0
scalar AnnotationShowcase.host1.wlan[0].mac.dcf.channelAccess.pendingQueue flowQueueingTime:histogram:rangemax 1
scalar AnnotationShowcase.host1.wlan[0].mac.dcf.channelAccess.pendingQueue flowQueueingTime:histogram:underflows 0
scalar AnnotationShowcase.host1.wlan[0].mac.dcf.channelAccess.pendingQueue flowQueueingTime:histogram:overflows 0
scalar AnnotationShowcase.host1.wlan[0].mac.dcf.channelAccess.pendingQueue incomingPacketLengths:histogram:count 4369
scalar AnnotationShowcase.host1.wlan[0].mac.dcf.channelAccess.pendingQueue incomingPacketLengths:histogram:sumweights 4369
scalar AnnotationShowcase.host1.wlan[0].mac.dcf.channelAccess.pendingQueue incomingPacketLengths:histogram:mean 4860.9164568551
scalar AnnotationShowcase.host1.wlan[0].mac.dcf.channelAccess.pendingQueue incomingPacketLengths:histogram:stddev 376.04704939379
scalar AnnotationShowcase.host1.wlan[0].mac.dcf.channelAccess.pendingQueue incomingPacketLengths:histogram:min 272
scalar AnnotationShowcase.host1.wlan[0].mac.dcf.channelAccess.pendingQueue incomingPacketLengths:histogram:max 4896
scalar AnnotationShowcase.host1.wlan[0].mac.dcf.channelAccess.pendingQueue incomingPacketLengths:histogram:numbins 61
scalar AnnotationShowcase.host1.wlan[0].mac.dcf.channelAccess.pendingQueue incomingPacketLengths:histogram:rangemin 0
scalar AnnotationShowcase.host1.wlan[0].mac.dcf.channelAccess.pendingQueue incomingPacketLengths:histogram:rangemax 6100
scalar AnnotationShowcase.host1.wlan[0].mac.dcf.channelAccess.pendingQueue incomingPacketLengths:histogram:underflows 0
scalar AnnotationShowcase.host1.wlan[0].mac.dcf.channelAccess.pendingQueue incomingPacketLengths:histogram:overflows 0
scalar AnnotationShowcase.host1.wlan[0].mac.dcf.channelAccess.inProgressFrames queueingTime:histogram:count 4369
scalar AnnotationShowcase.host1.wlan[0].mac.dcf.channelAccess.inProgressFrames queueingTime:histogram:sumweights 4369
scalar AnnotationShowcase.host1.wlan[0].mac.dcf.channelAccess.inProgressFrames queueingTime:histogram:mean 0.00071877002287024
scalar AnnotationShowcase.host1.wlan[0].mac.dcf.channelAccess.inProgressFrames queueingTime:histogram:stddev 0.00057474819570765
scalar AnnotationShowcase.host1.wlan[0].mac.dcf.channelAccess.inProgressFrames queueingTime:histogram:min 4.2e-05
scalar AnnotationShowcase.host1.wlan[0].mac.dcf.channelAccess.inProgressFrames queueingTime:histogram:max 0.004525806082
scalar AnnotationShowcase.host1.wlan[0].mac.dcf.channelAccess.inProgressFrames queueingTime:histogram:numbins 46
scalar AnnotationShowcase.host1.wlan[0].mac.dcf.channelAccess.inProgressFrames queueingTime:histogram:rangemin 0
scalar AnnotationShowcase.host1.wlan[0].mac.dcf.channelAccess.inProgressFrames queueingTime:histogram:rangemax 0.0046
scalar AnnotationShowcase.host1.wlan[0].mac.dcf.channelAccess.inProgressFrames queueingTime:histogram:underflows 0
scalar AnnotationShowcase.host1.wlan[0].mac.dcf.channelAccess.inProgressFrames queueingTime:histogram:overflows 0
scalar AnnotationShowcase.host1.wlan[0].mac.dcf frameSequenceDuration:histogram:count 4418
scalar AnnotationShowcase.host1.wlan[0].mac.dcf frameSequenceDuration:histogram:sumweights 4418
scalar AnnotationShowcase.host1.wlan[0].mac.dcf frameSequenceDuration:histogram:mean 0.00027760460158171
scalar AnnotationShowcase.host1.wlan[0].mac.dcf frameSequenceDuration:histogram:stddev 1.6140703971379e-05
scalar AnnotationShowcase.host1.wlan[0].mac.dcf frameSequenceDuration:histogram:min 4.2e-05
scalar AnnotationShowcase.host1.wlan[0].mac.dcf frameSequenceDuration:histogram:max 0.000338995452
scalar AnnotationShowcase.host1.wlan[0].mac.dcf frameSequenceDuration:histogram:numbins 68
scalar AnnotationShowcase.host1.wlan[0].mac.dcf frameSequenceDuration:histogram:rangemin 0
scalar AnnotationShowcase.host1.wlan[0].mac.dcf frameSequenceDuration:histogram:rangemax 0.00034
scalar AnnotationShowcase.host1.wlan[0].mac.dcf frameSequenceDuration:histogram:underflows 0
scalar AnnotationShowcase.host1.wlan[0].mac.dcf frameSequenceDuration:histogram:overflows 0
scalar AnnotationShowcase.host1.wlan[0].mac.dcf frameSequenceNumPackets:histogram:count 4418
scalar AnnotationShowcase.host1.wlan[0].mac.dcf frameSequenceNumPackets:histogram:sumweights 4418
scalar AnnotationShowcase.host1.wlan[0].mac.dcf frameSequenceNumPackets:histogram:mean 1.9997736532368
scalar AnnotationShowcase.host1.wlan[0].mac.dcf frameSequenceNumPackets:histogram:stddev 0.015044825131616
scalar AnnotationShowcase.host1.wlan[0].mac.dcf frameSequenceNumPackets:histogram:min 1
scalar AnnotationShowcase.host1.wlan[0].mac.dcf frameSequenceNumPackets:histogram:max 2
scalar AnnotationShowcase.host1.wlan[0].mac.dcf frameSequenceNumPackets:histogram:numbins 3
scalar AnnotationShowcase.host1.wlan[0].mac.dcf frameSequenceNumPackets:histogram:rangemin 0
scalar AnnotationShowcase.host1.wlan[0].mac.dcf frameSequenceNumPackets:histogram:rangemax 3
scalar AnnotationShowcase.host1.wlan[0].mac.dcf frameSequenceNumPackets:histogram:underflows 0
scalar AnnotationShowcase.host1.wlan[0].mac.dcf frameSequenceNumPackets:histogram:overflows 0
scalar AnnotationShowcase.host1.wlan[0].radio radioChannel:histogram:count 4
scalar AnnotationShowcase.host1.wlan[0].radio radioChannel:histogram:sumweights 4
scalar AnnotationShowcase.host1.wlan[0].radio radioChannel:histogram:mean 0
scalar AnnotationShowcase.host1.wlan[0].radio radioChannel:histogram:stddev 0
scalar AnnotationShowcase.host1.wlan[0].radio radioChannel:histogram:min 0
scalar AnnotationShowcase.host1.wlan[0].radio radioChannel:histogram:max 0
scalar AnnotationShowcase.host1.wlan[0].radio radioChannel:histogram:numbins 50
scalar AnnotationShowcase.host1.wlan[0].radio radioChannel:histogram:rangemin -0.5
scalar AnnotationShowcase.host1.wlan[0].radio radioChannel:histogram:rangemax 0.5
scalar AnnotationShowcase.host1.wlan[0].radio radioChannel:histogram:underflows 0
scalar AnnotationShowcase.host1.wlan[0].radio radioChannel:histogram:overflows 0
scalar AnnotationShowcase.host1.wlan[0].radio minSnir:histogram:count 26348
scalar AnnotationShowcase.host1.wlan[0].radio minSnir:histogram:sumweights 26348
scalar AnnotationShowcase.host1.wlan[0].radio minSnir:histogram:mean 6835.0759030807
scalar AnnotationShowcase.host1.wlan[0].radio minSnir:histogram:stddev 2778.845388835
scalar AnnotationShowcase.host1.wlan[0].radio minSnir:histogram:min 3.0351067676557
scalar AnnotationShowcase.host1.wlan[0].radio minSnir:histogram:max 8787.6826952789
scalar AnnotationShowcase.host1.wlan[0].radio minSnir:histogram:numbins 52
scalar AnnotationShowcase.host1.wlan[0].radio minSnir:histogram:rangemin 0
scalar AnnotationShowcase.host1.wlan[0].radio minSnir:histogram:rangemax 10400
scalar AnnotationShowcase.host1.wlan[0].radio minSnir:histogram:underflows 0
scalar AnnotationShowcase.host1.wlan[0].radio minSnir:histogram:overflows 0
scalar AnnotationShowcase.host1.wlan[0].radio packetErrorRate:histogram:count 26348
scalar AnnotationShowcase.host1.wlan[0].radio packetErrorRate:histogram:sumweights 26348
scalar AnnotationShowcase.host1.wlan[0].radio packetErrorRate:histogram:mean 0.0010626992561105
scalar AnnotationShowcase.host1.wlan[0].radio packetErrorRate:histogram:stddev 0.032582360538681
scalar AnnotationShowcase.host1.wlan[0].radio packetErrorRate:histogram:min 0
scalar AnnotationShowcase.host1.wlan[0].radio packetErrorRate:histogram:max 1
scalar AnnotationShowcase.host1.wlan[0].radio packetErrorRate:histogram:numbins 76
scalar AnnotationShowcase.host1.wlan[0].radio packetErrorRate:histogram:rangemin -0.5
scalar AnnotationShowcase.host1.wlan[0].radio packetErrorRate:histogram:rangemax 1.02
scalar AnnotationShowcase.host1.wlan[0].radio packetErrorRate:histogram:underflows 0
scalar AnnotationShowcase.host1.wlan[0].radio packetErrorRate:histogram:overflows 0
scalar AnnotationShowcase.host1.wlan[0].radio bitErrorRate:histogram:count 0
scalar AnnotationShowcase.host1.wlan[0].radio bitErrorRate:histogram:sumweights 0
scalar AnnotationShowcase.host1.wlan[0].radio bitErrorRate:histogram:mean -nan
scalar AnnotationShowcase.host1.wlan[0].radio bitErrorRate:histogram:stddev nan
scalar AnnotationShowcase.host1.wlan[0].radio bitErrorRate:histogram:min nan
scalar AnnotationShowcase.host1.wlan[0].radio bitErrorRate:histogram:max nan
scalar AnnotationShowcase.host1.wlan[0].radio bitErrorRate:histogram:numbins 1
scalar AnnotationShowcase.host1.wlan[0].radio bitErrorRate:histogram:rangemin 0
scalar AnnotationShowcase.host1.wlan[0].radio bitErrorRate:histogram:rangemax 1
scalar AnnotationShowcase.host1.wlan[0].radio bitErrorRate:histogram:underflows 0
scalar AnnotationShowcase.host1.wlan[0].radio bitErrorRate:histogram:overflows 0
scalar AnnotationShowcase.host1.wlan[0].radio symbolErrorRate:histogram:count 0
scalar AnnotationShowcase.host1.wlan[0].radio symbolErrorRate:histogram:sumweights 0
scalar AnnotationShowcase.host1.wlan[0].radio symbolErrorRate:histogram:mean -nan
scalar AnnotationShowcase.host1.wlan[0].radio symbolErrorRate:histogram:stddev nan
scalar AnnotationShowcase.host1.wlan[0].radio symbolErrorRate:histogram:min nan
scalar AnnotationShowcase.host1.wlan[0].radio symbolErrorRate:histogram:max nan
scalar AnnotationShowcase.host1.wlan[0].radio symbolErrorRate:histogram:numbins 1
scalar AnnotationShowcase.host1.wlan[0].radio symbolErrorRate:histogram:rangemin 0
scalar AnnotationShowcase.host1.wlan[0].radio symbolErrorRate:histogram:rangemax 1
scalar AnnotationShowcase.host1.wlan[0].radio symbolErrorRate:histogram:underflows 0
scalar AnnotationShowcase.host1.wlan[0].radio symbolErrorRate:histogram:overflows 0
scalar AnnotationShowcase.host1.app[0] endToEndDelay:histogram:count 0
scalar AnnotationShowcase.host1.app[0] endToEndDelay:histogram:sumweights 0
scalar AnnotationShowcase.host1.app[0] endToEndDelay:histogram:mean -nan
scalar AnnotationShowcase.host1.app[0] endToEndDelay:histogram:stddev nan
scalar AnnotationShowcase.host1.app[0] endToEndDelay:histogram:min nan
scalar AnnotationShowcase.host1.app[0] endToEndDelay:histogram:max nan
scalar AnnotationShowcase.host1.app[0] endToEndDelay:histogram:numbins 1
scalar AnnotationShowcase.host1.app[0] endToEndDelay:histogram:rangemin 0
scalar AnnotationShowcase.host1.app[0] endToEndDelay:histogram:rangemax 1
scalar AnnotationShowcase.host1.app[0] endToEndDelay:histogram:underflows 0
scalar AnnotationShowcase.host1.app[0] endToEndDelay:histogram:overflows 0
scalar AnnotationShowcase.host1.app[0] endToEndDelay:weightedHistogram:count 0
scalar AnnotationShowcase.host1.app[0] endToEndDelay:weightedHistogram:sumweights 0
scalar AnnotationShowcase.host1.app[0] endToEndDelay:weightedHistogram:mean -nan
scalar AnnotationShowcase.host1.app[0] endToEndDelay:weightedHistogram:stddev nan
scalar AnnotationShowcase.host1.app[0] endToEndDelay:weightedHistogram:min nan
scalar AnnotationShowcase.host1.app[0] endToEndDelay:weightedHistogram:max nan
scalar AnnotationShowcase.host1.app[0] endToEndDelay:weightedHistogram:numbins 1
scalar AnnotationShowcase.host1.app[0] endToEndDelay:weightedHistogram:rangemin 0
scalar AnnotationShowcase.host1.app[0] endToEndDelay:weightedHistogram:rangemax 1
scalar AnnotationShowcase.host1.app[0] endToEndDelay:weightedHistogram:underflows 0
scalar AnnotationShowcase.host1.app[0] endToEndDelay:weightedHistogram:overflows 0
scalar AnnotationShowcase.host1.app[1] endToEndDelay:histogram:count 0
scalar AnnotationShowcase.host1.app[1] endToEndDelay:histogram:sumweights 0
scalar AnnotationShowcase.host1.app[1] endToEndDelay:histogram:mean -nan
scalar AnnotationShowcase.host1.app[1] endToEndDelay:histogram:stddev nan
scalar AnnotationShowcase.host1.app[1] endToEndDelay:histogram:min nan
scalar AnnotationShowcase.host1.app[1] endToEndDelay:histogram:max nan
scalar AnnotationShowcase.host1.app[1] endToEndDelay:histogram:numbins 1
scalar AnnotationShowcase.host1.app[1] endToEndDelay:histogram:rangemin 0
scalar AnnotationShowcase.host1.app[1] endToEndDelay:histogram:rangemax 1
scalar AnnotationShowcase.host1.app[1] endToEndDelay:histogram:underflows 0
scalar AnnotationShowcase.host1.app[1] endToEndDelay:histogram:overflows 0
scalar AnnotationShowcase.host1.app[1] endToEndDelay:weightedHistogram:count 0
scalar AnnotationShowcase.host1.app[1] endToEndDelay:weightedHistogram:sumweights 0
scalar AnnotationShowcase.host1.app[1] endToEndDelay:weightedHistogram:mean -nan
scalar AnnotationShowcase.host1.app[1] endToEndDelay:weightedHistogram:stddev nan
scalar AnnotationShowcase.host1.app[1] endToEndDelay:weightedHistogram:min nan
scalar AnnotationShowcase.host1.app[1] endToEndDelay:weightedHistogram:max nan
scalar AnnotationShowcase.host1.app[1] endToEndDelay:weightedHistogram:numbins 1
scalar AnnotationShowcase.host1.app[1] endToEndDelay:weightedHistogram:rangemin 0
scalar AnnotationShowcase.host1.app[1] endToEndDelay:weightedHistogram:rangemax 1
scalar AnnotationShowcase.host1.app[1] endToEndDelay:weightedHistogram:underflows 0
scalar AnnotationShowcase.host1.app[1] endToEndDelay:weightedHistogram:overflows 0
scalar AnnotationShowcase.host1.app[2] endToEndDelay:histogram:count 0
scalar AnnotationShowcase.host1.app[2] endToEndDelay:histogram:sumweights 0
scalar AnnotationShowcase.host1.app[2] endToEndDelay:histogram:mean -nan
scalar AnnotationShowcase.host1.app[2] endToEndDelay:histogram:stddev nan
scalar AnnotationShowcase.host1.app[2] endToEndDelay:histogram:min nan
scalar AnnotationShowcase.host1.app[2] endToEndDelay:histogram:max nan
scalar AnnotationShowcase.host1.app[2] endToEndDelay:histogram:numbins 1
scalar AnnotationShowcase.host1.app[2] endToEndDelay:histogram:rangemin 0
scalar AnnotationShowcase.host1.app[2] endToEndDelay:histogram:rangemax 1
scalar AnnotationShowcase.host1.app[2] endToEndDelay:histogram:underflows 0
scalar AnnotationShowcase.host1.app[2] endToEndDelay:histogram:overflows 0
scalar AnnotationShowcase.host1.app[2] endToEndDelay:weightedHistogram:count 0
scalar AnnotationShowcase.host1.app[2] endToEndDelay:weightedHistogram:sumweights 0
scalar AnnotationShowcase.host1.app[2] endToEndDelay:weightedHistogram:mean -nan
scalar AnnotationShowcase.host1.app[2] endToEndDelay:weightedHistogram:stddev nan
scalar AnnotationShowcase.host1.app[2] endToEndDelay:weightedHistogram:min nan
scalar AnnotationShowcase.host1.app[2] endToEndDelay:weightedHistogram:max nan
scalar AnnotationShowcase.host1.app[2] endToEndDelay:weightedHistogram:numbins 1
scalar AnnotationShowcase.host1.app[2] endToEndDelay:weightedHistogram:rangemin 0
scalar AnnotationShowcase.host1.app[2] endToEndDelay:weightedHistogram:rangemax 1
scalar AnnotationShowcase.host1.app[2] endToEndDelay:weightedHistogram:underflows 0
scalar AnnotationShowcase.host1.app[2] endToEndDelay:weightedHistogram:overflows 0
scalar AnnotationShowcase.host1.app[3] endToEndDelay:histogram:count 0
scalar AnnotationShowcase.host1.app[3] endToEndDelay:histogram:sumweights 0
scalar AnnotationShowcase.host1.app[3] endToEndDelay:histogram:mean -nan
scalar AnnotationShowcase.host1.app[3] endToEndDelay:histogram:stddev nan
scalar AnnotationShowcase.host1.app[3] endToEndDelay:histogram:min nan
scalar AnnotationShowcase.host1.app[3] endToEndDelay:histogram:max nan
scalar AnnotationShowcase.host1.app[3] endToEndDelay:histogram:numbins 1
scalar AnnotationShowcase.host1.app[3] endToEndDelay:histogram:rangemin 0
scalar AnnotationShowcase.host1.app[3] endToEndDelay:histogram:rangemax 1
scalar AnnotationShowcase.host1.app[3] endToEndDelay:histogram:underflows 0
scalar AnnotationShowcase.host1.app[3] endToEndDelay:histogram:overflows 0
scalar AnnotationShowcase.host1.app[3] endToEndDelay:weightedHistogram:count 0
scalar AnnotationShowcase.host1.app[3] endToEndDelay:weightedHistogram:sumweights 0
scalar AnnotationShowcase.host1.app[3] endToEndDelay:weightedHistogram:mean -nan
scalar AnnotationShowcase.host1.app[3] endToEndDelay:weightedHistogram:stddev nan
scalar AnnotationShowcase.host1.app[3] endToEndDelay:weightedHistogram:min nan
scalar AnnotationShowcase.host1.app[3] endToEndDelay:weightedHistogram:max nan
scalar AnnotationShowcase.host1.app[3] endToEndDelay:weightedHistogram:numbins 1
scalar AnnotationShowcase.host1.app[3] endToEndDelay:weightedHistogram:rangemin 0
scalar AnnotationShowcase.host1.app[3] endToEndDelay:weightedHistogram:rangemax 1
scalar AnnotationShowcase.host1.app[3] endToEndDelay:weightedHistogram:underflows 0
scalar AnnotationShowcase.host1.app[3] endToEndDelay:weightedHistogram:overflows 0
scalar AnnotationShowcase.host1.app[4] endToEndDelay:histogram:count 0
scalar AnnotationShowcase.host1.app[4] endToEndDelay:histogram:sumweights 0
scalar AnnotationShowcase.host1.app[4] endToEndDelay:histogram:mean -nan
scalar AnnotationShowcase.host1.app[4] endToEndDelay:histogram:stddev nan
scalar AnnotationShowcase.host1.app[4] endToEndDelay:histogram:min nan
scalar AnnotationShowcase.host1.app[4] endToEndDelay:histogram:max nan
scalar AnnotationShowcase.host1.app[4] endToEndDelay:histogram:numbins 1
scalar AnnotationShowcase.host1.app[4] endToEndDelay:histogram:rangemin 0
scalar AnnotationShowcase.host1.app[4] endToEndDelay:histogram:rangemax 1
scalar AnnotationShowcase.host1.app[4] endToEndDelay:histogram:underflows 0
scalar AnnotationShowcase.host1.app[4] endToEndDelay:histogram:overflows 0
scalar AnnotationShowcase.host1.app[4] endToEndDelay:weightedHistogram:count 0
scalar AnnotationShowcase.host1.app[4] endToEndDelay:weightedHistogram:sumweights 0
scalar AnnotationShowcase.host1.app[4] endToEndDelay:weightedHistogram:mean -nan
scalar AnnotationShowcase.host1.app[4] endToEndDelay:weightedHistogram:stddev nan
scalar AnnotationShowcase.host1.app[4] endToEndDelay:weightedHistogram:min nan
scalar AnnotationShowcase.host1.app[4] endToEndDelay:weightedHistogram:max nan
scalar AnnotationShowcase.host1.app[4] endToEndDelay:weightedHistogram:numbins 1
scalar AnnotationShowcase.host1.app[4] endToEndDelay:weightedHistogram:rangemin 0
scalar AnnotationShowcase.host1.app[4] endToEndDelay:weightedHistogram:rangemax 1
scalar AnnotationShowcase.host1.app[4] endToEndDelay:weightedHistogram:underflows 0
scalar AnnotationShowcase.host1.app[4] endToEndDelay:weightedHistogram:overflows 0
scalar AnnotationShowcase.host1.app[5] endToEndDelay:histogram:count 0
scalar AnnotationShowcase.host1.app[5] endToEndDelay:histogram:sumweights 0
scalar AnnotationShowcase.host1.app[5] endToEndDelay:histogram:mean -nan
scalar AnnotationShowcase.host1.app[5] endToEndDelay:histogram:stddev nan
scalar AnnotationShowcase.host1.app[5] endToEndDelay:histogram:min nan
scalar AnnotationShowcase.host1.app[5] endToEndDelay:histogram:max nan
scalar AnnotationShowcase.host1.app[5] endToEndDelay:histogram:numbins 1
scalar AnnotationShowcase.host1.app[5] endToEndDelay:histogram:rangemin 0
scalar AnnotationShowcase.host1.app[5] endToEndDelay:histogram:rangemax 1
scalar AnnotationShowcase.host1.app[5] endToEndDelay:histogram:underflows 0
scalar AnnotationShowcase.host1.app[5] endToEndDelay:histogram:overflows 0
scalar AnnotationShowcase.host1.app[5] endToEndDelay:weightedHistogram:count 0
scalar AnnotationShowcase.host1.app[5] endToEndDelay:weightedHistogram:sumweights 0
scalar AnnotationShowcase.host1.app[5] endToEndDelay:weightedHistogram:mean -nan
scalar AnnotationShowcase.host1.app[5] endToEndDelay:weightedHistogram:stddev nan
scalar AnnotationShowcase.host1.app[5] endToEndDelay:weightedHistogram:min nan
scalar AnnotationShowcase.host1.app[5] endToEndDelay:weightedHistogram:max nan
scalar AnnotationShowcase.host1.app[5] endToEndDelay:weightedHistogram:numbins 1
scalar AnnotationShowcase.host1.app[5] endToEndDelay:weightedHistogram:rangemin 0
scalar AnnotationShowcase.host1.app[5] endToEndDelay:weightedHistogram:rangemax 1
scalar AnnotationShowcase.host1.app[5] endToEndDelay:weightedHistogram:underflows 0
scalar AnnotationShowcase.host1.app[5] endToEndDelay:weightedHistogram:overflows 0
scalar AnnotationShowcase.host1.app[6] endToEndDelay:histogram:count 0
scalar AnnotationShowcase.host1.app[6] endToEndDelay:histogram:sumweights 0
scalar AnnotationShowcase.host1.app[6] endToEndDelay:histogram:mean -nan
scalar AnnotationShowcase.host1.app[6] endToEndDelay:histogram:stddev nan
scalar AnnotationShowcase.host1.app[6] endToEndDelay:histogram:min nan
scalar AnnotationShowcase.host1.app[6] endToEndDelay:histogram:max nan
scalar AnnotationShowcase.host1.app[6] endToEndDelay:histogram:numbins 1
scalar AnnotationShowcase.host1.app[6] endToEndDelay:histogram:rangemin 0
scalar AnnotationShowcase.host1.app[6] endToEndDelay:histogram:rangemax 1
scalar AnnotationShowcase.host1.app[6] endToEndDelay:histogram:underflows 0
scalar AnnotationShowcase.host1.app[6] endToEndDelay:histogram:overflows 0
scalar AnnotationShowcase.host1.app[6] endToEndDelay:weightedHistogram:count 0
scalar AnnotationShowcase.host1.app[6] endToEndDelay:weightedHistogram:sumweights 0
scalar AnnotationShowcase.host1.app[6] endToEndDelay:weightedHistogram:mean -nan
scalar AnnotationShowcase.host1.app[6] endToEndDelay:weightedHistogram:stddev nan
scalar AnnotationShowcase.host1.app[6] endToEndDelay:weightedHistogram:min nan
scalar AnnotationShowcase.host1.app[6] endToEndDelay:weightedHistogram:max nan
scalar AnnotationShowcase.host1.app[6] endToEndDelay:weightedHistogram:numbins 1
scalar AnnotationShowcase.host1.app[6] endToEndDelay:weightedHistogram:rangemin 0
scalar AnnotationShowcase.host1.app[6] endToEndDelay:weightedHistogram:rangemax 1
scalar AnnotationShowcase.host1.app[6] endToEndDelay:weightedHistogram:underflows 0
scalar AnnotationShowcase.host1.app[6] endToEndDelay:weightedHistogram:overflows 0
scalar AnnotationShowcase.host1.app[7] endToEndDelay:histogram:count 0
scalar AnnotationShowcase.host1.app[7] endToEndDelay:histogram:sumweights 0
scalar AnnotationShowcase.host1.app[7] endToEndDelay:histogram:mean -nan
scalar AnnotationShowcase.host1.app[7] endToEndDelay:histogram:stddev nan
scalar AnnotationShowcase.host1.app[7] endToEndDelay:histogram:min nan
scalar AnnotationShowcase.host1.app[7] endToEndDelay:histogram:max nan
scalar AnnotationShowcase.host1.app[7] endToEndDelay:histogram:numbins 1
scalar AnnotationShowcase.host1.app[7] endToEndDelay:histogram:rangemin 0
scalar AnnotationShowcase.host1.app[7] endToEndDelay:histogram:rangemax 1
scalar AnnotationShowcase.host1.app[7] endToEndDelay:histogram:underflows 0
scalar AnnotationShowcase.host1.app[7] endToEndDelay:histogram:overflows 0
scalar AnnotationShowcase.host1.app[7] endToEndDelay:weightedHistogram:count 0
scalar AnnotationShowcase.host1.app[7] endToEndDelay:weightedHistogram:sumweights 0
scalar AnnotationShowcase.host1.app[7] endToEndDelay:weightedHistogram:mean -nan
scalar AnnotationShowcase.host1.app[7] endToEndDelay:weightedHistogram:stddev nan
scalar AnnotationShowcase.host1.app[7] endToEndDelay:weightedHistogram:min nan
scalar AnnotationShowcase.host1.app[7] endToEndDelay:weightedHistogram:max nan
scalar AnnotationShowcase.host1.app[7] endToEndDelay:weightedHistogram:numbins 1
scalar AnnotationShowcase.host1.app[7] endToEndDelay:weightedHistogram:rangemin 0
scalar AnnotationShowcase.host1.app[7] endToEndDelay:weightedHistogram:rangemax 1
scalar AnnotationShowcase.host1.app[7] endToEndDelay:weightedHistogram:underflows 0
scalar AnnotationShowcase.host1.app[7] endToEndDelay:weightedHistogram:overflows 0
scalar AnnotationShowcase.host1.app[8] endToEndDelay:histogram:count 0
scalar AnnotationShowcase.host1.app[8] endToEndDelay:histogram:sumweights 0
scalar AnnotationShowcase.host1.app[8] endToEndDelay:histogram:mean -nan
scalar AnnotationShowcase.host1.app[8] endToEndDelay:histogram:stddev nan
scalar AnnotationShowcase.host1.app[8] endToEndDelay:histogram:min nan
scalar AnnotationShowcase.host1.app[8] endToEndDelay:histogram:max nan
scalar AnnotationShowcase.host1.app[8] endToEndDelay:histogram:numbins 1
scalar AnnotationShowcase.host1.app[8] endToEndDelay:histogram:rangemin 0
scalar AnnotationShowcase.host1.app[8] endToEndDelay:histogram:rangemax 1
scalar AnnotationShowcase.host1.app[8] endToEndDelay:histogram:underflows 0
scalar AnnotationShowcase.host1.app[8] endToEndDelay:histogram:overflows 0
scalar AnnotationShowcase.host1.app[8] endToEndDelay:weightedHistogram:count 0
scalar AnnotationShowcase.host1.app[8] endToEndDelay:weightedHistogram:sumweights 0
scalar AnnotationShowcase.host1.app[8] endToEndDelay:weightedHistogram:mean -nan
scalar AnnotationShowcase.host1.app[8] endToEndDelay:weightedHistogram:stddev nan
scalar AnnotationShowcase.host1.app[8] endToEndDelay:weightedHistogram:min nan
scalar AnnotationShowcase.host1.app[8] endToEndDelay:weightedHistogram:max nan
scalar AnnotationShowcase.host1.app[8] endToEndDelay:weightedHistogram:numbins 1
scalar AnnotationShowcase.host1.app[8] endToEndDelay:weightedHistogram:rangemin 0
scalar AnnotationShowcase.host1.app[8] endToEndDelay:weightedHistogram:rangemax 1
scalar AnnotationShowcase.host1.app[8] endToEndDelay:weightedHistogram:underflows 0
scalar AnnotationShowcase.host1.app[8] endToEndDelay:weightedHistogram:overflows 0
scalar AnnotationShowcase.host2.wlan[0].mac.dcf.channelAccess.pendingQueue queueingTime:histogram:count 4340
scalar AnnotationShowcase.host2.wlan[0].mac.dcf.channelAccess.pendingQueue queueingTime:histogram:sumweights 4340
scalar AnnotationShowcase.host2.wlan[0].mac.dcf.channelAccess.pendingQueue queueingTime:histogram:mean 0.00086133394206267
scalar AnnotationShowcase.host2.wlan[0].mac.dcf.channelAccess.pendingQueue queueingTime:histogram:stddev 0.00079771487030928
scalar AnnotationShowcase.host2.wlan[0].mac.dcf.channelAccess.pendingQueue queueingTime:histogram:min 0
scalar AnnotationShowcase.host2.wlan[0].mac.dcf.channelAccess.pendingQueue queueingTime:histogram:max 0.007998890978
scalar AnnotationShowcase.host2.wlan[0].mac.dcf.channelAccess.pendingQueue queueingTime:histogram:numbins 80
scalar AnnotationShowcase.host2.wlan[0].mac.dcf.channelAccess.pendingQueue queueingTime:histogram:rangemin 0
scalar AnnotationShowcase.host2.wlan[0].mac.dcf.channelAccess.pendingQueue queueingTime:histogram:rangemax 0.008
scalar AnnotationShowcase.host2.wlan[0].mac.dcf.channelAccess.pendingQueue queueingTime:histogram:underflows 0
scalar AnnotationShowcase.host2.wlan[0].mac.dcf.channelAccess.pendingQueue queueingTime:histogram:overflows 0
scalar AnnotationShowcase.host2.wlan[0].mac.dcf.channelAccess.pendingQueue outgoingPacketLengths:histogram:count 4340
scalar AnnotationShowcase.host2.wlan[0].mac.dcf.channelAccess.pendingQueue outgoingPacketLengths:histogram:sumweights 4340
scalar AnnotationShowcase.host2.wlan[0].mac.dcf.channelAccess.pendingQueue outgoingPacketLengths:histogram:mean 607.74930875576
scalar AnnotationShowcase.host2.wlan[0].mac.dcf.channelAccess.pendingQueue outgoingPacketLengths:histogram:stddev 9.9467961018107
scalar AnnotationShowcase.host2.wlan[0].mac.dcf.channelAccess.pendingQueue outgoingPacketLengths:histogram:min 272
scalar AnnotationShowcase.host2.wlan[0].mac.dcf.channelAccess.pendingQueue outgoingPacketLengths:histogram:max 640
scalar AnnotationShowcase.host2.wlan[0].mac.dcf.channelAccess.pendingQueue outgoingPacketLengths:histogram:numbins 56
scalar AnnotationShowcase.host2.wlan[0].mac.dcf.channelAccess.pendingQueue outgoingPacketLengths:histogram:rangemin 180
scalar AnnotationShowcase.host2.wlan[0].mac.dcf.channelAccess.pendingQueue outgoingPacketLengths:histogram:rangemax 740
scalar AnnotationShowcase.host2.wlan[0].mac.dcf.channelAccess.pendingQueue outgoingPacketLengths:histogram:underflows 0
scalar AnnotationShowcase.host2.wlan[0].mac.dcf.channelAccess.pendingQueue outgoingPacketLengths:histogram:overflows 0
scalar AnnotationShowcase.host2.wlan[0].mac.dcf.channelAccess.pendingQueue flowQueueingTime:histogram:count 0
scalar AnnotationShowcase.host2.wlan[0].mac.dcf.channelAccess.pendingQueue flowQueueingTime:histogram:sumweights 0
scalar AnnotationShowcase.host2.wlan[0].mac.dcf.channelAccess.pendingQueue flowQueueingTime:histogram:mean -nan
scalar AnnotationShowcase.host2.wlan[0].mac.dcf.channelAccess.pendingQueue flowQueueingTime:histogram:stddev nan
scalar AnnotationShowcase.host2.wlan[0].mac.dcf.channelAccess.pendingQueue flowQueueingTime:histogram:min nan
scalar AnnotationShowcase.host2.wlan[0].mac.dcf.channelAccess.pendingQueue flowQueueingTime:histogram:max nan
scalar AnnotationShowcase.host2.wlan[0].mac.dcf.channelAccess.pendingQueue flowQueueingTime:histogram:numbins 1
scalar AnnotationShowcase.host2.wlan[0].mac.dcf.channelAccess.pendingQueue flowQueueingTime:histogram:rangemin 0
scalar AnnotationShowcase.host2.wlan[0].mac.dcf.channelAccess.pendingQueue flowQueueingTime:histogram:rangemax 1
scalar AnnotationShowcase.host2.wlan[0].mac.dcf.channelAccess.pendingQueue flowQueueingTime:histogram:underflows 0
scalar AnnotationShowcase.host2.wlan[0].mac.dcf.channelAccess.pendingQueue flowQueueingTime:histogram:overflows 0
scalar AnnotationShowcase.host2.wlan[0].mac.dcf.channelAccess.pendingQueue incomingPacketLengths:histogram:count 4340
scalar AnnotationShowcase.host2.wlan[0].mac.dcf.channelAccess.pendingQueue incomingPacketLengths:histogram:sumweights 4340
scalar AnnotationShowcase.host2.wlan[0].mac.dcf.channelAccess.pendingQueue incomingPacketLengths:histogram:mean 607.74930875576
scalar AnnotationShowcase.host2.wlan[0].mac.dcf.channelAccess.pendingQueue incomingPacketLengths:histogram:stddev 9.9467961018107
scalar AnnotationShowcase.host2.wlan[0].mac.dcf.channelAccess.pendingQueue incomingPacketLengths:histogram:min 272
scalar AnnotationShowcase.host2.wlan[0].mac.dcf.channelAccess.pendingQueue incomingPacketLengths:histogram:max 640
scalar AnnotationShowcase.host2.wlan[0].mac.dcf.channelAccess.pendingQueue incomingPacketLengths:histogram:numbins 56
scalar AnnotationShowcase.host2.wlan[0].mac.dcf.channelAccess.pendingQueue incomingPacketLengths:histogram:rangemin 180
scalar AnnotationShowcase.host2.wlan[0].mac.dcf.channelAccess.pendingQueue incomingPacketLengths:histogram:rangemax 740
scalar AnnotationShowcase.host2.wlan[0].mac.dcf.channelAccess.pendingQueue incomingPacketLengths:histogram:underflows 0
scalar AnnotationShowcase.host2.wlan[0].mac.dcf.channelAccess.pendingQueue incomingPacketLengths:histogram:overflows 0
scalar AnnotationShowcase.host2.wlan[0].mac.dcf.channelAccess.inProgressFrames queueingTime:histogram:count 4340
scalar AnnotationShowcase.host2.wlan[0].mac.dcf.channelAccess.inProgressFrames queueingTime:histogram:sumweights 4340
scalar AnnotationShowcase.host2.wlan[0].mac.dcf.channelAccess.inProgressFrames queueingTime:histogram:mean 0.00049160028473366
scalar AnnotationShowcase.host2.wlan[0].mac.dcf.channelAccess.inProgressFrames queueingTime:histogram:stddev 0.00057932897301675
scalar AnnotationShowcase.host2.wlan[0].mac.dcf.channelAccess.inProgressFrames queueingTime:histogram:min 4.2e-05
scalar AnnotationShowcase.host2.wlan[0].mac.dcf.channelAccess.inProgressFrames queueingTime:histogram:max 0.005062026364
scalar AnnotationShowcase.host2.wlan[0].mac.dcf.channelAccess.inProgressFrames queueingTime:histogram:numbins 51
scalar AnnotationShowcase.host2.wlan[0].mac.dcf.channelAccess.inProgressFrames queueingTime:histogram:rangemin 0
scalar AnnotationShowcase.host2.wlan[0].mac.dcf.channelAccess.inProgressFrames queueingTime:histogram:rangemax 0.0051
scalar AnnotationShowcase.host2.wlan[0].mac.dcf.channelAccess.inProgressFrames queueingTime:histogram:underflows 0
scalar AnnotationShowcase.host2.wlan[0].mac.dcf.channelAccess.inProgressFrames queueingTime:histogram:overflows 0
scalar AnnotationShowcase.host2.wlan[0].mac.dcf frameSequenceDuration:histogram:count 4385
scalar AnnotationShowcase.host2.wlan[0].mac.dcf frameSequenceDuration:histogram:sumweights 4385
scalar AnnotationShowcase.host2.wlan[0].mac.dcf frameSequenceDuration:histogram:mean 9.9142755723156e-05
scalar AnnotationShowcase.host2.wlan[0].mac.dcf frameSequenceDuration:histogram:stddev 1.3609332387892e-06
scalar AnnotationShowcase.host2.wlan[0].mac.dcf frameSequenceDuration:histogram:min 4.2e-05
scalar AnnotationShowcase.host2.wlan[0].mac.dcf frameSequenceDuration:histogram:max 0.000109
scalar AnnotationShowcase.host2.wlan[0].mac.dcf frameSequenceDuration:histogram:numbins 51
scalar AnnotationShowcase.host2.wlan[0].mac.dcf frameSequenceDuration:histogram:rangemin 2.4e-05
scalar AnnotationShowcase.host2.wlan[0].mac.dcf frameSequenceDuration:histogram:rangemax 0.000126
scalar AnnotationShowcase.host2.wlan[0].mac.dcf frameSequenceDuration:histogram:underflows 0
scalar AnnotationShowcase.host2.wlan[0].mac.dcf frameSequenceDuration:histogram:overflows 0
scalar AnnotationShowcase.host2.wlan[0].mac.dcf frameSequenceNumPackets:histogram:count 4385
scalar AnnotationShowcase.host2.wlan[0].mac.dcf frameSequenceNumPackets:histogram:sumweights 4385
scalar AnnotationShowcase.host2.wlan[0].mac.dcf frameSequenceNumPackets:histogram:mean 1.999771949829
scalar AnnotationShowcase.host2.wlan[0].mac.dcf frameSequenceNumPackets:histogram:stddev 0.015101330108218
scalar AnnotationShowcase.host2.wlan[0].mac.dcf frameSequenceNumPackets:histogram:min 1
scalar AnnotationShowcase.host2.wlan[0].mac.dcf frameSequenceNumPackets:histogram:max 2
scalar AnnotationShowcase.host2.wlan[0].mac.dcf frameSequenceNumPackets:histogram:numbins 3
scalar AnnotationShowcase.host2.wlan[0].mac.dcf frameSequenceNumPackets:histogram:rangemin 0
scalar AnnotationShowcase.host2.wlan[0].mac.dcf frameSequenceNumPackets:histogram:rangemax 3
scalar AnnotationShowcase.host2.wlan[0].mac.dcf frameSequenceNumPackets:histogram:underflows 0
scalar AnnotationShowcase.host2.wlan[0].mac.dcf frameSequenceNumPackets:histogram:overflows 0
scalar AnnotationShowcase.host2.wlan[0].radio radioChannel:histogram:count 4
scalar AnnotationShowcase.host2.wlan[0].radio radioChannel:histogram:sumweights 4
scalar AnnotationShowcase.host2.wlan[0].radio radioChannel:histogram:mean 0
scalar AnnotationShowcase.host2.wlan[0].radio radioChannel:histogram:stddev 0
scalar AnnotationShowcase.host2.wlan[0].radio radioChannel:histogram:min 0
scalar AnnotationShowcase.host2.wlan[0].radio radioChannel:histogram:max 0
scalar AnnotationShowcase.host2.wlan[0].radio radioChannel:histogram:numbins 50
scalar AnnotationShowcase.host2.wlan[0].radio radioChannel:histogram:rangemin -0.5
scalar AnnotationShowcase.host2.wlan[0].radio radioChannel:histogram:rangemax 0.5
scalar AnnotationShowcase.host2.wlan[0].radio radioChannel:histogram:underflows 0
scalar AnnotationShowcase.host2.wlan[0].radio radioChannel:histogram:overflows 0
scalar AnnotationShowcase.host2.wlan[0].radio minSnir:histogram:count 26358
scalar AnnotationShowcase.host2.wlan[0].radio minSnir:histogram:sumweights 26358
scalar AnnotationShowcase.host2.wlan[0].radio minSnir:histogram:mean 6110.6364956165
scalar AnnotationShowcase.host2.wlan[0].radio minSnir:histogram:stddev 2272.3526131077
scalar AnnotationShowcase.host2.wlan[0].radio minSnir:histogram:min 2.6620702061002
scalar AnnotationShowcase.host2.wlan[0].radio minSnir:histogram:max 7707.6129686975
scalar AnnotationShowcase.host2.wlan[0].radio minSnir:histogram:numbins 90
scalar AnnotationShowcase.host2.wlan[0].radio minSnir:histogram:rangemin 0
scalar AnnotationShowcase.host2.wlan[0].radio minSnir:histogram:rangemax 9000
scalar AnnotationShowcase.host2.wlan[0].radio minSnir:histogram:underflows 0
scalar AnnotationShowcase.host2.wlan[0].radio minSnir:histogram:overflows 0
scalar AnnotationShowcase.host2.wlan[0].radio packetErrorRate:histogram:count 26358
scalar AnnotationShowcase.host2.wlan[0].radio packetErrorRate:histogram:sumweights 26358
scalar AnnotationShowcase.host2.wlan[0].radio packetErrorRate:histogram:mean 0.0012140526595341
scalar AnnotationShowcase.host2.wlan[0].radio packetErrorRate:histogram:stddev 0.034822761832179
scalar AnnotationShowcase.host2.wlan[0].radio packetErrorRate:histogram:min 0
scalar AnnotationShowcase.host2.wlan[0].radio packetErrorRate:histogram:max 1
scalar AnnotationShowcase.host2.wlan[0].radio packetErrorRate:histogram:numbins 76
scalar AnnotationShowcase.host2.wlan[0].radio packetErrorRate:histogram:rangemin -0.5
scalar AnnotationShowcase.host2.wlan[0].radio packetErrorRate:histogram:rangemax 1.02
scalar AnnotationShowcase.host2.wlan[0].radio packetErrorRate:histogram:underflows 0
scalar AnnotationShowcase.host2.wlan[0].radio packetErrorRate:histogram:overflows 0
scalar AnnotationShowcase.host2.wlan[0].radio bitErrorRate:histogram:count 0
scalar AnnotationShowcase.host2.wlan[0].radio bitErrorRate:histogram:sumweights 0
scalar AnnotationShowcase.host2.wlan[0].radio bitErrorRate:histogram:mean -nan
scalar AnnotationShowcase.host2.wlan[0].radio bitErrorRate:histogram:stddev nan
scalar AnnotationShowcase.host2.wlan[0].radio bitErrorRate:histogram:min nan
scalar AnnotationShowcase.host2.wlan[0].radio bitErrorRate:histogram:max nan
scalar AnnotationShowcase.host2.wlan[0].radio bitErrorRate:histogram:numbins 1
scalar AnnotationShowcase.host2.wlan[0].radio bitErrorRate:histogram:rangemin 0
scalar AnnotationShowcase.host2.wlan[0].radio bitErrorRate:histogram:rangemax 1
scalar AnnotationShowcase.host2.wlan[0].radio bitErrorRate:histogram:underflows 0
scalar AnnotationShowcase.host2.wlan[0].radio bitErrorRate:histogram:overflows 0
scalar AnnotationShowcase.host2.wlan[0].radio symbolErrorRate:histogram:count 0
scalar AnnotationShowcase.host2.wlan[0].radio symbolErrorRate:histogram:sumweights 0
scalar AnnotationShowcase.host2.wlan[0].radio symbolErrorRate:histogram:mean -nan
scalar AnnotationShowcase.host2.wlan[0].radio symbolErrorRate:histogram:stddev nan
scalar AnnotationShowcase.host2.wlan[0].radio symbolErrorRate:histogram:min nan
scalar AnnotationShowcase.host2.wlan[0].radio symbolErrorRate:histogram:max nan
scalar AnnotationShowcase.host2.wlan[0].radio symbolErrorRate:histogram:numbins 1
scalar AnnotationShowcase.host2.wlan[0].radio symbolErrorRate:histogram:rangemin 0
scalar AnnotationShowcase.host2.wlan[0].radio symbolErrorRate:histogram:rangemax 1
scalar AnnotationShowcase.host2.wlan[0].radio symbolErrorRate:histogram:underflows 0
scalar AnnotationShowcase.host2.wlan[0].radio symbolErrorRate:histogram:overflows 0
scalar AnnotationShowcase.host2.app[0] endToEndDelay:histogram:count 478
scalar AnnotationShowcase.host2.app[0] endToEndDelay:histogram:sumweights 478
scalar AnnotationShowcase.host2.app[0] endToEndDelay:histogram:mean 1.702696903161
scalar AnnotationShowcase.host2.app[0] endToEndDelay:histogram:stddev 0.92766224821905
scalar AnnotationShowcase.host2.app[0] endToEndDelay:histogram:min 0.005557109531
scalar AnnotationShowcase.host2.app[0] endToEndDelay:histogram:max 3.581739694025
scalar AnnotationShowcase.host2.app[0] endToEndDelay:histogram:numbins 90
scalar AnnotationShowcase.host2.app[0] endToEndDelay:histogram:rangemin 0
[...]
scalar AnnotationShowcase.host2.tcp.conn-35 rtt:vector:stddev nan
scalar AnnotationShowcase.host2.tcp.conn-35 rtt:vector:min inf
scalar AnnotationShowcase.host2.tcp.conn-35 rtt:vector:max -inf
scalar AnnotationShowcase.host2.tcp.conn-35 rtt:vector:starttime nan
scalar AnnotationShowcase.host2.tcp.conn-35 rtt:vector:endtime nan
scalar AnnotationShowcase.host2.tcp.conn-35 srtt:vector:count 0
scalar AnnotationShowcase.host2.tcp.conn-35 srtt:vector:sum 0
scalar AnnotationShowcase.host2.tcp.conn-35 srtt:vector:sumweights 0
scalar AnnotationShowcase.host2.tcp.conn-35 srtt:vector:mean -nan
scalar AnnotationShowcase.host2.tcp.conn-35 srtt:vector:stddev nan
scalar AnnotationShowcase.host2.tcp.conn-35 srtt:vector:min inf
scalar AnnotationShowcase.host2.tcp.conn-35 srtt:vector:max -inf
scalar AnnotationShowcase.host2.tcp.conn-35 srtt:vector:starttime nan
scalar AnnotationShowcase.host2.tcp.conn-35 srtt:vector:endtime nan
scalar AnnotationShowcase.host2.tcp.conn-35 rttvar:vector:count 0
scalar AnnotationShowcase.host2.tcp.conn-35 rttvar:vector:sum 0
scalar AnnotationShowcase.host2.tcp.conn-35 rttvar:vector:sumweights 0
scalar AnnotationShowcase.host2.tcp.conn-35 rttvar:vector:mean -nan
scalar AnnotationShowcase.host2.tcp.conn-35 rttvar:vector:stddev nan
scalar AnnotationShowcase.host2.tcp.conn-35 rttvar:vector:min inf
scalar AnnotationShowcase.host2.tcp.conn-35 rttvar:vector:max -inf
scalar AnnotationShowcase.host2.tcp.conn-35 rttvar:vector:starttime nan
scalar AnnotationShowcase.host2.tcp.conn-35 rttvar:vector:endtime nan
scalar AnnotationShowcase.host2.tcp.conn-35 rto:vector:count 0
scalar AnnotationShowcase.host2.tcp.conn-35 rto:vector:sum 0
scalar AnnotationShowcase.host2.tcp.conn-35 rto:vector:sumweights 0
scalar AnnotationShowcase.host2.tcp.conn-35 rto:vector:mean -nan
scalar AnnotationShowcase.host2.tcp.conn-35 rto:vector:stddev nan
scalar AnnotationShowcase.host2.tcp.conn-35 rto:vector:min inf
scalar AnnotationShowcase.host2.tcp.conn-35 rto:vector:max -inf
scalar AnnotationShowcase.host2.tcp.conn-35 rto:vector:starttime nan
scalar AnnotationShowcase.host2.tcp.conn-35 rto:vector:endtime nan
scalar AnnotationShowcase.host2.tcp.conn-35 numRtos:vector:count 0
scalar AnnotationShowcase.host2.tcp.conn-35 numRtos:vector:sum 0
scalar AnnotationShowcase.host2.tcp.conn-35 numRtos:vector:sumweights 0
scalar AnnotationShowcase.host2.tcp.conn-35 numRtos:vector:mean -nan
scalar AnnotationShowcase.host2.tcp.conn-35 numRtos:vector:stddev nan
scalar AnnotationShowcase.host2.tcp.conn-35 numRtos:vector:min inf
scalar AnnotationShowcase.host2.tcp.conn-35 numRtos:vector:max -inf
scalar AnnotationShowcase.host2.tcp.conn-35 numRtos:vector:starttime nan
scalar AnnotationShowcase.host2.tcp.conn-35 numRtos:vector:endtime nan
scalar AnnotationShowcase.host2.tcp.conn-35 load:vector:count 0
scalar AnnotationShowcase.host2.tcp.conn-35 load:vector:sum 0
scalar AnnotationShowcase.host2.tcp.conn-35 load:vector:sumweights 0
scalar AnnotationShowcase.host2.tcp.conn-35 load:vector:mean -nan
scalar AnnotationShowcase.host2.tcp.conn-35 load:vector:stddev nan
scalar AnnotationShowcase.host2.tcp.conn-35 load:vector:min inf
scalar AnnotationShowcase.host2.tcp.conn-35 load:vector:max -inf
scalar AnnotationShowcase.host2.tcp.conn-35 load:vector:starttime nan
scalar AnnotationShowcase.host2.tcp.conn-35 load:vector:endtime nan
scalar AnnotationShowcase.host2.tcp.conn-35 calcLoad:vector:count 0
scalar AnnotationShowcase.host2.tcp.conn-35 calcLoad:vector:sum 0
scalar AnnotationShowcase.host2.tcp.conn-35 calcLoad:vector:sumweights 0
scalar AnnotationShowcase.host2.tcp.conn-35 calcLoad:vector:mean -nan
scalar AnnotationShowcase.host2.tcp.conn-35 calcLoad:vector:stddev nan
scalar AnnotationShowcase.host2.tcp.conn-35 calcLoad:vector:min inf
scalar AnnotationShowcase.host2.tcp.conn-35 calcLoad:vector:max -inf
scalar AnnotationShowcase.host2.tcp.conn-35 calcLoad:vector:starttime nan
scalar AnnotationShowcase.host2.tcp.conn-35 calcLoad:vector:endtime nan
scalar AnnotationShowcase.host2.tcp.conn-35 markingProb:vector:count 0
scalar AnnotationShowcase.host2.tcp.conn-35 markingProb:vector:sum 0
scalar AnnotationShowcase.host2.tcp.conn-35 markingProb:vector:sumweights 0
scalar AnnotationShowcase.host2.tcp.conn-35 markingProb:vector:mean -nan
scalar AnnotationShowcase.host2.tcp.conn-35 markingProb:vector:stddev nan
scalar AnnotationShowcase.host2.tcp.conn-35 markingProb:vector:min inf
scalar AnnotationShowcase.host2.tcp.conn-35 markingProb:vector:max -inf
scalar AnnotationShowcase.host2.tcp.conn-35 markingProb:vector:starttime nan
scalar AnnotationShowcase.host2.tcp.conn-35 markingProb:vector:endtime nan
scalar AnnotationShowcase.host2.app[0].thread_27 packetReceived:vector(packetBytes):count 478
scalar AnnotationShowcase.host2.app[0].thread_27 packetReceived:vector(packetBytes):sum 256000
scalar AnnotationShowcase.host2.app[0].thread_27 packetReceived:vector(packetBytes):sumweights 478
scalar AnnotationShowcase.host2.app[0].thread_27 packetReceived:vector(packetBytes):mean 535.56485355649
scalar AnnotationShowcase.host2.app[0].thread_27 packetReceived:vector(packetBytes):stddev 9.5136985579233
scalar AnnotationShowcase.host2.app[0].thread_27 packetReceived:vector(packetBytes):min 328
scalar AnnotationShowcase.host2.app[0].thread_27 packetReceived:vector(packetBytes):max 536
scalar AnnotationShowcase.host2.app[0].thread_27 packetReceived:vector(packetBytes):starttime 1.014296198181
scalar AnnotationShowcase.host2.app[0].thread_27 packetReceived:vector(packetBytes):endtime 4.590478782675
scalar AnnotationShowcase.host2.app[0].thread_27 endToEndDelay:vector:count 478
scalar AnnotationShowcase.host2.app[0].thread_27 endToEndDelay:vector:sum 813.88911971094
scalar AnnotationShowcase.host2.app[0].thread_27 endToEndDelay:vector:sumweights 478
scalar AnnotationShowcase.host2.app[0].thread_27 endToEndDelay:vector:mean 1.702696903161
scalar AnnotationShowcase.host2.app[0].thread_27 endToEndDelay:vector:stddev 0.92766224821903
scalar AnnotationShowcase.host2.app[0].thread_27 endToEndDelay:vector:min 0.005557109531
scalar AnnotationShowcase.host2.app[0].thread_27 endToEndDelay:vector:max 3.581739694025
scalar AnnotationShowcase.host2.app[0].thread_27 endToEndDelay:vector:starttime 1.014296198181
scalar AnnotationShowcase.host2.app[0].thread_27 endToEndDelay:vector:endtime 4.590478782675
scalar AnnotationShowcase.host2.app[1].thread_28 packetReceived:vector(packetBytes):count 478
scalar AnnotationShowcase.host2.app[1].thread_28 packetReceived:vector(packetBytes):sum 256000
scalar AnnotationShowcase.host2.app[1].thread_28 packetReceived:vector(packetBytes):sumweights 478
scalar AnnotationShowcase.host2.app[1].thread_28 packetReceived:vector(packetBytes):mean 535.56485355649
scalar AnnotationShowcase.host2.app[1].thread_28 packetReceived:vector(packetBytes):stddev 9.5136985579233
scalar AnnotationShowcase.host2.app[1].thread_28 packetReceived:vector(packetBytes):min 328
scalar AnnotationShowcase.host2.app[1].thread_28 packetReceived:vector(packetBytes):max 536
scalar AnnotationShowcase.host2.app[1].thread_28 packetReceived:vector(packetBytes):starttime 1.016140152997
scalar AnnotationShowcase.host2.app[1].thread_28 packetReceived:vector(packetBytes):endtime 4.617383225477
scalar AnnotationShowcase.host2.app[1].thread_28 endToEndDelay:vector:count 478
scalar AnnotationShowcase.host2.app[1].thread_28 endToEndDelay:vector:sum 828.59653645736
scalar AnnotationShowcase.host2.app[1].thread_28 endToEndDelay:vector:sumweights 478
scalar AnnotationShowcase.host2.app[1].thread_28 endToEndDelay:vector:mean 1.7334655574422
scalar AnnotationShowcase.host2.app[1].thread_28 endToEndDelay:vector:stddev 0.93602904234845
scalar AnnotationShowcase.host2.app[1].thread_28 endToEndDelay:vector:min 0.007152068895
scalar AnnotationShowcase.host2.app[1].thread_28 endToEndDelay:vector:max 3.608395141375
scalar AnnotationShowcase.host2.app[1].thread_28 endToEndDelay:vector:starttime 1.016140152997
scalar AnnotationShowcase.host2.app[1].thread_28 endToEndDelay:vector:endtime 4.617383225477
scalar AnnotationShowcase.host2.app[2].thread_29 packetReceived:vector(packetBytes):count 465
scalar AnnotationShowcase.host2.app[2].thread_29 packetReceived:vector(packetBytes):sum 256000
scalar AnnotationShowcase.host2.app[2].thread_29 packetReceived:vector(packetBytes):sumweights 465
scalar AnnotationShowcase.host2.app[2].thread_29 packetReceived:vector(packetBytes):mean 550.5376344086
scalar AnnotationShowcase.host2.app[2].thread_29 packetReceived:vector(packetBytes):stddev 323.29797558281
scalar AnnotationShowcase.host2.app[2].thread_29 packetReceived:vector(packetBytes):min 328
scalar AnnotationShowcase.host2.app[2].thread_29 packetReceived:vector(packetBytes):max 7504
scalar AnnotationShowcase.host2.app[2].thread_29 packetReceived:vector(packetBytes):starttime 1.017376107813
scalar AnnotationShowcase.host2.app[2].thread_29 packetReceived:vector(packetBytes):endtime 4.990597396181
scalar AnnotationShowcase.host2.app[2].thread_29 endToEndDelay:vector:count 478
scalar AnnotationShowcase.host2.app[2].thread_29 endToEndDelay:vector:sum 990.77073419253
scalar AnnotationShowcase.host2.app[2].thread_29 endToEndDelay:vector:sumweights 478
scalar AnnotationShowcase.host2.app[2].thread_29 endToEndDelay:vector:mean 2.0727421217417
scalar AnnotationShowcase.host2.app[2].thread_29 endToEndDelay:vector:stddev 1.066874327303
scalar AnnotationShowcase.host2.app[2].thread_29 endToEndDelay:vector:min 0.007272969893
scalar AnnotationShowcase.host2.app[2].thread_29 endToEndDelay:vector:max 3.980494258261
scalar AnnotationShowcase.host2.app[2].thread_29 endToEndDelay:vector:starttime 1.017376107813
scalar AnnotationShowcase.host2.app[2].thread_29 endToEndDelay:vector:endtime 4.990597396181
scalar AnnotationShowcase.host2.app[3].thread_30 packetReceived:vector(packetBytes):count 468
scalar AnnotationShowcase.host2.app[3].thread_30 packetReceived:vector(packetBytes):sum 256000
scalar AnnotationShowcase.host2.app[3].thread_30 packetReceived:vector(packetBytes):sumweights 468
scalar AnnotationShowcase.host2.app[3].thread_30 packetReceived:vector(packetBytes):mean 547.00854700855
scalar AnnotationShowcase.host2.app[3].thread_30 packetReceived:vector(packetBytes):stddev 164.43773491328
scalar AnnotationShowcase.host2.app[3].thread_30 packetReceived:vector(packetBytes):min 328
scalar AnnotationShowcase.host2.app[3].thread_30 packetReceived:vector(packetBytes):max 3752
scalar AnnotationShowcase.host2.app[3].thread_30 packetReceived:vector(packetBytes):starttime 1.019888017445
scalar AnnotationShowcase.host2.app[3].thread_30 packetReceived:vector(packetBytes):endtime 7.674663241103
scalar AnnotationShowcase.host2.app[3].thread_30 endToEndDelay:vector:count 478
scalar AnnotationShowcase.host2.app[3].thread_30 endToEndDelay:vector:sum 2176.358606117
scalar AnnotationShowcase.host2.app[3].thread_30 endToEndDelay:vector:sumweights 478
scalar AnnotationShowcase.host2.app[3].thread_30 endToEndDelay:vector:mean 4.5530514772323
scalar AnnotationShowcase.host2.app[3].thread_30 endToEndDelay:vector:stddev 1.5802386967282
scalar AnnotationShowcase.host2.app[3].thread_30 endToEndDelay:vector:min 0.008858888621
scalar AnnotationShowcase.host2.app[3].thread_30 endToEndDelay:vector:max 6.663634112279
scalar AnnotationShowcase.host2.app[3].thread_30 endToEndDelay:vector:starttime 1.019888017445
scalar AnnotationShowcase.host2.app[3].thread_30 endToEndDelay:vector:endtime 7.674663241103
scalar AnnotationShowcase.host2.app[4].thread_31 packetReceived:vector(packetBytes):count 478
scalar AnnotationShowcase.host2.app[4].thread_31 packetReceived:vector(packetBytes):sum 256000
scalar AnnotationShowcase.host2.app[4].thread_31 packetReceived:vector(packetBytes):sumweights 478
scalar AnnotationShowcase.host2.app[4].thread_31 packetReceived:vector(packetBytes):mean 535.56485355649
scalar AnnotationShowcase.host2.app[4].thread_31 packetReceived:vector(packetBytes):stddev 9.5136985579233
scalar AnnotationShowcase.host2.app[4].thread_31 packetReceived:vector(packetBytes):min 328
scalar AnnotationShowcase.host2.app[4].thread_31 packetReceived:vector(packetBytes):max 536
scalar AnnotationShowcase.host2.app[4].thread_31 packetReceived:vector(packetBytes):starttime 1.021692873259
scalar AnnotationShowcase.host2.app[4].thread_31 packetReceived:vector(packetBytes):endtime 4.675870308421
scalar AnnotationShowcase.host2.app[4].thread_31 endToEndDelay:vector:count 478
scalar AnnotationShowcase.host2.app[4].thread_31 endToEndDelay:vector:sum 845.68888556393
scalar AnnotationShowcase.host2.app[4].thread_31 endToEndDelay:vector:sumweights 478
scalar AnnotationShowcase.host2.app[4].thread_31 endToEndDelay:vector:mean 1.7692236099664
scalar AnnotationShowcase.host2.app[4].thread_31 endToEndDelay:vector:stddev 0.94635091387786
scalar AnnotationShowcase.host2.app[4].thread_31 endToEndDelay:vector:min 0.009986748983
scalar AnnotationShowcase.host2.app[4].thread_31 endToEndDelay:vector:max 3.664164184145
scalar AnnotationShowcase.host2.app[4].thread_31 endToEndDelay:vector:starttime 1.021692873259
scalar AnnotationShowcase.host2.app[4].thread_31 endToEndDelay:vector:endtime 4.675870308421
scalar AnnotationShowcase.host2.app[5].thread_32 packetReceived:vector(packetBytes):count 466
scalar AnnotationShowcase.host2.app[5].thread_32 packetReceived:vector(packetBytes):sum 256000
scalar AnnotationShowcase.host2.app[5].thread_32 packetReceived:vector(packetBytes):sumweights 466
scalar AnnotationShowcase.host2.app[5].thread_32 packetReceived:vector(packetBytes):mean 549.35622317597
scalar AnnotationShowcase.host2.app[5].thread_32 packetReceived:vector(packetBytes):stddev 298.13311188469
scalar AnnotationShowcase.host2.app[5].thread_32 packetReceived:vector(packetBytes):min 328
scalar AnnotationShowcase.host2.app[5].thread_32 packetReceived:vector(packetBytes):max 6968
scalar AnnotationShowcase.host2.app[5].thread_32 packetReceived:vector(packetBytes):starttime 1.025279814431
scalar AnnotationShowcase.host2.app[5].thread_32 packetReceived:vector(packetBytes):endtime 7.703875441767
scalar AnnotationShowcase.host2.app[5].thread_32 endToEndDelay:vector:count 478
scalar AnnotationShowcase.host2.app[5].thread_32 endToEndDelay:vector:sum 2209.4645396715
scalar AnnotationShowcase.host2.app[5].thread_32 endToEndDelay:vector:sumweights 478
scalar AnnotationShowcase.host2.app[5].thread_32 endToEndDelay:vector:mean 4.6223107524509
scalar AnnotationShowcase.host2.app[5].thread_32 endToEndDelay:vector:stddev 1.5305021772504
scalar AnnotationShowcase.host2.app[5].thread_32 endToEndDelay:vector:min 0.012656694703
scalar AnnotationShowcase.host2.app[5].thread_32 endToEndDelay:vector:max 6.691252322039
scalar AnnotationShowcase.host2.app[5].thread_32 endToEndDelay:vector:starttime 1.025279814431
scalar AnnotationShowcase.host2.app[5].thread_32 endToEndDelay:vector:endtime 7.703875441767
scalar AnnotationShowcase.host2.app[6].thread_33 packetReceived:vector(packetBytes):count 469
scalar AnnotationShowcase.host2.app[6].thread_33 packetReceived:vector(packetBytes):sum 256000
scalar AnnotationShowcase.host2.app[6].thread_33 packetReceived:vector(packetBytes):sumweights 469
scalar AnnotationShowcase.host2.app[6].thread_33 packetReceived:vector(packetBytes):mean 545.84221748401
scalar AnnotationShowcase.host2.app[6].thread_33 packetReceived:vector(packetBytes):stddev 118.80494971643
scalar AnnotationShowcase.host2.app[6].thread_33 packetReceived:vector(packetBytes):min 328
scalar AnnotationShowcase.host2.app[6].thread_33 packetReceived:vector(packetBytes):max 2144
scalar AnnotationShowcase.host2.app[6].thread_33 packetReceived:vector(packetBytes):starttime 1.027304670245
scalar AnnotationShowcase.host2.app[6].thread_33 packetReceived:vector(packetBytes):endtime 7.920490112085
scalar AnnotationShowcase.host2.app[6].thread_33 endToEndDelay:vector:count 478
scalar AnnotationShowcase.host2.app[6].thread_33 endToEndDelay:vector:sum 2443.298042907
scalar AnnotationShowcase.host2.app[6].thread_33 endToEndDelay:vector:sumweights 478
scalar AnnotationShowcase.host2.app[6].thread_33 endToEndDelay:vector:mean 5.1115021818137
scalar AnnotationShowcase.host2.app[6].thread_33 endToEndDelay:vector:stddev 1.4619407470838
scalar AnnotationShowcase.host2.app[6].thread_33 endToEndDelay:vector:min 0.014512555065
scalar AnnotationShowcase.host2.app[6].thread_33 endToEndDelay:vector:max 6.907697996905
scalar AnnotationShowcase.host2.app[6].thread_33 endToEndDelay:vector:starttime 1.027304670245
scalar AnnotationShowcase.host2.app[6].thread_33 endToEndDelay:vector:endtime 7.920490112085
scalar AnnotationShowcase.host2.app[7].thread_34 packetReceived:vector(packetBytes):count 469
scalar AnnotationShowcase.host2.app[7].thread_34 packetReceived:vector(packetBytes):sum 256000
scalar AnnotationShowcase.host2.app[7].thread_34 packetReceived:vector(packetBytes):sumweights 469
scalar AnnotationShowcase.host2.app[7].thread_34 packetReceived:vector(packetBytes):mean 545.84221748401
scalar AnnotationShowcase.host2.app[7].thread_34 packetReceived:vector(packetBytes):stddev 222.97909298
scalar AnnotationShowcase.host2.app[7].thread_34 packetReceived:vector(packetBytes):min 328
scalar AnnotationShowcase.host2.app[7].thread_34 packetReceived:vector(packetBytes):max 5360
scalar AnnotationShowcase.host2.app[7].thread_34 packetReceived:vector(packetBytes):starttime 1.029076786977
scalar AnnotationShowcase.host2.app[7].thread_34 packetReceived:vector(packetBytes):endtime 7.881859487727
scalar AnnotationShowcase.host2.app[7].thread_34 endToEndDelay:vector:count 478
scalar AnnotationShowcase.host2.app[7].thread_34 endToEndDelay:vector:sum 2390.1088034524
scalar AnnotationShowcase.host2.app[7].thread_34 endToEndDelay:vector:sumweights 478
scalar AnnotationShowcase.host2.app[7].thread_34 endToEndDelay:vector:mean 5.0002276222853
scalar AnnotationShowcase.host2.app[7].thread_34 endToEndDelay:vector:stddev 1.4511610214495
scalar AnnotationShowcase.host2.app[7].thread_34 endToEndDelay:vector:min 0.016115676345
scalar AnnotationShowcase.host2.app[7].thread_34 endToEndDelay:vector:max 6.868898377095
scalar AnnotationShowcase.host2.app[7].thread_34 endToEndDelay:vector:starttime 1.029076786977
scalar AnnotationShowcase.host2.app[7].thread_34 endToEndDelay:vector:endtime 7.881859487727
scalar AnnotationShowcase.host2.app[8].thread_35 packetReceived:vector(packetBytes):count 467
scalar AnnotationShowcase.host2.app[8].thread_35 packetReceived:vector(packetBytes):sum 256000
scalar AnnotationShowcase.host2.app[8].thread_35 packetReceived:vector(packetBytes):sumweights 467
scalar AnnotationShowcase.host2.app[8].thread_35 packetReceived:vector(packetBytes):mean 548.17987152034
scalar AnnotationShowcase.host2.app[8].thread_35 packetReceived:vector(packetBytes):stddev 187.31131788701
scalar AnnotationShowcase.host2.app[8].thread_35 packetReceived:vector(packetBytes):min 328
scalar AnnotationShowcase.host2.app[8].thread_35 packetReceived:vector(packetBytes):max 4288
scalar AnnotationShowcase.host2.app[8].thread_35 packetReceived:vector(packetBytes):starttime 1.031539795611
scalar AnnotationShowcase.host2.app[8].thread_35 packetReceived:vector(packetBytes):endtime 7.802519358873
scalar AnnotationShowcase.host2.app[8].thread_35 endToEndDelay:vector:count 478
scalar AnnotationShowcase.host2.app[8].thread_35 endToEndDelay:vector:sum 2255.7747913644
scalar AnnotationShowcase.host2.app[8].thread_35 endToEndDelay:vector:sumweights 478
scalar AnnotationShowcase.host2.app[8].thread_35 endToEndDelay:vector:mean 4.7191941241934
scalar AnnotationShowcase.host2.app[8].thread_35 endToEndDelay:vector:stddev 1.4636734355533
scalar AnnotationShowcase.host2.app[8].thread_35 endToEndDelay:vector:min 0.018289689527
scalar AnnotationShowcase.host2.app[8].thread_35 endToEndDelay:vector:max 6.789269252789
scalar AnnotationShowcase.host2.app[8].thread_35 endToEndDelay:vector:starttime 1.031539795611
scalar AnnotationShowcase.host2.app[8].thread_35 endToEndDelay:vector:endtime 7.802519358873

