version 3
run Annotation-0-20230426-16:26:59-214004
attr configname Annotation
attr datetime 20230426-16:26:59
attr datetimef 20230426-162659
attr description "Placing Annotations"
attr experiment Annotation
attr inifile omnetpp.ini
attr iterationvars ""
attr iterationvarsd ""
attr iterationvarsf ""
attr measurement ""
attr network AnnotationShowcase
attr processid 214004
attr repetition 0
attr replication #0
attr resultdir results
attr runnumber 0
attr seedset 0
config **.param-recording false
config **.vector-recording false
config image-path /home/levy/workspace/inet/images
config output-scalar-file results/omnetpp.ini-Annotation-#0.sca
config sim-time-limit 25s
config sim-time-limit 25s
config description "Placing Annotations"
config network AnnotationShowcase
config *.host1.numApps 9
config *.host1.app[*].typename TcpSessionApp
config *.host1.app[*].connectAddress "\"host2\""
config *.host1.app[0].connectPort 10
config *.host1.app[1].connectPort 20
config *.host1.app[2].connectPort 30
config *.host1.app[3].connectPort 40
config *.host1.app[4].connectPort 50
config *.host1.app[5].connectPort 60
config *.host1.app[6].connectPort 70
config *.host1.app[7].connectPort 80
config *.host1.app[8].connectPort 90
config *.host1.app[*].sendBytes 250KiB
config *.host1.app[*].tOpen 0s
config *.host1.app[*].tSend 0s
config *.host1.app[*].tClose 0s
config *.host2.numApps 9
config *.host2.app[*].typename TcpSinkApp
config *.host2.app[0].localPort 10
config *.host2.app[1].localPort 20
config *.host2.app[2].localPort 30
config *.host2.app[3].localPort 40
config *.host2.app[4].localPort 50
config *.host2.app[5].localPort 60
config *.host2.app[6].localPort 70
config *.host2.app[7].localPort 80
config *.host2.app[8].localPort 90
config *.visualizer.*.ieee80211Visualizer.displayAssociations true
config *.visualizer.*.transportConnectionVisualizer.displayTransportConnections true
config *.visualizer.*.transportConnectionVisualizer.placementHint "\"bottom\""

scalar AnnotationShowcase.host1.lo[0].lo rcvdPkFromHl:count 0
attr interpolationmode none
attr recordingmode count
attr source packetReceivedFromUpper
attr title "packets received from higher layer, count"
scalar AnnotationShowcase.host1.lo[0].lo rcvdPkFromHl:sum(packetBytes) 0
attr interpolationmode none
attr recordingmode sum(packetBytes)
attr source packetReceivedFromUpper
attr title "packets received from higher layer, sum(packetBytes)"
scalar AnnotationShowcase.host1.lo[0].lo passedUpPk:count 0
attr interpolationmode none
attr recordingmode count
attr source packetSentToUpper
attr title "packets passed to higher layer, count"
scalar AnnotationShowcase.host1.lo[0].lo passedUpPk:sum(packetBytes) 0
attr interpolationmode none
attr recordingmode sum(packetBytes)
attr source packetSentToUpper
attr title "packets passed to higher layer, sum(packetBytes)"
scalar AnnotationShowcase.host1.lo[0] packetDropInterfaceDown:count 0
attr interpolationmode none
attr recordingmode count
attr source packetDropReasonIsInterfaceDown(packetDropped)
attr title "packet drops: interface down, count"
scalar AnnotationShowcase.host1.lo[0] packetDropInterfaceDown:sum(packetBytes) 0
attr interpolationmode none
attr recordingmode sum(packetBytes)
attr source packetDropReasonIsInterfaceDown(packetDropped)
attr title "packet drops: interface down, sum(packetBytes)"
scalar AnnotationShowcase.host1.lo[0] packetDropNoCarrier:count 0
attr interpolationmode none
attr recordingmode count
attr source packetDropReasonIsNoCarrier(packetDropped)
attr title "packet drops: no carrier, count"
scalar AnnotationShowcase.host1.lo[0] packetDropNoCarrier:sum(packetBytes) 0
attr interpolationmode none
attr recordingmode sum(packetBytes)
attr source packetDropReasonIsNoCarrier(packetDropped)
attr title "packet drops: no carrier, sum(packetBytes)"
scalar AnnotationShowcase.host1.wlan[0].agent dropConfirm:count 0
attr recordingmode count
attr title "dropped confirms, count"
scalar AnnotationShowcase.host1.wlan[0].agent acceptConfirm:count 3
attr recordingmode count
attr title "accepted confirms, count"
scalar AnnotationShowcase.host1.wlan[0].agent sentRequest:count 3
attr recordingmode count
attr title "sent requests, count"
scalar AnnotationShowcase.host1.wlan[0].mac.dcf.channelAccess.pendingQueue queueLength:last 0
attr autoWarmupFilter false
attr interpolationmode sample-hold
attr recordingmode last
attr source "warmup(atomic(constant0(packetPushEnded) + count(packetPushStarted) - count(packetPulled) - count(packetRemoved) - count(packetDropped)))"
attr title "queue length, last"
attr unit pk
scalar AnnotationShowcase.host1.wlan[0].mac.dcf.channelAccess.pendingQueue queueLength:max 17
attr autoWarmupFilter false
attr interpolationmode sample-hold
attr recordingmode max
attr source "warmup(atomic(constant0(packetPushEnded) + count(packetPushStarted) - count(packetPulled) - count(packetRemoved) - count(packetDropped)))"
attr title "queue length, max"
attr unit pk
scalar AnnotationShowcase.host1.wlan[0].mac.dcf.channelAccess.pendingQueue queueLength:timeavg 0.18368898754527
attr autoWarmupFilter false
attr interpolationmode sample-hold
attr recordingmode timeavg
attr source "warmup(atomic(constant0(packetPushEnded) + count(packetPushStarted) - count(packetPulled) - count(packetRemoved) - count(packetDropped)))"
attr title "queue length, timeavg"
attr unit pk
scalar AnnotationShowcase.host1.wlan[0].mac.dcf.channelAccess.pendingQueue queueBitLength:last 0
attr autoWarmupFilter false
attr interpolationmode sample-hold
attr recordingmode last
attr source "warmup(atomic(constant0(packetPushEnded) + sum(packetLength(packetPushStarted)) - sum(packetLength(packetPulled)) - sum(packetLength(packetRemoved)) - sum(packetLength(packetDropped))))"
attr title "queue bit length, last"
attr unit b
scalar AnnotationShowcase.host1.wlan[0].mac.dcf.channelAccess.pendingQueue queueBitLength:max 83232
attr autoWarmupFilter false
attr interpolationmode sample-hold
attr recordingmode max
attr source "warmup(atomic(constant0(packetPushEnded) + sum(packetLength(packetPushStarted)) - sum(packetLength(packetPulled)) - sum(packetLength(packetRemoved)) - sum(packetLength(packetDropped))))"
attr title "queue bit length, max"
attr unit b
scalar AnnotationShowcase.host1.wlan[0].mac.dcf.channelAccess.pendingQueue queueBitLength:timeavg 887.57890927419
attr autoWarmupFilter false
attr interpolationmode sample-hold
attr recordingmode timeavg
attr source "warmup(atomic(constant0(packetPushEnded) + sum(packetLength(packetPushStarted)) - sum(packetLength(packetPulled)) - sum(packetLength(packetRemoved)) - sum(packetLength(packetDropped))))"
attr title "queue bit length, timeavg"
attr unit b
statistic AnnotationShowcase.host1.wlan[0].mac.dcf.channelAccess.pendingQueue queueingTime:histogram
field count 4369
field mean 0.0010390234045912
field stddev 0.0015285351098473
field min 0
field max 0.01601468325
field sum 4.539493254659
field sqrsum 0.014922120470907
attr interpolationmode none
attr recordingmode histogram
attr source queueingTime(packetPulled)
attr title "queueing times"
attr unit s
bin	-inf	0
bin	0	674
bin	0.0002	781
bin	0.0004	625
bin	0.0006	524
bin	0.0008	398
bin	0.001	379
bin	0.0012	261
bin	0.0014	138
bin	0.0016	78
bin	0.0018	78
bin	0.002	38
bin	0.0022	42
bin	0.0024	35
bin	0.0026	36
bin	0.0028	24
bin	0.003	18
bin	0.0032	19
bin	0.0034	17
bin	0.0036	19
bin	0.0038	14
bin	0.004	14
bin	0.0042	6
bin	0.0044	17
bin	0.0046	6
bin	0.0048	7
bin	0.005	9
bin	0.0052	9
bin	0.0054	7
bin	0.0056	6
bin	0.0058	9
bin	0.006	4
bin	0.0062	6
bin	0.0064	4
bin	0.0066	8
bin	0.0068	4
bin	0.007	3
bin	0.0072	3
bin	0.0074	3
bin	0.0076	2
bin	0.0078	2
bin	0.008	2
bin	0.0082	2
bin	0.0084	1
bin	0.0086	2
bin	0.0088	0
bin	0.009	0
bin	0.0092	0
bin	0.0094	0
bin	0.0096	2
bin	0.0098	1
bin	0.01	2
bin	0.0102	2
bin	0.0104	0
bin	0.0106	2
bin	0.0108	0
bin	0.011	1
bin	0.0112	1
bin	0.0114	0
bin	0.0116	0
bin	0.0118	3
bin	0.012	1
bin	0.0122	0
bin	0.0124	0
bin	0.0126	1
bin	0.0128	2
bin	0.013	0
bin	0.0132	1
bin	0.0134	1
bin	0.0136	4
bin	0.0138	1
bin	0.014	2
bin	0.0142	1
bin	0.0144	2
bin	0.0146	1
bin	0.0148	0
bin	0.015	1
bin	0.0152	2
bin	0.0154	0
bin	0.0156	0
bin	0.0158	0
bin	0.016	1
bin	0.0162	0
scalar AnnotationShowcase.host1.wlan[0].mac.dcf.channelAccess.pendingQueue outgoingPackets:count 4369
attr recordingmode count
attr source packetPulled
attr title "outgoing packets, count"
attr unit pk
scalar AnnotationShowcase.host1.wlan[0].mac.dcf.channelAccess.pendingQueue outgoingPacketLengths:sum 21237280
attr interpolationmode none
attr recordingmode sum
attr source packetLength(packetPulled)
attr title "outgoing packet lengths, sum"
attr unit b
statistic AnnotationShowcase.host1.wlan[0].mac.dcf.channelAccess.pendingQueue outgoingPacketLengths:histogram
field count 4369
field mean 4860.9018081941
field stddev 376.22518259813
field min 256
field max 4896
field sum 21237280
field sqrsum 103850603008
attr interpolationmode none
attr recordingmode histogram
attr source packetLength(packetPulled)
attr title "outgoing packet lengths"
attr unit b
bin	-inf	0
bin	0	0
bin	100	0
bin	200	4
bin	300	0
bin	400	0
bin	500	1
bin	600	27
bin	700	0
bin	800	0
bin	900	0
bin	1000	0
bin	1100	0
bin	1200	0
bin	1300	0
bin	1400	0
bin	1500	0
bin	1600	0
bin	1700	0
bin	1800	0
bin	1900	0
bin	2000	0
bin	2100	0
bin	2200	0
bin	2300	0
bin	2400	0
bin	2500	0
bin	2600	0
bin	2700	0
bin	2800	0
bin	2900	0
bin	3000	0
bin	3100	0
bin	3200	9
bin	3300	0
bin	3400	0
bin	3500	0
bin	3600	0
bin	3700	0
bin	3800	0
bin	3900	0
bin	4000	0
bin	4100	0
bin	4200	0
bin	4300	0
bin	4400	0
bin	4500	0
bin	4600	0
bin	4700	0
bin	4800	4328
bin	4900	0
bin	5000	0
bin	5100	0
bin	5200	0
bin	5300	0
bin	5400	0
bin	5500	0
bin	5600	0
bin	5700	0
bin	5800	0
bin	5900	0
bin	6000	0
bin	6100	0
statistic AnnotationShowcase.host1.wlan[0].mac.dcf.channelAccess.pendingQueue flowQueueingTime:histogram
field count 0
field mean -nan
field stddev nan
field min nan
field max nan
field sum 0
field sqrsum 0
attr interpolationmode none
attr recordingmode histogram
attr source queueingTime(demuxFlow(packetPulled))
attr title "flow queueing times"
attr unit s
bin	-inf	0
bin	0	0
bin	1	0
scalar AnnotationShowcase.host1.wlan[0].mac.dcf.channelAccess.pendingQueue incomingPackets:count 4369
attr recordingmode count
attr source packetPushStarted
attr title "incoming packets, count"
attr unit pk
scalar AnnotationShowcase.host1.wlan[0].mac.dcf.channelAccess.pendingQueue incomingPacketLengths:sum 21237280
attr interpolationmode none
attr recordingmode sum
attr source packetLength(packetPushStarted)
attr title "incoming packet lengths, sum"
attr unit b
statistic AnnotationShowcase.host1.wlan[0].mac.dcf.channelAccess.pendingQueue incomingPacketLengths:histogram
field count 4369
field mean 4860.9018081941
field stddev 376.22518259813
field min 256
field max 4896
field sum 21237280
field sqrsum 103850603008
attr interpolationmode none
attr recordingmode histogram
attr source packetLength(packetPushStarted)
attr title "incoming packet lengths"
attr unit b
bin	-inf	0
bin	0	0
bin	100	0
bin	200	4
bin	300	0
bin	400	0
bin	500	1
bin	600	27
bin	700	0
bin	800	0
bin	900	0
bin	1000	0
bin	1100	0
bin	1200	0
bin	1300	0
bin	1400	0
bin	1500	0
bin	1600	0
bin	1700	0
bin	1800	0
bin	1900	0
bin	2000	0
bin	2100	0
bin	2200	0
bin	2300	0
bin	2400	0
bin	2500	0
bin	2600	0
bin	2700	0
bin	2800	0
bin	2900	0
bin	3000	0
bin	3100	0
bin	3200	9
bin	3300	0
bin	3400	0
bin	3500	0
bin	3600	0
bin	3700	0
bin	3800	0
bin	3900	0
bin	4000	0
bin	4100	0
bin	4200	0
bin	4300	0
bin	4400	0
bin	4500	0
bin	4600	0
bin	4700	0
bin	4800	4328
bin	4900	0
bin	5000	0
bin	5100	0
bin	5200	0
bin	5300	0
bin	5400	0
bin	5500	0
bin	5600	0
bin	5700	0
bin	5800	0
bin	5900	0
bin	6000	0
bin	6100	0
scalar AnnotationShowcase.host1.wlan[0].mac.dcf.channelAccess.pendingQueue droppedPacketsQueueOverflow:count 0
attr interpolationmode none
attr recordingmode count
attr source packetDropReasonIsQueueOverflow(packetDropped)
attr title "dropped packets: queue overflow, count"
attr unit pk
scalar AnnotationShowcase.host1.wlan[0].mac.dcf.channelAccess.pendingQueue droppedPacketLengthsQueueOverflow:sum 0
attr interpolationmode none
attr recordingmode sum
attr source packetLength(packetDropReasonIsQueueOverflow(packetDropped))
attr title "dropped packet lengths: queue overflow, sum"
attr unit b
statistic AnnotationShowcase.host1.wlan[0].mac.dcf.channelAccess.inProgressFrames queueingTime:histogram
field count 4369
field mean 0.00071876910732894
field stddev 0.00057474927719561
field min 3.8e-05
field max 0.004525806082
field sum 3.1403022299201
field sqrsum 0.0037000630743327
attr interpolationmode none
attr recordingmode histogram
attr source queueingTime(packetDequeued)
attr title "queueing times"
bin	-inf	0
bin	0	15
bin	0.0001	0
bin	0.0002	2301
bin	0.0003	1
bin	0.0004	2
bin	0.0005	4
bin	0.0006	277
bin	0.0007	189
bin	0.0008	164
bin	0.0009	151
bin	0.001	151
bin	0.0011	168
bin	0.0012	152
bin	0.0013	160
bin	0.0014	123
bin	0.0015	122
bin	0.0016	96
bin	0.0017	65
bin	0.0018	60
bin	0.0019	44
bin	0.002	32
bin	0.0021	27
bin	0.0022	14
bin	0.0023	10
bin	0.0024	6
bin	0.0025	9
bin	0.0026	5
bin	0.0027	2
bin	0.0028	2
bin	0.0029	2
bin	0.003	3
bin	0.0031	1
bin	0.0032	2
bin	0.0033	2
bin	0.0034	1
bin	0.0035	2
bin	0.0036	0
bin	0.0037	1
bin	0.0038	1
bin	0.0039	0
bin	0.004	0
bin	0.0041	1
bin	0.0042	0
bin	0.0043	0
bin	0.0044	0
bin	0.0045	1
bin	0.0046	0
scalar AnnotationShowcase.host1.wlan[0].mac.dcf.channelAccess.inProgressFrames queueLength:max 2
attr autoWarmupFilter false
attr interpolationmode sample-hold
attr recordingmode max
attr source "warmup(count(packetEnqueued) - count(packetDequeued))"
attr title "queue length, max"
scalar AnnotationShowcase.host1.wlan[0].mac.dcf.channelAccess.inProgressFrames queueLength:timeavg 0.1256120891968
attr autoWarmupFilter false
attr interpolationmode sample-hold
attr recordingmode timeavg
attr source "warmup(count(packetEnqueued) - count(packetDequeued))"
attr title "queue length, timeavg"
scalar AnnotationShowcase.host1.wlan[0].mac.dcf.channelAccess.contention channelAccessGranted:count 4418
attr recordingmode count
attr title "channel access granted, count"
scalar AnnotationShowcase.host1.wlan[0].mac.dcf.channelAccess.contention stateChanged:count 140622
attr enum IDLE,DEFER,IFS_AND_BACKOFF
attr interpolationmode none
attr recordingmode count
attr title "contention state changed, count"
attr type enum
scalar AnnotationShowcase.host1.wlan[0].mac.dcf.channelAccess channelOwnershipChanged:count 8836
attr interpolationmode sample-hold
attr recordingmode count
attr title "channel ownership, count"
scalar AnnotationShowcase.host1.wlan[0].mac.dcf.originatorMacDataService packetAggregated:count 0
attr recordingmode count
attr title "packets aggregated, count"
scalar AnnotationShowcase.host1.wlan[0].mac.dcf.originatorMacDataService packetFragmented:count 0
attr recordingmode count
attr title "packets fragmented, count"
scalar AnnotationShowcase.host1.wlan[0].mac.dcf.recipientMacDataService packetDeaggregated:count 0
attr recordingmode count
attr title "packets deaggregated, count"
scalar AnnotationShowcase.host1.wlan[0].mac.dcf.recipientMacDataService packetDefragmented:count 4576
attr recordingmode count
attr title "packets defragmented, count"
scalar AnnotationShowcase.host1.wlan[0].mac.dcf.recipientMacDataService packetDropDuplicateDetected:count 0
attr interpolationmode none
attr recordingmode count
attr source packetDropReasonIsDuplicateDetected(packetDropped)
attr title "packet drops: duplicate detected, count"
scalar AnnotationShowcase.host1.wlan[0].mac.dcf.recipientMacDataService packetDropDuplicateDetected:sum(packetBytes) 0
attr interpolationmode none
attr recordingmode sum(packetBytes)
attr source packetDropReasonIsDuplicateDetected(packetDropped)
attr title "packet drops: duplicate detected, sum(packetBytes)"
scalar AnnotationShowcase.host1.wlan[0].mac.dcf.recoveryProcedure retryLimitReached:count 0
attr recordingmode count
attr title "retry limit reached, count"
scalar AnnotationShowcase.host1.wlan[0].mac.dcf frameSequenceFinished:count 4418
attr recordingmode count
attr title "finished frame sequences, count"
statistic AnnotationShowcase.host1.wlan[0].mac.dcf frameSequenceDuration:histogram
field count 4418
field mean 0.00027760369619467
field stddev 1.6154029513837e-05
field min 3.8e-05
field max 0.000338995452
field sum 1.226453129788
field sqrsum 0.00034162054998001
attr recordingmode histogram
attr source frameSequenceDuration(frameSequenceFinished)
attr title "frame sequence durations"
bin	-inf	0
bin	0	0
bin	5e-06	0
bin	1e-05	0
bin	1.5e-05	0
bin	2e-05	0
bin	2.5e-05	0
bin	3e-05	0
bin	3.5e-05	1
bin	4e-05	0
bin	4.5e-05	0
bin	5e-05	0
bin	5.5e-05	0
bin	6e-05	0
bin	6.5e-05	0
bin	7e-05	0
bin	7.5e-05	0
bin	8e-05	0
bin	8.5e-05	3
bin	9e-05	1
bin	9.5e-05	27
bin	0.0001	0
bin	0.000105	1
bin	0.00011	0
bin	0.000115	0
bin	0.00012	0
bin	0.000125	0
bin	0.00013	0
bin	0.000135	0
bin	0.00014	0
bin	0.000145	0
bin	0.00015	0
bin	0.000155	0
bin	0.00016	0
bin	0.000165	0
bin	0.00017	0
bin	0.000175	0
bin	0.00018	0
bin	0.000185	0
bin	0.00019	0
bin	0.000195	0
bin	0.0002	0
bin	0.000205	9
bin	0.00021	0
bin	0.000215	0
bin	0.00022	0
bin	0.000225	0
bin	0.00023	0
bin	0.000235	0
bin	0.00024	0
bin	0.000245	0
bin	0.00025	0
bin	0.000255	0
bin	0.00026	0
bin	0.000265	0
bin	0.00027	0
bin	0.000275	4328
bin	0.00028	0
bin	0.000285	47
bin	0.00029	0
bin	0.000295	0
bin	0.0003	0
bin	0.000305	0
bin	0.00031	0
bin	0.000315	0
bin	0.00032	0
bin	0.000325	0
bin	0.00033	0
bin	0.000335	1
bin	0.00034	0
statistic AnnotationShowcase.host1.wlan[0].mac.dcf frameSequenceNumPackets:histogram
field count 4418
field mean 1.9997736532368
field stddev 0.015044825131616
field min 1
field max 2
field sum 8835
field sqrsum 17669
attr recordingmode histogram
attr source frameSequenceNumPackets(frameSequenceFinished)
attr title "frame sequences: number of packets"
bin	-inf	0
bin	0	0
bin	1	1
bin	2	4417
bin	3	0
scalar AnnotationShowcase.host1.wlan[0].mac.dcf packetReceivedFromPeer:count 8944
attr interpolationmode none
attr recordingmode count
attr title "packets received, count"
scalar AnnotationShowcase.host1.wlan[0].mac.dcf packetReceivedFromPeer:sum(packetBytes) 401756
attr interpolationmode none
attr recordingmode sum(packetBytes)
attr title "packets received, sum(packetBytes)"
scalar AnnotationShowcase.host1.wlan[0].mac.dcf packetReceivedFromPeerUnicast:count 8693
attr interpolationmode none
attr recordingmode count
attr source ieee80211Unicast(packetReceivedFromPeer)
attr title "packets received: unicast, count"
scalar AnnotationShowcase.host1.wlan[0].mac.dcf packetReceivedFromPeerUnicast:sum(packetBytes) 389724
attr interpolationmode none
attr recordingmode sum(packetBytes)
attr source ieee80211Unicast(packetReceivedFromPeer)
attr title "packets received: unicast, sum(packetBytes)"
scalar AnnotationShowcase.host1.wlan[0].mac.dcf packetReceivedFromPeerMulticast:count 251
attr interpolationmode none
attr recordingmode count
attr source ieee80211Multicast(packetReceivedFromPeer)
attr title "packets received: multicast, count"
scalar AnnotationShowcase.host1.wlan[0].mac.dcf packetReceivedFromPeerMulticast:sum(packetBytes) 12032
attr interpolationmode none
attr recordingmode sum(packetBytes)
attr source ieee80211Multicast(packetReceivedFromPeer)
attr title "packets received: multicast, sum(packetBytes)"
scalar AnnotationShowcase.host1.wlan[0].mac.dcf packetReceivedFromPeerBroadcast:count 251
attr interpolationmode none
attr recordingmode count
attr source ieee80211Broadcast(packetReceivedFromPeer)
attr title "packets received: broadcast, count"
scalar AnnotationShowcase.host1.wlan[0].mac.dcf packetReceivedFromPeerBroadcast:sum(packetBytes) 12032
attr interpolationmode none
attr recordingmode sum(packetBytes)
attr source ieee80211Broadcast(packetReceivedFromPeer)
attr title "packets received: broadcast, sum(packetBytes)"
scalar AnnotationShowcase.host1.wlan[0].mac.dcf packetReceivedFromPeerWithRetry:count 76
attr interpolationmode none
attr recordingmode count
attr source ieee80211Retry(packetReceivedFromPeer)
attr title "packets received: with retry, count"
scalar AnnotationShowcase.host1.wlan[0].mac.dcf packetReceivedFromPeerWithRetry:sum(packetBytes) 5780
attr interpolationmode none
attr recordingmode sum(packetBytes)
attr source ieee80211Retry(packetReceivedFromPeer)
attr title "packets received: with retry, sum(packetBytes)"
scalar AnnotationShowcase.host1.wlan[0].mac.dcf packetReceivedFromPeerWithoutRetry:count 8868
attr interpolationmode none
attr recordingmode count
attr source ieee80211NotRetry(packetReceivedFromPeer)
attr title "packets received: without retry, count"
scalar AnnotationShowcase.host1.wlan[0].mac.dcf packetReceivedFromPeerWithoutRetry:sum(packetBytes) 395976
attr interpolationmode none
attr recordingmode sum(packetBytes)
attr source ieee80211NotRetry(packetReceivedFromPeer)
attr title "packets received: without retry, sum(packetBytes)"
scalar AnnotationShowcase.host1.wlan[0].mac.dcf packetSentToPeer:count 8743
attr interpolationmode none
attr recordingmode count
attr title "packets sent, count"
scalar AnnotationShowcase.host1.wlan[0].mac.dcf packetSentToPeer:sum(packetBytes) 2744666
attr interpolationmode none
attr recordingmode sum(packetBytes)
attr title "packets sent, sum(packetBytes)"
scalar AnnotationShowcase.host1.wlan[0].mac.dcf packetSentToPeerUnicast:count 8742
attr interpolationmode none
attr recordingmode count
attr source ieee80211Unicast(packetSentToPeer)
attr title "packets sent: unicast, count"
scalar AnnotationShowcase.host1.wlan[0].mac.dcf packetSentToPeerUnicast:sum(packetBytes) 2744634
attr interpolationmode none
attr recordingmode sum(packetBytes)
attr source ieee80211Unicast(packetSentToPeer)
attr title "packets sent: unicast, sum(packetBytes)"
scalar AnnotationShowcase.host1.wlan[0].mac.dcf packetSentToPeerMulticast:count 1
attr interpolationmode none
attr recordingmode count
attr source ieee80211Multicast(packetSentToPeer)
attr title "packets sent: multicast, count"
scalar AnnotationShowcase.host1.wlan[0].mac.dcf packetSentToPeerMulticast:sum(packetBytes) 32
attr interpolationmode none
attr recordingmode sum(packetBytes)
attr source ieee80211Multicast(packetSentToPeer)
attr title "packets sent: multicast, sum(packetBytes)"
scalar AnnotationShowcase.host1.wlan[0].mac.dcf packetSentToPeerBroadcast:count 1
attr interpolationmode none
attr recordingmode count
attr source ieee80211Broadcast(packetSentToPeer)
attr title "packets sent: broadcast , count"
scalar AnnotationShowcase.host1.wlan[0].mac.dcf packetSentToPeerBroadcast:sum(packetBytes) 32
attr interpolationmode none
attr recordingmode sum(packetBytes)
attr source ieee80211Broadcast(packetSentToPeer)
attr title "packets sent: broadcast , sum(packetBytes)"
scalar AnnotationShowcase.host1.wlan[0].mac.dcf packetSentToPeerWithRetry:count 49
attr interpolationmode none
attr recordingmode count
attr source ieee80211Retry(packetSentToPeer)
attr title "packets sent: with retry, count"
scalar AnnotationShowcase.host1.wlan[0].mac.dcf packetSentToPeerWithRetry:sum(packetBytes) 29456
attr interpolationmode none
attr recordingmode sum(packetBytes)
attr source ieee80211Retry(packetSentToPeer)
attr title "packets sent: with retry, sum(packetBytes)"
scalar AnnotationShowcase.host1.wlan[0].mac.dcf packetSentToPeerWithoutRetry:count 8694
attr interpolationmode none
attr recordingmode count
attr source ieee80211NotRetry(packetSentToPeer)
attr title "packets sent: without retry, count"
scalar AnnotationShowcase.host1.wlan[0].mac.dcf packetSentToPeerWithoutRetry:sum(packetBytes) 2715210
attr interpolationmode none
attr recordingmode sum(packetBytes)
attr source ieee80211NotRetry(packetSentToPeer)
attr title "packets sent: without retry, sum(packetBytes)"
scalar AnnotationShowcase.host1.wlan[0].mac.dcf packetDrop:count 17375
attr interpolationmode none
attr recordingmode count
attr source packetDropped
attr title "packet drops, count"
scalar AnnotationShowcase.host1.wlan[0].mac.dcf packetDrop:sum(packetBytes) 3093718
attr interpolationmode none
attr recordingmode sum(packetBytes)
attr source packetDropped
attr title "packet drops, sum(packetBytes)"
scalar AnnotationShowcase.host1.wlan[0].mac.dcf packetDropNotAddressedToUs:count 17375
attr interpolationmode none
attr recordingmode count
attr source packetDropReasonIsNotAddressedToUs(packetDropped)
attr title "packet drops: not addressed to us, count"
scalar AnnotationShowcase.host1.wlan[0].mac.dcf packetDropNotAddressedToUs:sum(packetBytes) 3093718
attr interpolationmode none
attr recordingmode sum(packetBytes)
attr source packetDropReasonIsNotAddressedToUs(packetDropped)
attr title "packet drops: not addressed to us, sum(packetBytes)"
scalar AnnotationShowcase.host1.wlan[0].mac.dcf packetDropQueueOverflow:count 0
attr interpolationmode none
attr recordingmode count
attr source packetDropReasonIsQueueOverflow(packetDropped)
attr title "packet drops: queue overflow, count"
scalar AnnotationShowcase.host1.wlan[0].mac.dcf packetDropQueueOverflow:sum(packetBytes) 0
attr interpolationmode none
attr recordingmode sum(packetBytes)
attr source packetDropReasonIsQueueOverflow(packetDropped)
attr title "packet drops: queue overflow, sum(packetBytes)"
scalar AnnotationShowcase.host1.wlan[0].mac.dcf packetDropRetryLimitReached:count 0
attr interpolationmode none
attr recordingmode count
attr source packetDropReasonIsRetryLimitReached(packetDropped)
attr title "packet drops: retry limit reached, count"
scalar AnnotationShowcase.host1.wlan[0].mac.dcf packetDropRetryLimitReached:sum(packetBytes) 0
attr interpolationmode none
attr recordingmode sum(packetBytes)
attr source packetDropReasonIsRetryLimitReached(packetDropped)
attr title "packet drops: retry limit reached, sum(packetBytes)"
scalar AnnotationShowcase.host1.wlan[0].mac.dcf linkBroken:count 0
attr interpolationmode none
attr recordingmode count
attr title "link breaks, count"
scalar AnnotationShowcase.host1.wlan[0].mac packetReceivedFromLower:count 26348
attr interpolationmode none
attr recordingmode count
attr title "packets received from lower layer, count"
scalar AnnotationShowcase.host1.wlan[0].mac packetReceivedFromLower:sum(packetBytes) 3505182
attr interpolationmode none
attr recordingmode sum(packetBytes)
attr title "packets received from lower layer, sum(packetBytes)"
scalar AnnotationShowcase.host1.wlan[0].mac packetSentToLower:count 8743
attr interpolationmode none
attr recordingmode count
attr title "packets sent to lower layer, count"
scalar AnnotationShowcase.host1.wlan[0].mac packetSentToLower:sum(packetBytes) 2744666
attr interpolationmode none
attr recordingmode sum(packetBytes)
attr title "packets sent to lower layer, sum(packetBytes)"
scalar AnnotationShowcase.host1.wlan[0].mac packetReceivedFromUpper:count 4366
attr interpolationmode none
attr recordingmode count
attr title "packets received from upper layer, count"
scalar AnnotationShowcase.host1.wlan[0].mac packetReceivedFromUpper:sum(packetBytes) 2532340
attr interpolationmode none
attr recordingmode sum(packetBytes)
attr title "packets received from upper layer, sum(packetBytes)"
scalar AnnotationShowcase.host1.wlan[0].mac packetSentToUpper:count 4321
attr interpolationmode none
attr recordingmode count
attr title "packets sent to upper layer, count"
scalar AnnotationShowcase.host1.wlan[0].mac packetSentToUpper:sum(packetBytes) 207432
attr interpolationmode none
attr recordingmode sum(packetBytes)
attr title "packets sent to upper layer, sum(packetBytes)"
scalar AnnotationShowcase.host1.wlan[0].mac packetDrop:count 17404
attr interpolationmode none
attr recordingmode count
attr source packetDropped
attr title "packet drops, count"
scalar AnnotationShowcase.host1.wlan[0].mac packetDrop:sum(packetBytes) 3103386
attr interpolationmode none
attr recordingmode sum(packetBytes)
attr source packetDropped
attr title "packet drops, sum(packetBytes)"
scalar AnnotationShowcase.host1.wlan[0].mac packetDropIncorrectlyReceived:count 28
attr interpolationmode none
attr recordingmode count
attr source packetDropReasonIsIncorrectlyReceived(packetDropped)
attr title "packet drops: incorrectly received, count"
scalar AnnotationShowcase.host1.wlan[0].mac packetDropIncorrectlyReceived:sum(packetBytes) 9632
attr interpolationmode none
attr recordingmode sum(packetBytes)
attr source packetDropReasonIsIncorrectlyReceived(packetDropped)
attr title "packet drops: incorrectly received, sum(packetBytes)"
scalar AnnotationShowcase.host1.wlan[0].mac packetDropNotAddressedToUs:count 17375
attr interpolationmode none
attr recordingmode count
attr source packetDropReasonIsNotAddressedToUs(packetDropped)
attr title "packet drops: not addressed to us, count"
scalar AnnotationShowcase.host1.wlan[0].mac packetDropNotAddressedToUs:sum(packetBytes) 3093718
attr interpolationmode none
attr recordingmode sum(packetBytes)
attr source packetDropReasonIsNotAddressedToUs(packetDropped)
attr title "packet drops: not addressed to us, sum(packetBytes)"
scalar AnnotationShowcase.host1.wlan[0].mac packetDropQueueOverflow:count 0
attr interpolationmode none
attr recordingmode count
attr source packetDropReasonIsQueueOverflow(packetDropped)
attr title "packet drops: queue overflow, count"
scalar AnnotationShowcase.host1.wlan[0].mac packetDropQueueOverflow:sum(packetBytes) 0
attr interpolationmode none
attr recordingmode sum(packetBytes)
attr source packetDropReasonIsQueueOverflow(packetDropped)
attr title "packet drops: queue overflow, sum(packetBytes)"
scalar AnnotationShowcase.host1.wlan[0].mac packetDropRetryLimitReached:count 0
attr interpolationmode none
attr recordingmode count
attr source packetDropReasonIsRetryLimitReached(packetDropped)
attr title "packet drops: retry limit reached, count"
scalar AnnotationShowcase.host1.wlan[0].mac packetDropRetryLimitReached:sum(packetBytes) 0
attr interpolationmode none
attr recordingmode sum(packetBytes)
attr source packetDropReasonIsRetryLimitReached(packetDropped)
attr title "packet drops: retry limit reached, sum(packetBytes)"
scalar AnnotationShowcase.host1.wlan[0].mac packetDropDuplicateDetected:count 0
attr interpolationmode none
attr recordingmode count
attr source packetDropReasonIsDuplicateDetected(packetDropped)
attr title "packet drops: duplicate detected, count"
scalar AnnotationShowcase.host1.wlan[0].mac packetDropDuplicateDetected:sum(packetBytes) 0
attr interpolationmode none
attr recordingmode sum(packetBytes)
attr source packetDropReasonIsDuplicateDetected(packetDropped)
attr title "packet drops: duplicate detected, sum(packetBytes)"
scalar AnnotationShowcase.host1.wlan[0].mac packetDropOther:count 1
attr interpolationmode none
attr recordingmode count
attr source packetDropReasonIsOther(packetDropped)
attr title "packet drops: other, count"
scalar AnnotationShowcase.host1.wlan[0].mac packetDropOther:sum(packetBytes) 36
attr interpolationmode none
attr recordingmode sum(packetBytes)
attr source packetDropReasonIsOther(packetDropped)
attr title "packet drops: other, sum(packetBytes)"
scalar AnnotationShowcase.host1.wlan[0].mac linkBroken:count 0
attr interpolationmode none
attr recordingmode count
attr title "link breaks, count"
statistic AnnotationShowcase.host1.wlan[0].radio radioChannel:histogram
field count 4
field mean 0
field stddev 0
field min 0
field max 0
field sum 0
field sqrsum 0
attr interpolationmode sample-hold
attr recordingmode histogram
attr source radioChannelChanged
attr title "Radio channel"
bin	-inf	0
bin	-0.5	0
bin	-0.48	0
bin	-0.46	0
bin	-0.44	0
bin	-0.42	0
bin	-0.4	0
bin	-0.38	0
bin	-0.36	0
bin	-0.34	0
bin	-0.32	0
bin	-0.3	0
bin	-0.28	0
bin	-0.26	0
bin	-0.24	0
bin	-0.22	0
bin	-0.2	0
bin	-0.18	0
bin	-0.16	0
bin	-0.14	0
bin	-0.12	0
bin	-0.1	0
bin	-0.08	0
bin	-0.06	0
bin	-0.04	0
bin	-0.02	0
bin	0	4
bin	0.02	0
bin	0.04	0
bin	0.06	0
bin	0.08	0
bin	0.1	0
bin	0.12	0
bin	0.14	0
bin	0.16	0
bin	0.18	0
bin	0.2	0
bin	0.22	0
bin	0.24	0
bin	0.26	0
bin	0.28	0
bin	0.3	0
bin	0.32	0
bin	0.34	0
bin	0.36	0
bin	0.38	0
bin	0.4	0
bin	0.42	0
bin	0.44	0
bin	0.46	0
bin	0.48	0
bin	0.5	0
scalar AnnotationShowcase.host1.wlan[0].radio radioMode:count 17489
attr interpolationmode sample-hold
attr recordingmode count
attr source radioModeChanged
attr title "Radio mode, count"
scalar AnnotationShowcase.host1.wlan[0].radio receptionState:count 70210
attr interpolationmode sample-hold
attr recordingmode count
attr source receptionStateChanged
attr title "Radio reception state, count"
scalar AnnotationShowcase.host1.wlan[0].radio transmissionState:count 34972
attr interpolationmode sample-hold
attr recordingmode count
attr source transmissionStateChanged
attr title "Radio transmission state, count"
statistic AnnotationShowcase.host1.wlan[0].radio minSnir:histogram
field count 26348
field mean 6835.0759030809
field stddev 2778.8453888347
field min 3.0351067676557
field max 8787.6826952789
field sum 180090579.89437
field sqrsum 1434383834727.3
attr recordingmode histogram
attr source minimumSnir(packetSentToUpper)
attr title "Min SNIR"
bin	-inf	0
bin	0	28
bin	200	0
bin	400	0
bin	600	0
bin	800	0
bin	1000	0
bin	1200	0
bin	1400	0
bin	1600	0
bin	1800	0
bin	2000	0
bin	2200	0
bin	2400	0
bin	2600	0
bin	2800	8688
bin	3000	0
bin	3200	0
bin	3400	0
bin	3600	0
bin	3800	0
bin	4000	0
bin	4200	0
bin	4400	0
bin	4600	0
bin	4800	0
bin	5000	0
bin	5200	0
bin	5400	0
bin	5600	0
bin	5800	0
bin	6000	0
bin	6200	0
bin	6400	0
bin	6600	0
bin	6800	0
bin	7000	0
bin	7200	0
bin	7400	0
bin	7600	0
bin	7800	0
bin	8000	0
bin	8200	0
bin	8400	0
bin	8600	17632
bin	8800	0
bin	9000	0
bin	9200	0
bin	9400	0
bin	9600	0
bin	9800	0
bin	10000	0
bin	10200	0
bin	10400	0
statistic AnnotationShowcase.host1.wlan[0].radio packetErrorRate:histogram
field count 26348
field mean 0.0010626992561105
field stddev 0.032582360538681
field min 0
field max 1
field sum 28
field sqrsum 28
attr recordingmode histogram
attr source packetErrorRate(packetSentToUpper)
attr title "Packet error rate"
bin	-inf	0
bin	-0.5	0
bin	-0.48	0
bin	-0.46	0
bin	-0.44	0
bin	-0.42	0
bin	-0.4	0
bin	-0.38	0
bin	-0.36	0
bin	-0.34	0
bin	-0.32	0
bin	-0.3	0
bin	-0.28	0
bin	-0.26	0
bin	-0.24	0
bin	-0.22	0
bin	-0.2	0
bin	-0.18	0
bin	-0.16	0
bin	-0.14	0
bin	-0.12	0
bin	-0.1	0
bin	-0.08	0
bin	-0.06	0
bin	-0.04	0
bin	-0.02	0
bin	0	26320
bin	0.02	0
bin	0.04	0
bin	0.06	0
bin	0.08	0
bin	0.1	0
bin	0.12	0
bin	0.14	0
bin	0.16	0
bin	0.18	0
bin	0.2	0
bin	0.22	0
bin	0.24	0
bin	0.26	0
bin	0.28	0
bin	0.3	0
bin	0.32	0
bin	0.34	0
bin	0.36	0
bin	0.38	0
bin	0.4	0
bin	0.42	0
bin	0.44	0
bin	0.46	0
bin	0.48	0
bin	0.5	0
bin	0.52	0
bin	0.54	0
bin	0.56	0
bin	0.58	0
bin	0.6	0
bin	0.62	0
bin	0.64	0
bin	0.66	0
bin	0.68	0
bin	0.7	0
bin	0.72	0
bin	0.74	0
bin	0.76	0
bin	0.78	0
bin	0.8	0
bin	0.82	0
bin	0.84	0
bin	0.86	0
bin	0.88	0
bin	0.9	0
bin	0.92	0
bin	0.94	0
bin	0.96	0
bin	0.98	0
bin	1	28
bin	1.02	0
statistic AnnotationShowcase.host1.wlan[0].radio bitErrorRate:histogram
field count 0
field mean -nan
field stddev nan
field min nan
field max nan
field sum 0
field sqrsum 0
attr recordingmode histogram
attr source bitErrorRate(packetSentToUpper)
attr title "Bit error rate"
bin	-inf	0
bin	0	0
bin	1	0
statistic AnnotationShowcase.host1.wlan[0].radio symbolErrorRate:histogram
field count 0
field mean -nan
field stddev nan
field min nan
field max nan
field sum 0
field sqrsum 0
attr recordingmode histogram
attr source symbolErrorRate(packetSentToUpper)
attr title "Symbol error rate"
bin	-inf	0
bin	0	0
bin	1	0
scalar AnnotationShowcase.host1.wlan[0] packetDropInterfaceDown:count 0
attr interpolationmode none
attr recordingmode count
attr source packetDropReasonIsInterfaceDown(packetDropped)
attr title "packet drops: interface down, count"
scalar AnnotationShowcase.host1.wlan[0] packetDropInterfaceDown:sum(packetBytes) 0
attr interpolationmode none
attr recordingmode sum(packetBytes)
attr source packetDropReasonIsInterfaceDown(packetDropped)
attr title "packet drops: interface down, sum(packetBytes)"
scalar AnnotationShowcase.host1.wlan[0] packetDropNoCarrier:count 0
attr interpolationmode none
attr recordingmode count
attr source packetDropReasonIsNoCarrier(packetDropped)
attr title "packet drops: no carrier, count"
scalar AnnotationShowcase.host1.wlan[0] packetDropNoCarrier:sum(packetBytes) 0
attr interpolationmode none
attr recordingmode sum(packetBytes)
attr source packetDropReasonIsNoCarrier(packetDropped)
attr title "packet drops: no carrier, sum(packetBytes)"
scalar AnnotationShowcase.host1.ipv4.ip packetDropAddressResolutionFailed:count 0
attr interpolationmode none
attr recordingmode count
attr source packetDropReasonIsAddressResolutionFailed(packetDropped)
attr title "packet drop: address resolution failed, count"
scalar AnnotationShowcase.host1.ipv4.ip packetDropAddressResolutionFailed:sum(packetBytes) 0
attr interpolationmode none
attr recordingmode sum(packetBytes)
attr source packetDropReasonIsAddressResolutionFailed(packetDropped)
attr title "packet drop: address resolution failed, sum(packetBytes)"
scalar AnnotationShowcase.host1.ipv4.ip packetDropHopLimitReached:count 0
attr interpolationmode none
attr recordingmode count
attr source packetDropReasonIsHopLimitReached(packetDropped)
attr title "packet drop: hop limit reached, count"
scalar AnnotationShowcase.host1.ipv4.ip packetDropHopLimitReached:sum(packetBytes) 0
attr interpolationmode none
attr recordingmode sum(packetBytes)
attr source packetDropReasonIsHopLimitReached(packetDropped)
attr title "packet drop: hop limit reached, sum(packetBytes)"
scalar AnnotationShowcase.host1.ipv4.ip packetDropForwardingDisabled:count 0
attr interpolationmode none
attr recordingmode count
attr source packetDropReasonIsForwardingDisabled(packetDropped)
attr title "packet drop: forwarding disabled, count"
scalar AnnotationShowcase.host1.ipv4.ip packetDropForwardingDisabled:sum(packetBytes) 0
attr interpolationmode none
attr recordingmode sum(packetBytes)
attr source packetDropReasonIsForwardingDisabled(packetDropped)
attr title "packet drop: forwarding disabled, sum(packetBytes)"
scalar AnnotationShowcase.host1.ipv4.ip packetDropNoInterfaceFound:count 0
attr interpolationmode none
attr recordingmode count
attr source packetDropReasonIsNoInterfaceFound(packetDropped)
attr title "packet drop: no interface found, count"
scalar AnnotationShowcase.host1.ipv4.ip packetDropNoInterfaceFound:sum(packetBytes) 0
attr interpolationmode none
attr recordingmode sum(packetBytes)
attr source packetDropReasonIsNoInterfaceFound(packetDropped)
attr title "packet drop: no interface found, sum(packetBytes)"
scalar AnnotationShowcase.host1.ipv4.ip packetDropNoRouteFound:count 0
attr interpolationmode none
attr recordingmode count
attr source packetDropReasonIsNoRouteFound(packetDropped)
attr title "packet drop: no route found, count"
scalar AnnotationShowcase.host1.ipv4.ip packetDropNoRouteFound:sum(packetBytes) 0
attr interpolationmode none
attr recordingmode sum(packetBytes)
attr source packetDropReasonIsNoRouteFound(packetDropped)
attr title "packet drop: no route found, sum(packetBytes)"
scalar AnnotationShowcase.host1.ipv4.ip packetDropUndefined:count 0
attr interpolationmode none
attr recordingmode count
attr source packetDropReasonIsUndefined(packetDropped)
attr title "packet drop: undefined, count"
scalar AnnotationShowcase.host1.ipv4.ip packetDropUndefined:sum(packetBytes) 0
attr interpolationmode none
attr recordingmode sum(packetBytes)
attr source packetDropReasonIsUndefined(packetDropped)
attr title "packet drop: undefined, sum(packetBytes)"
scalar AnnotationShowcase.host1.ipv4.arp arpResolutionFailed:count 0
attr recordingmode count
attr title "ARP failed resolutions, count"
scalar AnnotationShowcase.host1.ipv4.arp arpResolutionCompleted:count 1
attr recordingmode count
attr title "ARP completed resolutions, count"
scalar AnnotationShowcase.host1.ipv4.arp arpResolutionInitiated:count 1
attr recordingmode count
attr title "ARP initiated resolutions, count"
scalar AnnotationShowcase.host1.ipv4.arp arpReplySent:count 0
attr recordingmode count
attr source arpReplySent
attr title "ARP replies sent, count"
scalar AnnotationShowcase.host1.ipv4.arp arpReplySent:sum(packetBytes) 0
attr recordingmode sum(packetBytes)
attr source arpReplySent
attr title "ARP replies sent, sum(packetBytes)"
scalar AnnotationShowcase.host1.ipv4.arp arpRequestSent:count 2
attr recordingmode count
attr source arpRequestSent
attr title "ARP request sent, count"
scalar AnnotationShowcase.host1.ipv4.arp arpRequestSent:sum(packetBytes) 56
attr recordingmode sum(packetBytes)
attr source arpRequestSent
attr title "ARP request sent, sum(packetBytes)"
scalar AnnotationShowcase.host1.udp packetReceived:count 0
attr interpolationmode none
attr recordingmode count
attr source packetReceived
attr title "packets received, count"
scalar AnnotationShowcase.host1.udp packetReceived:sum(packetBytes) 0
attr interpolationmode none
attr recordingmode sum(packetBytes)
attr source packetReceived
attr title "packets received, sum(packetBytes)"
scalar AnnotationShowcase.host1.udp packetSent:count 0
attr interpolationmode none
attr recordingmode count
attr source packetSent
attr title "packets sent, count"
scalar AnnotationShowcase.host1.udp packetSent:sum(packetBytes) 0
attr interpolationmode none
attr recordingmode sum(packetBytes)
attr source packetSent
attr title "packets sent, sum(packetBytes)"
scalar AnnotationShowcase.host1.udp passedUpPk:count 0
attr interpolationmode none
attr recordingmode count
attr source packetSentToUpper
attr title "packets passed up, count"
scalar AnnotationShowcase.host1.udp droppedPkWrongPort:count 0
attr interpolationmode none
attr recordingmode count
attr source packetDropReasonIsNoPortFound(packetDropped)
attr title "packets dropped (wrong port), count"
scalar AnnotationShowcase.host1.udp droppedPkBadChecksum:count 0
attr interpolationmode none
attr recordingmode count
attr source packetDropReasonIsIncorrectlyReceived(packetDropped)
attr title "packets dropped (checksum error), count"
scalar AnnotationShowcase.host1.app[0] bytesRcvd 0
scalar AnnotationShowcase.host1.app[0] bytesSent 256000
scalar AnnotationShowcase.host1.app[0] packetReceived:count 0
attr interpolationmode none
attr recordingmode count
attr source packetReceived
attr title "packets received, count"
scalar AnnotationShowcase.host1.app[0] packetReceived:sum(packetBytes) 0
attr interpolationmode none
attr recordingmode sum(packetBytes)
attr source packetReceived
attr title "packets received, sum(packetBytes)"
statistic AnnotationShowcase.host1.app[0] endToEndDelay:histogram
field count 0
field mean -nan
field stddev nan
field min nan
field max nan
field sum 0
field sqrsum 0
attr interpolationmode none
attr recordingmode histogram
attr source dataAge(packetReceived)
attr title "end-to-end delay"
attr unit s
bin	-inf	0
bin	0	0
bin	1	0
statistic AnnotationShowcase.host1.app[0] endToEndDelay:weightedHistogram
field count 0
field mean -nan
field stddev nan
field min nan
field max nan
field weights 0
field weightedSum 0
field sqrSumWeights 0
field weightedSqrSum 0
attr interpolationmode none
attr recordingmode weightedHistogram
attr source dataAge(packetReceived)
attr title "end-to-end delay, weightedHistogram"
attr unit s
bin	-inf	0
bin	0	0
bin	1	0
scalar AnnotationShowcase.host1.app[0] packetSent:count 1
attr interpolationmode none
attr recordingmode count
attr source packetSent
attr title "packets sent, count"
scalar AnnotationShowcase.host1.app[0] packetSent:sum(packetBytes) 256000
attr interpolationmode none
attr recordingmode sum(packetBytes)
attr source packetSent
attr title "packets sent, sum(packetBytes)"
scalar AnnotationShowcase.host1.app[1] bytesRcvd 0
scalar AnnotationShowcase.host1.app[1] bytesSent 256000
scalar AnnotationShowcase.host1.app[1] packetReceived:count 0
attr interpolationmode none
attr recordingmode count
attr source packetReceived
attr title "packets received, count"
scalar AnnotationShowcase.host1.app[1] packetReceived:sum(packetBytes) 0
attr interpolationmode none
attr recordingmode sum(packetBytes)
attr source packetReceived
attr title "packets received, sum(packetBytes)"
statistic AnnotationShowcase.host1.app[1] endToEndDelay:histogram
field count 0
field mean -nan
field stddev nan
field min nan
field max nan
field sum 0
field sqrsum 0
attr interpolationmode none
attr recordingmode histogram
attr source dataAge(packetReceived)
attr title "end-to-end delay"
attr unit s
bin	-inf	0
bin	0	0
bin	1	0
statistic AnnotationShowcase.host1.app[1] endToEndDelay:weightedHistogram
field count 0
field mean -nan
field stddev nan
field min nan
field max nan
field weights 0
field weightedSum 0
field sqrSumWeights 0
field weightedSqrSum 0
attr interpolationmode none
attr recordingmode weightedHistogram
attr source dataAge(packetReceived)
attr title "end-to-end delay, weightedHistogram"
attr unit s
bin	-inf	0
bin	0	0
bin	1	0
scalar AnnotationShowcase.host1.app[1] packetSent:count 1
attr interpolationmode none
attr recordingmode count
attr source packetSent
attr title "packets sent, count"
scalar AnnotationShowcase.host1.app[1] packetSent:sum(packetBytes) 256000
attr interpolationmode none
attr recordingmode sum(packetBytes)
attr source packetSent
attr title "packets sent, sum(packetBytes)"
scalar AnnotationShowcase.host1.app[2] bytesRcvd 0
scalar AnnotationShowcase.host1.app[2] bytesSent 256000
scalar AnnotationShowcase.host1.app[2] packetReceived:count 0
attr interpolationmode none
attr recordingmode count
attr source packetReceived
attr title "packets received, count"
scalar AnnotationShowcase.host1.app[2] packetReceived:sum(packetBytes) 0
attr interpolationmode none
attr recordingmode sum(packetBytes)
attr source packetReceived
attr title "packets received, sum(packetBytes)"
statistic AnnotationShowcase.host1.app[2] endToEndDelay:histogram
field count 0
field mean -nan
field stddev nan
field min nan
field max nan
field sum 0
field sqrsum 0
attr interpolationmode none
attr recordingmode histogram
attr source dataAge(packetReceived)
attr title "end-to-end delay"
attr unit s
bin	-inf	0
bin	0	0
bin	1	0
statistic AnnotationShowcase.host1.app[2] endToEndDelay:weightedHistogram
field count 0
field mean -nan
field stddev nan
field min nan
field max nan
field weights 0
field weightedSum 0
field sqrSumWeights 0
field weightedSqrSum 0
attr interpolationmode none
attr recordingmode weightedHistogram
attr source dataAge(packetReceived)
attr title "end-to-end delay, weightedHistogram"
attr unit s
bin	-inf	0
bin	0	0
bin	1	0
scalar AnnotationShowcase.host1.app[2] packetSent:count 1
attr interpolationmode none
attr recordingmode count
attr source packetSent
attr title "packets sent, count"
scalar AnnotationShowcase.host1.app[2] packetSent:sum(packetBytes) 256000
attr interpolationmode none
attr recordingmode sum(packetBytes)
attr source packetSent
attr title "packets sent, sum(packetBytes)"
scalar AnnotationShowcase.host1.app[3] bytesRcvd 0
scalar AnnotationShowcase.host1.app[3] bytesSent 256000
scalar AnnotationShowcase.host1.app[3] packetReceived:count 0
attr interpolationmode none
attr recordingmode count
attr source packetReceived
attr title "packets received, count"
scalar AnnotationShowcase.host1.app[3] packetReceived:sum(packetBytes) 0
attr interpolationmode none
attr recordingmode sum(packetBytes)
attr source packetReceived
attr title "packets received, sum(packetBytes)"
statistic AnnotationShowcase.host1.app[3] endToEndDelay:histogram
field count 0
field mean -nan
field stddev nan
field min nan
field max nan
field sum 0
field sqrsum 0
attr interpolationmode none
attr recordingmode histogram
attr source dataAge(packetReceived)
attr title "end-to-end delay"
attr unit s
bin	-inf	0
bin	0	0
bin	1	0
statistic AnnotationShowcase.host1.app[3] endToEndDelay:weightedHistogram
field count 0
field mean -nan
field stddev nan
field min nan
field max nan
field weights 0
field weightedSum 0
field sqrSumWeights 0
field weightedSqrSum 0
attr interpolationmode none
attr recordingmode weightedHistogram
attr source dataAge(packetReceived)
attr title "end-to-end delay, weightedHistogram"
attr unit s
bin	-inf	0
bin	0	0
bin	1	0
scalar AnnotationShowcase.host1.app[3] packetSent:count 1
attr interpolationmode none
attr recordingmode count
attr source packetSent
attr title "packets sent, count"
scalar AnnotationShowcase.host1.app[3] packetSent:sum(packetBytes) 256000
attr interpolationmode none
attr recordingmode sum(packetBytes)
attr source packetSent
attr title "packets sent, sum(packetBytes)"
scalar AnnotationShowcase.host1.app[4] bytesRcvd 0
scalar AnnotationShowcase.host1.app[4] bytesSent 256000
scalar AnnotationShowcase.host1.app[4] packetReceived:count 0
attr interpolationmode none
attr recordingmode count
attr source packetReceived
attr title "packets received, count"
scalar AnnotationShowcase.host1.app[4] packetReceived:sum(packetBytes) 0
attr interpolationmode none
attr recordingmode sum(packetBytes)
attr source packetReceived
attr title "packets received, sum(packetBytes)"
statistic AnnotationShowcase.host1.app[4] endToEndDelay:histogram
field count 0
field mean -nan
field stddev nan
field min nan
field max nan
field sum 0
field sqrsum 0
attr interpolationmode none
attr recordingmode histogram
attr source dataAge(packetReceived)
attr title "end-to-end delay"
attr unit s
bin	-inf	0
bin	0	0
bin	1	0
statistic AnnotationShowcase.host1.app[4] endToEndDelay:weightedHistogram
field count 0
field mean -nan
field stddev nan
field min nan
field max nan
field weights 0
field weightedSum 0
field sqrSumWeights 0
field weightedSqrSum 0
attr interpolationmode none
attr recordingmode weightedHistogram
attr source dataAge(packetReceived)
attr title "end-to-end delay, weightedHistogram"
attr unit s
bin	-inf	0
bin	0	0
bin	1	0
scalar AnnotationShowcase.host1.app[4] packetSent:count 1
attr interpolationmode none
attr recordingmode count
attr source packetSent
attr title "packets sent, count"
scalar AnnotationShowcase.host1.app[4] packetSent:sum(packetBytes) 256000
attr interpolationmode none
attr recordingmode sum(packetBytes)
attr source packetSent
attr title "packets sent, sum(packetBytes)"
scalar AnnotationShowcase.host1.app[5] bytesRcvd 0
scalar AnnotationShowcase.host1.app[5] bytesSent 256000
scalar AnnotationShowcase.host1.app[5] packetReceived:count 0
attr interpolationmode none
attr recordingmode count
attr source packetReceived
attr title "packets received, count"
scalar AnnotationShowcase.host1.app[5] packetReceived:sum(packetBytes) 0
attr interpolationmode none
attr recordingmode sum(packetBytes)
attr source packetReceived
attr title "packets received, sum(packetBytes)"
statistic AnnotationShowcase.host1.app[5] endToEndDelay:histogram
field count 0
field mean -nan
field stddev nan
field min nan
field max nan
field sum 0
field sqrsum 0
attr interpolationmode none
attr recordingmode histogram
attr source dataAge(packetReceived)
attr title "end-to-end delay"
attr unit s
bin	-inf	0
bin	0	0
bin	1	0
statistic AnnotationShowcase.host1.app[5] endToEndDelay:weightedHistogram
field count 0
field mean -nan
field stddev nan
field min nan
field max nan
field weights 0
field weightedSum 0
field sqrSumWeights 0
field weightedSqrSum 0
attr interpolationmode none
attr recordingmode weightedHistogram
attr source dataAge(packetReceived)
attr title "end-to-end delay, weightedHistogram"
attr unit s
bin	-inf	0
bin	0	0
bin	1	0
scalar AnnotationShowcase.host1.app[5] packetSent:count 1
attr interpolationmode none
attr recordingmode count
attr source packetSent
attr title "packets sent, count"
scalar AnnotationShowcase.host1.app[5] packetSent:sum(packetBytes) 256000
attr interpolationmode none
attr recordingmode sum(packetBytes)
attr source packetSent
attr title "packets sent, sum(packetBytes)"
scalar AnnotationShowcase.host1.app[6] bytesRcvd 0
scalar AnnotationShowcase.host1.app[6] bytesSent 256000
scalar AnnotationShowcase.host1.app[6] packetReceived:count 0
attr interpolationmode none
attr recordingmode count
attr source packetReceived
attr title "packets received, count"
scalar AnnotationShowcase.host1.app[6] packetReceived:sum(packetBytes) 0
attr interpolationmode none
attr recordingmode sum(packetBytes)
attr source packetReceived
attr title "packets received, sum(packetBytes)"
statistic AnnotationShowcase.host1.app[6] endToEndDelay:histogram
field count 0
field mean -nan
field stddev nan
field min nan
field max nan
field sum 0
field sqrsum 0
attr interpolationmode none
attr recordingmode histogram
attr source dataAge(packetReceived)
attr title "end-to-end delay"
attr unit s
bin	-inf	0
bin	0	0
bin	1	0
statistic AnnotationShowcase.host1.app[6] endToEndDelay:weightedHistogram
field count 0
field mean -nan
field stddev nan
field min nan
field max nan
field weights 0
field weightedSum 0
field sqrSumWeights 0
field weightedSqrSum 0
attr interpolationmode none
attr recordingmode weightedHistogram
attr source dataAge(packetReceived)
attr title "end-to-end delay, weightedHistogram"
attr unit s
bin	-inf	0
bin	0	0
bin	1	0
scalar AnnotationShowcase.host1.app[6] packetSent:count 1
attr interpolationmode none
attr recordingmode count
attr source packetSent
attr title "packets sent, count"
scalar AnnotationShowcase.host1.app[6] packetSent:sum(packetBytes) 256000
attr interpolationmode none
attr recordingmode sum(packetBytes)
attr source packetSent
attr title "packets sent, sum(packetBytes)"
scalar AnnotationShowcase.host1.app[7] bytesRcvd 0
scalar AnnotationShowcase.host1.app[7] bytesSent 256000
scalar AnnotationShowcase.host1.app[7] packetReceived:count 0
attr interpolationmode none
attr recordingmode count
attr source packetReceived
attr title "packets received, count"
scalar AnnotationShowcase.host1.app[7] packetReceived:sum(packetBytes) 0
attr interpolationmode none
attr recordingmode sum(packetBytes)
attr source packetReceived
attr title "packets received, sum(packetBytes)"
statistic AnnotationShowcase.host1.app[7] endToEndDelay:histogram
field count 0
field mean -nan
field stddev nan
field min nan
field max nan
field sum 0
field sqrsum 0
attr interpolationmode none
attr recordingmode histogram
attr source dataAge(packetReceived)
attr title "end-to-end delay"
attr unit s
bin	-inf	0
bin	0	0
bin	1	0
statistic AnnotationShowcase.host1.app[7] endToEndDelay:weightedHistogram
field count 0
field mean -nan
field stddev nan
field min nan
field max nan
field weights 0
field weightedSum 0
field sqrSumWeights 0
field weightedSqrSum 0
attr interpolationmode none
attr recordingmode weightedHistogram
attr source dataAge(packetReceived)
attr title "end-to-end delay, weightedHistogram"
attr unit s
bin	-inf	0
bin	0	0
bin	1	0
scalar AnnotationShowcase.host1.app[7] packetSent:count 1
attr interpolationmode none
attr recordingmode count
attr source packetSent
attr title "packets sent, count"
scalar AnnotationShowcase.host1.app[7] packetSent:sum(packetBytes) 256000
attr interpolationmode none
attr recordingmode sum(packetBytes)
attr source packetSent
attr title "packets sent, sum(packetBytes)"
scalar AnnotationShowcase.host1.app[8] bytesRcvd 0
scalar AnnotationShowcase.host1.app[8] bytesSent 256000
scalar AnnotationShowcase.host1.app[8] packetReceived:count 0
attr interpolationmode none
attr recordingmode count
attr source packetReceived
attr title "packets received, count"
scalar AnnotationShowcase.host1.app[8] packetReceived:sum(packetBytes) 0
attr interpolationmode none
attr recordingmode sum(packetBytes)
attr source packetReceived
attr title "packets received, sum(packetBytes)"
statistic AnnotationShowcase.host1.app[8] endToEndDelay:histogram
field count 0
field mean -nan
field stddev nan
field min nan
field max nan
field sum 0
field sqrsum 0
attr interpolationmode none
attr recordingmode histogram
attr source dataAge(packetReceived)
attr title "end-to-end delay"
attr unit s
bin	-inf	0
bin	0	0
bin	1	0
statistic AnnotationShowcase.host1.app[8] endToEndDelay:weightedHistogram
field count 0
field mean -nan
field stddev nan
field min nan
field max nan
field weights 0
field weightedSum 0
field sqrSumWeights 0
field weightedSqrSum 0
attr interpolationmode none
attr recordingmode weightedHistogram
attr source dataAge(packetReceived)
attr title "end-to-end delay, weightedHistogram"
attr unit s
bin	-inf	0
bin	0	0
bin	1	0
scalar AnnotationShowcase.host1.app[8] packetSent:count 1
attr interpolationmode none
attr recordingmode count
attr source packetSent
attr title "packets sent, count"
scalar AnnotationShowcase.host1.app[8] packetSent:sum(packetBytes) 256000
attr interpolationmode none
attr recordingmode sum(packetBytes)
attr source packetSent
attr title "packets sent, sum(packetBytes)"
scalar AnnotationShowcase.host2.lo[0].lo rcvdPkFromHl:count 0
attr interpolationmode none
attr recordingmode count
attr source packetReceivedFromUpper
attr title "packets received from higher layer, count"
scalar AnnotationShowcase.host2.lo[0].lo rcvdPkFromHl:sum(packetBytes) 0
attr interpolationmode none
attr recordingmode sum(packetBytes)
attr source packetReceivedFromUpper
attr title "packets received from higher layer, sum(packetBytes)"
scalar AnnotationShowcase.host2.lo[0].lo passedUpPk:count 0
attr interpolationmode none
attr recordingmode count
attr source packetSentToUpper
attr title "packets passed to higher layer, count"
scalar AnnotationShowcase.host2.lo[0].lo passedUpPk:sum(packetBytes) 0
attr interpolationmode none
attr recordingmode sum(packetBytes)
attr source packetSentToUpper
attr title "packets passed to higher layer, sum(packetBytes)"
scalar AnnotationShowcase.host2.lo[0] packetDropInterfaceDown:count 0
attr interpolationmode none
attr recordingmode count
attr source packetDropReasonIsInterfaceDown(packetDropped)
attr title "packet drops: interface down, count"
scalar AnnotationShowcase.host2.lo[0] packetDropInterfaceDown:sum(packetBytes) 0
attr interpolationmode none
attr recordingmode sum(packetBytes)
attr source packetDropReasonIsInterfaceDown(packetDropped)
attr title "packet drops: interface down, sum(packetBytes)"
scalar AnnotationShowcase.host2.lo[0] packetDropNoCarrier:count 0
attr interpolationmode none
attr recordingmode count
attr source packetDropReasonIsNoCarrier(packetDropped)
attr title "packet drops: no carrier, count"
scalar AnnotationShowcase.host2.lo[0] packetDropNoCarrier:sum(packetBytes) 0
attr interpolationmode none
attr recordingmode sum(packetBytes)
attr source packetDropReasonIsNoCarrier(packetDropped)
attr title "packet drops: no carrier, sum(packetBytes)"
scalar AnnotationShowcase.host2.wlan[0].agent dropConfirm:count 0
attr recordingmode count
attr title "dropped confirms, count"
scalar AnnotationShowcase.host2.wlan[0].agent acceptConfirm:count 3
attr recordingmode count
attr title "accepted confirms, count"
scalar AnnotationShowcase.host2.wlan[0].agent sentRequest:count 3
attr recordingmode count
attr title "sent requests, count"
scalar AnnotationShowcase.host2.wlan[0].mac.dcf.channelAccess.pendingQueue queueLength:last 0
attr autoWarmupFilter false
attr interpolationmode sample-hold
attr recordingmode last
attr source "warmup(atomic(constant0(packetPushEnded) + count(packetPushStarted) - count(packetPulled) - count(packetRemoved) - count(packetDropped)))"
attr title "queue length, last"
attr unit pk
scalar AnnotationShowcase.host2.wlan[0].mac.dcf.channelAccess.pendingQueue queueLength:max 9
attr autoWarmupFilter false
attr interpolationmode sample-hold
attr recordingmode max
attr source "warmup(atomic(constant0(packetPushEnded) + count(packetPushStarted) - count(packetPulled) - count(packetRemoved) - count(packetDropped)))"
attr title "queue length, max"
attr unit pk
scalar AnnotationShowcase.host2.wlan[0].mac.dcf.channelAccess.pendingQueue queueLength:timeavg 0.15130552259193
attr autoWarmupFilter false
attr interpolationmode sample-hold
attr recordingmode timeavg
attr source "warmup(atomic(constant0(packetPushEnded) + count(packetPushStarted) - count(packetPulled) - count(packetRemoved) - count(packetDropped)))"
attr title "queue length, timeavg"
attr unit pk
scalar AnnotationShowcase.host2.wlan[0].mac.dcf.channelAccess.pendingQueue queueBitLength:last 0
attr autoWarmupFilter false
attr interpolationmode sample-hold
attr recordingmode last
attr source "warmup(atomic(constant0(packetPushEnded) + sum(packetLength(packetPushStarted)) - sum(packetLength(packetPulled)) - sum(packetLength(packetRemoved)) - sum(packetLength(packetDropped))))"
attr title "queue bit length, last"
attr unit b
scalar AnnotationShowcase.host2.wlan[0].mac.dcf.channelAccess.pendingQueue queueBitLength:max 5472
attr autoWarmupFilter false
attr interpolationmode sample-hold
attr recordingmode max
attr source "warmup(atomic(constant0(packetPushEnded) + sum(packetLength(packetPushStarted)) - sum(packetLength(packetPulled)) - sum(packetLength(packetRemoved)) - sum(packetLength(packetDropped))))"
attr title "queue bit length, max"
attr unit b
scalar AnnotationShowcase.host2.wlan[0].mac.dcf.channelAccess.pendingQueue queueBitLength:timeavg 92.000088493592
attr autoWarmupFilter false
attr interpolationmode sample-hold
attr recordingmode timeavg
attr source "warmup(atomic(constant0(packetPushEnded) + sum(packetLength(packetPushStarted)) - sum(packetLength(packetPulled)) - sum(packetLength(packetRemoved)) - sum(packetLength(packetDropped))))"
attr title "queue bit length, timeavg"
attr unit b
statistic AnnotationShowcase.host2.wlan[0].mac.dcf.channelAccess.pendingQueue queueingTime:histogram
field count 4340
field mean 0.00086133394206267
field stddev 0.00079771487030929
field min 0
field max 0.007998890978
field sum 3.738189308552
field sqrsum 0.0059809477064138
attr interpolationmode none
attr recordingmode histogram
attr source queueingTime(packetPulled)
attr title "queueing times"
attr unit s
bin	-inf	0
bin	0	106
bin	0.0001	599
bin	0.0002	407
bin	0.0003	301
bin	0.0004	266
bin	0.0005	284
bin	0.0006	282
bin	0.0007	239
bin	0.0008	235
bin	0.0009	223
bin	0.001	237
bin	0.0011	185
bin	0.0012	137
bin	0.0013	133
bin	0.0014	99
bin	0.0015	80
bin	0.0016	74
bin	0.0017	49
bin	0.0018	56
bin	0.0019	54
bin	0.002	35
bin	0.0021	27
bin	0.0022	20
bin	0.0023	21
bin	0.0024	20
bin	0.0025	15
bin	0.0026	15
bin	0.0027	16
bin	0.0028	8
bin	0.0029	8
bin	0.003	7
bin	0.0031	7
bin	0.0032	9
bin	0.0033	6
bin	0.0034	6
bin	0.0035	4
bin	0.0036	8
bin	0.0037	3
bin	0.0038	3
bin	0.0039	5
bin	0.004	3
bin	0.0041	5
bin	0.0042	3
bin	0.0043	4
bin	0.0044	1
bin	0.0045	5
bin	0.0046	6
bin	0.0047	2
bin	0.0048	2
bin	0.0049	1
bin	0.005	1
bin	0.0051	2
bin	0.0052	4
bin	0.0053	3
bin	0.0054	0
bin	0.0055	1
bin	0.0056	0
bin	0.0057	1
bin	0.0058	1
bin	0.0059	0
bin	0.006	1
bin	0.0061	1
bin	0.0062	0
bin	0.0063	0
bin	0.0064	0
bin	0.0065	1
bin	0.0066	0
bin	0.0067	1
bin	0.0068	0
bin	0.0069	0
bin	0.007	1
bin	0.0071	0
bin	0.0072	0
bin	0.0073	0
bin	0.0074	0
bin	0.0075	0
bin	0.0076	0
bin	0.0077	0
bin	0.0078	0
bin	0.0079	1
bin	0.008	0
scalar AnnotationShowcase.host2.wlan[0].mac.dcf.channelAccess.pendingQueue outgoingPackets:count 4340
attr recordingmode count
attr source packetPulled
attr title "outgoing packets, count"
attr unit pk
scalar AnnotationShowcase.host2.wlan[0].mac.dcf.channelAccess.pendingQueue outgoingPacketLengths:sum 2637568
attr interpolationmode none
attr recordingmode sum
attr source packetLength(packetPulled)
attr title "outgoing packet lengths, sum"
attr unit b
statistic AnnotationShowcase.host2.wlan[0].mac.dcf.channelAccess.pendingQueue outgoingPacketLengths:histogram
field count 4340
field mean 607.73456221198
field stddev 10.410144232558
field min 256
field max 640
field sum 2637568
field sqrsum 1603411456
attr interpolationmode none
attr recordingmode histogram
attr source packetLength(packetPulled)
attr title "outgoing packet lengths"
attr unit b
bin	-inf	0
bin	160	0
bin	170	0
bin	180	0
bin	190	0
bin	200	0
bin	210	0
bin	220	0
bin	230	0
bin	240	0
bin	250	1
bin	260	0
bin	270	2
bin	280	1
bin	290	0
bin	300	0
bin	310	0
bin	320	0
bin	330	0
bin	340	0
bin	350	0
bin	360	0
bin	370	0
bin	380	0
bin	390	0
bin	400	0
bin	410	0
bin	420	0
bin	430	0
bin	440	0
bin	450	0
bin	460	0
bin	470	0
bin	480	0
bin	490	0
bin	500	0
bin	510	1
bin	520	0
bin	530	0
bin	540	0
bin	550	0
bin	560	0
bin	570	0
bin	580	0
bin	590	0
bin	600	4326
bin	610	0
bin	620	0
bin	630	0
bin	640	9
bin	650	0
bin	660	0
bin	670	0
bin	680	0
bin	690	0
bin	700	0
bin	710	0
bin	720	0
bin	730	0
bin	740	0
statistic AnnotationShowcase.host2.wlan[0].mac.dcf.channelAccess.pendingQueue flowQueueingTime:histogram
field count 0
field mean -nan
field stddev nan
field min nan
field max nan
field sum 0
field sqrsum 0
attr interpolationmode none
attr recordingmode histogram
attr source queueingTime(demuxFlow(packetPulled))
attr title "flow queueing times"
attr unit s
bin	-inf	0
bin	0	0
bin	1	0
scalar AnnotationShowcase.host2.wlan[0].mac.dcf.channelAccess.pendingQueue incomingPackets:count 4340
attr recordingmode count
attr source packetPushStarted
attr title "incoming packets, count"
attr unit pk
scalar AnnotationShowcase.host2.wlan[0].mac.dcf.channelAccess.pendingQueue incomingPacketLengths:sum 2637568
attr interpolationmode none
attr recordingmode sum
attr source packetLength(packetPushStarted)
attr title "incoming packet lengths, sum"
attr unit b
statistic AnnotationShowcase.host2.wlan[0].mac.dcf.channelAccess.pendingQueue incomingPacketLengths:histogram
field count 4340
field mean 607.73456221198
field stddev 10.410144232558
field min 256
field max 640
field sum 2637568
field sqrsum 1603411456
attr interpolationmode none
attr recordingmode histogram
attr source packetLength(packetPushStarted)
attr title "incoming packet lengths"
attr unit b
bin	-inf	0
bin	160	0
bin	170	0
bin	180	0
bin	190	0
bin	200	0
bin	210	0
bin	220	0
bin	230	0
bin	240	0
bin	250	1
bin	260	0
bin	270	2
bin	280	1
bin	290	0
bin	300	0
bin	310	0
bin	320	0
bin	330	0
bin	340	0
bin	350	0
bin	360	0
bin	370	0
bin	380	0
bin	390	0
bin	400	0
bin	410	0
bin	420	0
bin	430	0
bin	440	0
bin	450	0
bin	460	0
bin	470	0
bin	480	0
bin	490	0
bin	500	0
bin	510	1
bin	520	0
bin	530	0
bin	540	0
bin	550	0
bin	560	0
bin	570	0
bin	580	0
bin	590	0
bin	600	4326
bin	610	0
bin	620	0
bin	630	0
bin	640	9
bin	650	0
bin	660	0
bin	670	0
bin	680	0
bin	690	0
bin	700	0
bin	710	0
bin	720	0
bin	730	0
bin	740	0
scalar AnnotationShowcase.host2.wlan[0].mac.dcf.channelAccess.pendingQueue droppedPacketsQueueOverflow:count 0
attr interpolationmode none
attr recordingmode count
attr source packetDropReasonIsQueueOverflow(packetDropped)
attr title "dropped packets: queue overflow, count"
attr unit pk
scalar AnnotationShowcase.host2.wlan[0].mac.dcf.channelAccess.pendingQueue droppedPacketLengthsQueueOverflow:sum 0
attr interpolationmode none
attr recordingmode sum
attr source packetLength(packetDropReasonIsQueueOverflow(packetDropped))
attr title "dropped packet lengths: queue overflow, sum"
attr unit b
statistic AnnotationShowcase.host2.wlan[0].mac.dcf.channelAccess.inProgressFrames queueingTime:histogram
field count 4340
field mean 0.00049159936307467
field stddev 0.00057932969163557
field min 3.8e-05
field max 0.005062026364
field sum 2.1335412357441
field sqrsum 0.0025051152392836
attr interpolationmode none
attr recordingmode histogram
attr source queueingTime(packetDequeued)
attr title "queueing times"
bin	-inf	0
bin	0	2383
bin	0.0001	0
bin	0.0002	162
bin	0.0003	197
bin	0.0004	124
bin	0.0005	108
bin	0.0006	114
bin	0.0007	126
bin	0.0008	134
bin	0.0009	141
bin	0.001	144
bin	0.0011	144
bin	0.0012	85
bin	0.0013	83
bin	0.0014	92
bin	0.0015	77
bin	0.0016	58
bin	0.0017	35
bin	0.0018	23
bin	0.0019	28
bin	0.002	13
bin	0.0021	16
bin	0.0022	14
bin	0.0023	7
bin	0.0024	4
bin	0.0025	0
bin	0.0026	6
bin	0.0027	5
bin	0.0028	4
bin	0.0029	0
bin	0.003	0
bin	0.0031	0
bin	0.0032	0
bin	0.0033	2
bin	0.0034	1
bin	0.0035	1
bin	0.0036	1
bin	0.0037	1
bin	0.0038	0
bin	0.0039	0
bin	0.004	3
bin	0.0041	2
bin	0.0042	0
bin	0.0043	0
bin	0.0044	1
bin	0.0045	0
bin	0.0046	0
bin	0.0047	0
bin	0.0048	0
bin	0.0049	0
bin	0.005	1
bin	0.0051	0
scalar AnnotationShowcase.host2.wlan[0].mac.dcf.channelAccess.inProgressFrames queueLength:max 2
attr autoWarmupFilter false
attr interpolationmode sample-hold
attr recordingmode max
attr source "warmup(count(packetEnqueued) - count(packetDequeued))"
attr title "queue length, max"
scalar AnnotationShowcase.host2.wlan[0].mac.dcf.channelAccess.inProgressFrames queueLength:timeavg 0.085341649429761
attr autoWarmupFilter false
attr interpolationmode sample-hold
attr recordingmode timeavg
attr source "warmup(count(packetEnqueued) - count(packetDequeued))"
attr title "queue length, timeavg"
scalar AnnotationShowcase.host2.wlan[0].mac.dcf.channelAccess.contention channelAccessGranted:count 4385
attr recordingmode count
attr title "channel access granted, count"
scalar AnnotationShowcase.host2.wlan[0].mac.dcf.channelAccess.contention stateChanged:count 140618
attr enum IDLE,DEFER,IFS_AND_BACKOFF
attr interpolationmode none
attr recordingmode count
attr title "contention state changed, count"
attr type enum
scalar AnnotationShowcase.host2.wlan[0].mac.dcf.channelAccess channelOwnershipChanged:count 8770
attr interpolationmode sample-hold
attr recordingmode count
attr title "channel ownership, count"
scalar AnnotationShowcase.host2.wlan[0].mac.dcf.originatorMacDataService packetAggregated:count 0
attr recordingmode count
attr title "packets aggregated, count"
scalar AnnotationShowcase.host2.wlan[0].mac.dcf.originatorMacDataService packetFragmented:count 0
attr recordingmode count
attr title "packets fragmented, count"
scalar AnnotationShowcase.host2.wlan[0].mac.dcf.recipientMacDataService packetDeaggregated:count 0
attr recordingmode count
attr title "packets deaggregated, count"
scalar AnnotationShowcase.host2.wlan[0].mac.dcf.recipientMacDataService packetDefragmented:count 4600
attr recordingmode count
attr title "packets defragmented, count"
scalar AnnotationShowcase.host2.wlan[0].mac.dcf.recipientMacDataService packetDropDuplicateDetected:count 0
attr interpolationmode none
attr recordingmode count
attr source packetDropReasonIsDuplicateDetected(packetDropped)
attr title "packet drops: duplicate detected, count"
scalar AnnotationShowcase.host2.wlan[0].mac.dcf.recipientMacDataService packetDropDuplicateDetected:sum(packetBytes) 0
attr interpolationmode none
attr recordingmode sum(packetBytes)
attr source packetDropReasonIsDuplicateDetected(packetDropped)
attr title "packet drops: duplicate detected, sum(packetBytes)"
scalar AnnotationShowcase.host2.wlan[0].mac.dcf.recoveryProcedure retryLimitReached:count 0
attr recordingmode count
attr title "retry limit reached, count"
scalar AnnotationShowcase.host2.wlan[0].mac.dcf frameSequenceFinished:count 4385
attr recordingmode count
attr title "finished frame sequences, count"
statistic AnnotationShowcase.host2.wlan[0].mac.dcf frameSequenceDuration:histogram
field count 4385
field mean 9.9141843522473e-05
field stddev 1.4000225658257e-06
field min 3.8e-05
field max 0.000109
field sum 0.43473698384604
field sqrsum 4.3109218942898e-05
attr recordingmode histogram
attr source frameSequenceDuration(frameSequenceFinished)
attr title "frame sequence durations"
bin	-inf	0
bin	2e-05	0
bin	2.2e-05	0
bin	2.4e-05	0
bin	2.6e-05	0
bin	2.8e-05	0
bin	3e-05	0
bin	3.2e-05	0
bin	3.4e-05	0
bin	3.6e-05	1
bin	3.8e-05	0
bin	4e-05	0
bin	4.2e-05	0
bin	4.4e-05	0
bin	4.6e-05	0
bin	4.8e-05	0
bin	5e-05	0
bin	5.2e-05	0
bin	5.4e-05	0
bin	5.6e-05	0
bin	5.8e-05	0
bin	6e-05	0
bin	6.2e-05	0
bin	6.4e-05	0
bin	6.6e-05	0
bin	6.8e-05	0
bin	7e-05	0
bin	7.2e-05	0
bin	7.4e-05	0
bin	7.6e-05	0
bin	7.8e-05	0
bin	8e-05	0
bin	8.2e-05	0
bin	8.4e-05	0
bin	8.6e-05	3
bin	8.8e-05	0
bin	9e-05	0
bin	9.2e-05	0
bin	9.4e-05	1
bin	9.6e-05	0
bin	9.8e-05	4335
bin	0.0001	0
bin	0.000102	0
bin	0.000104	0
bin	0.000106	0
bin	0.000108	45
bin	0.00011	0
bin	0.000112	0
bin	0.000114	0
bin	0.000116	0
bin	0.000118	0
bin	0.00012	0
bin	0.000122	0
bin	0.000124	0
bin	0.000126	0
bin	0.000128	0
statistic AnnotationShowcase.host2.wlan[0].mac.dcf frameSequenceNumPackets:histogram
field count 4385
field mean 1.999771949829
field stddev 0.015101330108218
field min 1
field max 2
field sum 8769
field sqrsum 17537
attr recordingmode histogram
attr source frameSequenceNumPackets(frameSequenceFinished)
attr title "frame sequences: number of packets"
bin	-inf	0
bin	0	0
bin	1	1
bin	2	4384
bin	3	0
scalar AnnotationShowcase.host2.wlan[0].mac.dcf packetReceivedFromPeer:count 8939
attr interpolationmode none
attr recordingmode count
attr title "packets received, count"
scalar AnnotationShowcase.host2.wlan[0].mac.dcf packetReceivedFromPeer:sum(packetBytes) 2715214
attr interpolationmode none
attr recordingmode sum(packetBytes)
attr title "packets received, sum(packetBytes)"
scalar AnnotationShowcase.host2.wlan[0].mac.dcf packetReceivedFromPeerUnicast:count 8687
attr interpolationmode none
attr recordingmode count
attr source ieee80211Unicast(packetReceivedFromPeer)
attr title "packets received: unicast, count"
scalar AnnotationShowcase.host2.wlan[0].mac.dcf packetReceivedFromPeerUnicast:sum(packetBytes) 2703118
attr interpolationmode none
attr recordingmode sum(packetBytes)
attr source ieee80211Unicast(packetReceivedFromPeer)
attr title "packets received: unicast, sum(packetBytes)"
scalar AnnotationShowcase.host2.wlan[0].mac.dcf packetReceivedFromPeerMulticast:count 252
attr interpolationmode none
attr recordingmode count
attr source ieee80211Multicast(packetReceivedFromPeer)
attr title "packets received: multicast, count"
scalar AnnotationShowcase.host2.wlan[0].mac.dcf packetReceivedFromPeerMulticast:sum(packetBytes) 12096
attr interpolationmode none
attr recordingmode sum(packetBytes)
attr source ieee80211Multicast(packetReceivedFromPeer)
attr title "packets received: multicast, sum(packetBytes)"
scalar AnnotationShowcase.host2.wlan[0].mac.dcf packetReceivedFromPeerBroadcast:count 252
attr interpolationmode none
attr recordingmode count
attr source ieee80211Broadcast(packetReceivedFromPeer)
attr title "packets received: broadcast, count"
scalar AnnotationShowcase.host2.wlan[0].mac.dcf packetReceivedFromPeerBroadcast:sum(packetBytes) 12096
attr interpolationmode none
attr recordingmode sum(packetBytes)
attr source ieee80211Broadcast(packetReceivedFromPeer)
attr title "packets received: broadcast, sum(packetBytes)"
scalar AnnotationShowcase.host2.wlan[0].mac.dcf packetReceivedFromPeerWithRetry:count 76
attr interpolationmode none
attr recordingmode count
attr source ieee80211Retry(packetReceivedFromPeer)
attr title "packets received: with retry, count"
scalar AnnotationShowcase.host2.wlan[0].mac.dcf packetReceivedFromPeerWithRetry:sum(packetBytes) 45444
attr interpolationmode none
attr recordingmode sum(packetBytes)
attr source ieee80211Retry(packetReceivedFromPeer)
attr title "packets received: with retry, sum(packetBytes)"
scalar AnnotationShowcase.host2.wlan[0].mac.dcf packetReceivedFromPeerWithoutRetry:count 8863
attr interpolationmode none
attr recordingmode count
attr source ieee80211NotRetry(packetReceivedFromPeer)
attr title "packets received: without retry, count"
scalar AnnotationShowcase.host2.wlan[0].mac.dcf packetReceivedFromPeerWithoutRetry:sum(packetBytes) 2669770
attr interpolationmode none
attr recordingmode sum(packetBytes)
attr source ieee80211NotRetry(packetReceivedFromPeer)
attr title "packets received: without retry, sum(packetBytes)"
scalar AnnotationShowcase.host2.wlan[0].mac.dcf packetSentToPeer:count 8733
attr interpolationmode none
attr recordingmode count
attr title "packets sent, count"
scalar AnnotationShowcase.host2.wlan[0].mac.dcf packetSentToPeer:sum(packetBytes) 393992
attr interpolationmode none
attr recordingmode sum(packetBytes)
attr title "packets sent, sum(packetBytes)"
scalar AnnotationShowcase.host2.wlan[0].mac.dcf packetSentToPeerUnicast:count 8732
attr interpolationmode none
attr recordingmode count
attr source ieee80211Unicast(packetSentToPeer)
attr title "packets sent: unicast, count"
scalar AnnotationShowcase.host2.wlan[0].mac.dcf packetSentToPeerUnicast:sum(packetBytes) 393960
attr interpolationmode none
attr recordingmode sum(packetBytes)
attr source ieee80211Unicast(packetSentToPeer)
attr title "packets sent: unicast, sum(packetBytes)"
scalar AnnotationShowcase.host2.wlan[0].mac.dcf packetSentToPeerMulticast:count 1
attr interpolationmode none
attr recordingmode count
attr source ieee80211Multicast(packetSentToPeer)
attr title "packets sent: multicast, count"
scalar AnnotationShowcase.host2.wlan[0].mac.dcf packetSentToPeerMulticast:sum(packetBytes) 32
attr interpolationmode none
attr recordingmode sum(packetBytes)
attr source ieee80211Multicast(packetSentToPeer)
attr title "packets sent: multicast, sum(packetBytes)"
scalar AnnotationShowcase.host2.wlan[0].mac.dcf packetSentToPeerBroadcast:count 1
attr interpolationmode none
attr recordingmode count
attr source ieee80211Broadcast(packetSentToPeer)
attr title "packets sent: broadcast , count"
scalar AnnotationShowcase.host2.wlan[0].mac.dcf packetSentToPeerBroadcast:sum(packetBytes) 32
attr interpolationmode none
attr recordingmode sum(packetBytes)
attr source ieee80211Broadcast(packetSentToPeer)
attr title "packets sent: broadcast , sum(packetBytes)"
scalar AnnotationShowcase.host2.wlan[0].mac.dcf packetSentToPeerWithRetry:count 45
attr interpolationmode none
attr recordingmode count
attr source ieee80211Retry(packetSentToPeer)
attr title "packets sent: with retry, count"
scalar AnnotationShowcase.host2.wlan[0].mac.dcf packetSentToPeerWithRetry:sum(packetBytes) 3424
attr interpolationmode none
attr recordingmode sum(packetBytes)
attr source ieee80211Retry(packetSentToPeer)
attr title "packets sent: with retry, sum(packetBytes)"
scalar AnnotationShowcase.host2.wlan[0].mac.dcf packetSentToPeerWithoutRetry:count 8688
attr interpolationmode none
attr recordingmode count
attr source ieee80211NotRetry(packetSentToPeer)
attr title "packets sent: without retry, count"
scalar AnnotationShowcase.host2.wlan[0].mac.dcf packetSentToPeerWithoutRetry:sum(packetBytes) 390568
attr interpolationmode none
attr recordingmode sum(packetBytes)
attr source ieee80211NotRetry(packetSentToPeer)
attr title "packets sent: without retry, sum(packetBytes)"
scalar AnnotationShowcase.host2.wlan[0].mac.dcf packetDrop:count 17387
attr interpolationmode none
attr recordingmode count
attr source packetDropped
attr title "packet drops, count"
scalar AnnotationShowcase.host2.wlan[0].mac.dcf packetDrop:sum(packetBytes) 3104978
attr interpolationmode none
attr recordingmode sum(packetBytes)
attr source packetDropped
attr title "packet drops, sum(packetBytes)"
scalar AnnotationShowcase.host2.wlan[0].mac.dcf packetDropNotAddressedToUs:count 17387
attr interpolationmode none
attr recordingmode count
attr source packetDropReasonIsNotAddressedToUs(packetDropped)
attr title "packet drops: not addressed to us, count"
scalar AnnotationShowcase.host2.wlan[0].mac.dcf packetDropNotAddressedToUs:sum(packetBytes) 3104978
attr interpolationmode none
attr recordingmode sum(packetBytes)
attr source packetDropReasonIsNotAddressedToUs(packetDropped)
attr title "packet drops: not addressed to us, sum(packetBytes)"
scalar AnnotationShowcase.host2.wlan[0].mac.dcf packetDropQueueOverflow:count 0
attr interpolationmode none
attr recordingmode count
attr source packetDropReasonIsQueueOverflow(packetDropped)
attr title "packet drops: queue overflow, count"
scalar AnnotationShowcase.host2.wlan[0].mac.dcf packetDropQueueOverflow:sum(packetBytes) 0
attr interpolationmode none
attr recordingmode sum(packetBytes)
attr source packetDropReasonIsQueueOverflow(packetDropped)
attr title "packet drops: queue overflow, sum(packetBytes)"
scalar AnnotationShowcase.host2.wlan[0].mac.dcf packetDropRetryLimitReached:count 0
attr interpolationmode none
attr recordingmode count
attr source packetDropReasonIsRetryLimitReached(packetDropped)
attr title "packet drops: retry limit reached, count"
scalar AnnotationShowcase.host2.wlan[0].mac.dcf packetDropRetryLimitReached:sum(packetBytes) 0
attr interpolationmode none
attr recordingmode sum(packetBytes)
attr source packetDropReasonIsRetryLimitReached(packetDropped)
attr title "packet drops: retry limit reached, sum(packetBytes)"
scalar AnnotationShowcase.host2.wlan[0].mac.dcf linkBroken:count 0
attr interpolationmode none
attr recordingmode count
attr title "link breaks, count"
[...]
attr title "retry limit reached, count"
scalar AnnotationShowcase.accessPoint.wlan[0].mac.dcf frameSequenceFinished:count 8985
attr recordingmode count
attr title "finished frame sequences, count"
statistic AnnotationShowcase.accessPoint.wlan[0].mac.dcf frameSequenceDuration:histogram
field count 8985
field mean 0.00018453866221169
field stddev 9.1786240397044e-05
field min 4.6e-05
field max 0.000289
field sum 1.6580798799721
field sqrsum 0.00038166747280336
attr recordingmode histogram
attr source frameSequenceDuration(frameSequenceFinished)
attr title "frame sequence durations"
bin	-inf	0
bin	0	0
bin	5e-06	0
bin	1e-05	0
bin	1.5e-05	0
bin	2e-05	0
bin	2.5e-05	0
bin	3e-05	0
bin	3.5e-05	0
bin	4e-05	0
bin	4.5e-05	251
bin	5e-05	0
bin	5.5e-05	0
bin	6e-05	0
bin	6.5e-05	0
bin	7e-05	0
bin	7.5e-05	0
bin	8e-05	0
bin	8.5e-05	6
bin	9e-05	3
bin	9.5e-05	4347
bin	0.0001	0
bin	0.000105	35
bin	0.00011	0
bin	0.000115	0
bin	0.00012	0
bin	0.000125	0
bin	0.00013	0
bin	0.000135	0
bin	0.00014	0
bin	0.000145	0
bin	0.00015	0
bin	0.000155	0
bin	0.00016	0
bin	0.000165	0
bin	0.00017	0
bin	0.000175	0
bin	0.00018	0
bin	0.000185	0
bin	0.00019	0
bin	0.000195	0
bin	0.0002	0
bin	0.000205	9
bin	0.00021	0
bin	0.000215	0
bin	0.00022	0
bin	0.000225	0
bin	0.00023	0
bin	0.000235	0
bin	0.00024	0
bin	0.000245	0
bin	0.00025	0
bin	0.000255	0
bin	0.00026	0
bin	0.000265	0
bin	0.00027	0
bin	0.000275	4308
bin	0.00028	0
bin	0.000285	26
bin	0.00029	0
bin	0.000295	0
bin	0.0003	0
bin	0.000305	0
bin	0.00031	0
bin	0.000315	0
bin	0.00032	0
bin	0.000325	0
bin	0.00033	0
bin	0.000335	0
bin	0.00034	0
statistic AnnotationShowcase.accessPoint.wlan[0].mac.dcf frameSequenceNumPackets:histogram
field count 8985
field mean 1.9720645520312
field stddev 0.16479709135139
field min 1
field max 2
field sum 17719
field sqrsum 35187
attr recordingmode histogram
attr source frameSequenceNumPackets(frameSequenceFinished)
attr title "frame sequences: number of packets"
bin	-inf	0
bin	0	0
bin	1	251
bin	2	8734
bin	3	0
scalar AnnotationShowcase.accessPoint.wlan[0].mac.dcf packetReceivedFromPeer:count 17382
attr interpolationmode none
attr recordingmode count
attr title "packets received, count"
scalar AnnotationShowcase.accessPoint.wlan[0].mac.dcf packetReceivedFromPeer:sum(packetBytes) 3105778
attr interpolationmode none
attr recordingmode sum(packetBytes)
attr title "packets received, sum(packetBytes)"
scalar AnnotationShowcase.accessPoint.wlan[0].mac.dcf packetReceivedFromPeerUnicast:count 17380
attr interpolationmode none
attr recordingmode count
attr source ieee80211Unicast(packetReceivedFromPeer)
attr title "packets received: unicast, count"
scalar AnnotationShowcase.accessPoint.wlan[0].mac.dcf packetReceivedFromPeerUnicast:sum(packetBytes) 3105714
attr interpolationmode none
attr recordingmode sum(packetBytes)
attr source ieee80211Unicast(packetReceivedFromPeer)
attr title "packets received: unicast, sum(packetBytes)"
scalar AnnotationShowcase.accessPoint.wlan[0].mac.dcf packetReceivedFromPeerMulticast:count 2
attr interpolationmode none
attr recordingmode count
attr source ieee80211Multicast(packetReceivedFromPeer)
attr title "packets received: multicast, count"
scalar AnnotationShowcase.accessPoint.wlan[0].mac.dcf packetReceivedFromPeerMulticast:sum(packetBytes) 64
attr interpolationmode none
attr recordingmode sum(packetBytes)
attr source ieee80211Multicast(packetReceivedFromPeer)
attr title "packets received: multicast, sum(packetBytes)"
scalar AnnotationShowcase.accessPoint.wlan[0].mac.dcf packetReceivedFromPeerBroadcast:count 2
attr interpolationmode none
attr recordingmode count
attr source ieee80211Broadcast(packetReceivedFromPeer)
attr title "packets received: broadcast, count"
scalar AnnotationShowcase.accessPoint.wlan[0].mac.dcf packetReceivedFromPeerBroadcast:sum(packetBytes) 64
attr interpolationmode none
attr recordingmode sum(packetBytes)
attr source ieee80211Broadcast(packetReceivedFromPeer)
attr title "packets received: broadcast, sum(packetBytes)"
scalar AnnotationShowcase.accessPoint.wlan[0].mac.dcf packetReceivedFromPeerWithRetry:count 93
attr interpolationmode none
attr recordingmode count
attr source ieee80211Retry(packetReceivedFromPeer)
attr title "packets received: with retry, count"
scalar AnnotationShowcase.accessPoint.wlan[0].mac.dcf packetReceivedFromPeerWithRetry:sum(packetBytes) 32804
attr interpolationmode none
attr recordingmode sum(packetBytes)
attr source ieee80211Retry(packetReceivedFromPeer)
attr title "packets received: with retry, sum(packetBytes)"
scalar AnnotationShowcase.accessPoint.wlan[0].mac.dcf packetReceivedFromPeerWithoutRetry:count 17289
attr interpolationmode none
attr recordingmode count
attr source ieee80211NotRetry(packetReceivedFromPeer)
attr title "packets received: without retry, count"
scalar AnnotationShowcase.accessPoint.wlan[0].mac.dcf packetReceivedFromPeerWithoutRetry:sum(packetBytes) 3072974
attr interpolationmode none
attr recordingmode sum(packetBytes)
attr source ieee80211NotRetry(packetReceivedFromPeer)
attr title "packets received: without retry, sum(packetBytes)"
scalar AnnotationShowcase.accessPoint.wlan[0].mac.dcf packetSentToPeer:count 17692
attr interpolationmode none
attr recordingmode count
attr title "packets sent, count"
scalar AnnotationShowcase.accessPoint.wlan[0].mac.dcf packetSentToPeer:sum(packetBytes) 3123478
attr interpolationmode none
attr recordingmode sum(packetBytes)
attr title "packets sent, sum(packetBytes)"
scalar AnnotationShowcase.accessPoint.wlan[0].mac.dcf packetSentToPeerUnicast:count 17441
attr interpolationmode none
attr recordingmode count
attr source ieee80211Unicast(packetSentToPeer)
attr title "packets sent: unicast, count"
scalar AnnotationShowcase.accessPoint.wlan[0].mac.dcf packetSentToPeerUnicast:sum(packetBytes) 3111414
attr interpolationmode none
attr recordingmode sum(packetBytes)
attr source ieee80211Unicast(packetSentToPeer)
attr title "packets sent: unicast, sum(packetBytes)"
scalar AnnotationShowcase.accessPoint.wlan[0].mac.dcf packetSentToPeerMulticast:count 251
attr interpolationmode none
attr recordingmode count
attr source ieee80211Multicast(packetSentToPeer)
attr title "packets sent: multicast, count"
scalar AnnotationShowcase.accessPoint.wlan[0].mac.dcf packetSentToPeerMulticast:sum(packetBytes) 12064
attr interpolationmode none
attr recordingmode sum(packetBytes)
attr source ieee80211Multicast(packetSentToPeer)
attr title "packets sent: multicast, sum(packetBytes)"
scalar AnnotationShowcase.accessPoint.wlan[0].mac.dcf packetSentToPeerBroadcast:count 251
attr interpolationmode none
attr recordingmode count
attr source ieee80211Broadcast(packetSentToPeer)
attr title "packets sent: broadcast , count"
scalar AnnotationShowcase.accessPoint.wlan[0].mac.dcf packetSentToPeerBroadcast:sum(packetBytes) 12064
attr interpolationmode none
attr recordingmode sum(packetBytes)
attr source ieee80211Broadcast(packetSentToPeer)
attr title "packets sent: broadcast , sum(packetBytes)"
scalar AnnotationShowcase.accessPoint.wlan[0].mac.dcf packetSentToPeerWithRetry:count 153
attr interpolationmode none
attr recordingmode count
attr source ieee80211Retry(packetSentToPeer)
attr title "packets sent: with retry, count"
scalar AnnotationShowcase.accessPoint.wlan[0].mac.dcf packetSentToPeerWithRetry:sum(packetBytes) 51300
attr interpolationmode none
attr recordingmode sum(packetBytes)
attr source ieee80211Retry(packetSentToPeer)
attr title "packets sent: with retry, sum(packetBytes)"
scalar AnnotationShowcase.accessPoint.wlan[0].mac.dcf packetSentToPeerWithoutRetry:count 17539
attr interpolationmode none
attr recordingmode count
attr source ieee80211NotRetry(packetSentToPeer)
attr title "packets sent: without retry, count"
scalar AnnotationShowcase.accessPoint.wlan[0].mac.dcf packetSentToPeerWithoutRetry:sum(packetBytes) 3072178
attr interpolationmode none
attr recordingmode sum(packetBytes)
attr source ieee80211NotRetry(packetSentToPeer)
attr title "packets sent: without retry, sum(packetBytes)"
scalar AnnotationShowcase.accessPoint.wlan[0].mac.dcf packetDrop:count 35
attr interpolationmode none
attr recordingmode count
attr source packetDropped
attr title "packet drops, count"
scalar AnnotationShowcase.accessPoint.wlan[0].mac.dcf packetDrop:sum(packetBytes) 13380
attr interpolationmode none
attr recordingmode sum(packetBytes)
attr source packetDropped
attr title "packet drops, sum(packetBytes)"
scalar AnnotationShowcase.accessPoint.wlan[0].mac.dcf packetDropNotAddressedToUs:count 0
attr interpolationmode none
attr recordingmode count
attr source packetDropReasonIsNotAddressedToUs(packetDropped)
attr title "packet drops: not addressed to us, count"
scalar AnnotationShowcase.accessPoint.wlan[0].mac.dcf packetDropNotAddressedToUs:sum(packetBytes) 0
attr interpolationmode none
attr recordingmode sum(packetBytes)
attr source packetDropReasonIsNotAddressedToUs(packetDropped)
attr title "packet drops: not addressed to us, sum(packetBytes)"
scalar AnnotationShowcase.accessPoint.wlan[0].mac.dcf packetDropQueueOverflow:count 35
attr interpolationmode none
attr recordingmode count
attr source packetDropReasonIsQueueOverflow(packetDropped)
attr title "packet drops: queue overflow, count"
scalar AnnotationShowcase.accessPoint.wlan[0].mac.dcf packetDropQueueOverflow:sum(packetBytes) 13380
attr interpolationmode none
attr recordingmode sum(packetBytes)
attr source packetDropReasonIsQueueOverflow(packetDropped)
attr title "packet drops: queue overflow, sum(packetBytes)"
scalar AnnotationShowcase.accessPoint.wlan[0].mac.dcf packetDropRetryLimitReached:count 0
attr interpolationmode none
attr recordingmode count
attr source packetDropReasonIsRetryLimitReached(packetDropped)
attr title "packet drops: retry limit reached, count"
scalar AnnotationShowcase.accessPoint.wlan[0].mac.dcf packetDropRetryLimitReached:sum(packetBytes) 0
attr interpolationmode none
attr recordingmode sum(packetBytes)
attr source packetDropReasonIsRetryLimitReached(packetDropped)
attr title "packet drops: retry limit reached, sum(packetBytes)"
scalar AnnotationShowcase.accessPoint.wlan[0].mac.dcf linkBroken:count 0
attr interpolationmode none
attr recordingmode count
attr title "link breaks, count"
scalar AnnotationShowcase.accessPoint.wlan[0].mac packetReceivedFromLower:count 17399
attr interpolationmode none
attr recordingmode count
attr title "packets received from lower layer, count"
scalar AnnotationShowcase.accessPoint.wlan[0].mac packetReceivedFromLower:sum(packetBytes) 3115650
attr interpolationmode none
attr recordingmode sum(packetBytes)
attr title "packets received from lower layer, sum(packetBytes)"
scalar AnnotationShowcase.accessPoint.wlan[0].mac packetSentToLower:count 17692
attr interpolationmode none
attr recordingmode count
attr title "packets sent to lower layer, count"
scalar AnnotationShowcase.accessPoint.wlan[0].mac packetSentToLower:sum(packetBytes) 3123478
attr interpolationmode none
attr recordingmode sum(packetBytes)
attr title "packets sent to lower layer, sum(packetBytes)"
scalar AnnotationShowcase.accessPoint.wlan[0].mac packetReceivedFromUpper:count 0
attr interpolationmode none
attr recordingmode count
attr title "packets received from upper layer, count"
scalar AnnotationShowcase.accessPoint.wlan[0].mac packetReceivedFromUpper:sum(packetBytes) 0
attr interpolationmode none
attr recordingmode sum(packetBytes)
attr title "packets received from upper layer, sum(packetBytes)"
scalar AnnotationShowcase.accessPoint.wlan[0].mac packetSentToUpper:count 1
attr interpolationmode none
attr recordingmode count
attr title "packets sent to upper layer, count"
scalar AnnotationShowcase.accessPoint.wlan[0].mac packetSentToUpper:sum(packetBytes) 36
attr interpolationmode none
attr recordingmode sum(packetBytes)
attr title "packets sent to upper layer, sum(packetBytes)"
scalar AnnotationShowcase.accessPoint.wlan[0].mac packetDrop:count 52
attr interpolationmode none
attr recordingmode count
attr source packetDropped
attr title "packet drops, count"
scalar AnnotationShowcase.accessPoint.wlan[0].mac packetDrop:sum(packetBytes) 23252
attr interpolationmode none
attr recordingmode sum(packetBytes)
attr source packetDropped
attr title "packet drops, sum(packetBytes)"
scalar AnnotationShowcase.accessPoint.wlan[0].mac packetDropIncorrectlyReceived:count 17
attr interpolationmode none
attr recordingmode count
attr source packetDropReasonIsIncorrectlyReceived(packetDropped)
attr title "packet drops: incorrectly received, count"
scalar AnnotationShowcase.accessPoint.wlan[0].mac packetDropIncorrectlyReceived:sum(packetBytes) 9872
attr interpolationmode none
attr recordingmode sum(packetBytes)
attr source packetDropReasonIsIncorrectlyReceived(packetDropped)
attr title "packet drops: incorrectly received, sum(packetBytes)"
scalar AnnotationShowcase.accessPoint.wlan[0].mac packetDropNotAddressedToUs:count 0
attr interpolationmode none
attr recordingmode count
attr source packetDropReasonIsNotAddressedToUs(packetDropped)
attr title "packet drops: not addressed to us, count"
scalar AnnotationShowcase.accessPoint.wlan[0].mac packetDropNotAddressedToUs:sum(packetBytes) 0
attr interpolationmode none
attr recordingmode sum(packetBytes)
attr source packetDropReasonIsNotAddressedToUs(packetDropped)
attr title "packet drops: not addressed to us, sum(packetBytes)"
scalar AnnotationShowcase.accessPoint.wlan[0].mac packetDropQueueOverflow:count 35
attr interpolationmode none
attr recordingmode count
attr source packetDropReasonIsQueueOverflow(packetDropped)
attr title "packet drops: queue overflow, count"
scalar AnnotationShowcase.accessPoint.wlan[0].mac packetDropQueueOverflow:sum(packetBytes) 13380
attr interpolationmode none
attr recordingmode sum(packetBytes)
attr source packetDropReasonIsQueueOverflow(packetDropped)
attr title "packet drops: queue overflow, sum(packetBytes)"
scalar AnnotationShowcase.accessPoint.wlan[0].mac packetDropRetryLimitReached:count 0
attr interpolationmode none
attr recordingmode count
attr source packetDropReasonIsRetryLimitReached(packetDropped)
attr title "packet drops: retry limit reached, count"
scalar AnnotationShowcase.accessPoint.wlan[0].mac packetDropRetryLimitReached:sum(packetBytes) 0
attr interpolationmode none
attr recordingmode sum(packetBytes)
attr source packetDropReasonIsRetryLimitReached(packetDropped)
attr title "packet drops: retry limit reached, sum(packetBytes)"
scalar AnnotationShowcase.accessPoint.wlan[0].mac packetDropDuplicateDetected:count 0
attr interpolationmode none
attr recordingmode count
attr source packetDropReasonIsDuplicateDetected(packetDropped)
attr title "packet drops: duplicate detected, count"
scalar AnnotationShowcase.accessPoint.wlan[0].mac packetDropDuplicateDetected:sum(packetBytes) 0
attr interpolationmode none
attr recordingmode sum(packetBytes)
attr source packetDropReasonIsDuplicateDetected(packetDropped)
attr title "packet drops: duplicate detected, sum(packetBytes)"
scalar AnnotationShowcase.accessPoint.wlan[0].mac packetDropOther:count 0
attr interpolationmode none
attr recordingmode count
attr source packetDropReasonIsOther(packetDropped)
attr title "packet drops: other, count"
scalar AnnotationShowcase.accessPoint.wlan[0].mac packetDropOther:sum(packetBytes) 0
attr interpolationmode none
attr recordingmode sum(packetBytes)
attr source packetDropReasonIsOther(packetDropped)
attr title "packet drops: other, sum(packetBytes)"
scalar AnnotationShowcase.accessPoint.wlan[0].mac linkBroken:count 0
attr interpolationmode none
attr recordingmode count
attr title "link breaks, count"
statistic AnnotationShowcase.accessPoint.wlan[0].radio radioChannel:histogram
field count 1
field mean 0
field stddev nan
field min 0
field max 0
field sum 0
field sqrsum 0
attr interpolationmode sample-hold
attr recordingmode histogram
attr source radioChannelChanged
attr title "Radio channel"
bin	-inf	0
bin	-0.5	0
bin	-0.48	0
bin	-0.46	0
bin	-0.44	0
bin	-0.42	0
bin	-0.4	0
bin	-0.38	0
bin	-0.36	0
bin	-0.34	0
bin	-0.32	0
bin	-0.3	0
bin	-0.28	0
bin	-0.26	0
bin	-0.24	0
bin	-0.22	0
bin	-0.2	0
bin	-0.18	0
bin	-0.16	0
bin	-0.14	0
bin	-0.12	0
bin	-0.1	0
bin	-0.08	0
bin	-0.06	0
bin	-0.04	0
bin	-0.02	0
bin	0	1
bin	0.02	0
bin	0.04	0
bin	0.06	0
bin	0.08	0
bin	0.1	0
bin	0.12	0
bin	0.14	0
bin	0.16	0
bin	0.18	0
bin	0.2	0
bin	0.22	0
bin	0.24	0
bin	0.26	0
bin	0.28	0
bin	0.3	0
bin	0.32	0
bin	0.34	0
bin	0.36	0
bin	0.38	0
bin	0.4	0
bin	0.42	0
bin	0.44	0
bin	0.46	0
bin	0.48	0
bin	0.5	0
scalar AnnotationShowcase.accessPoint.wlan[0].radio radioMode:count 35387
attr interpolationmode sample-hold
attr recordingmode count
attr source radioModeChanged
attr title "Radio mode, count"
scalar AnnotationShowcase.accessPoint.wlan[0].radio receptionState:count 70230
attr interpolationmode sample-hold
attr recordingmode count
attr source receptionStateChanged
attr title "Radio reception state, count"
scalar AnnotationShowcase.accessPoint.wlan[0].radio transmissionState:count 70768
attr interpolationmode sample-hold
attr recordingmode count
attr source transmissionStateChanged
attr title "Radio transmission state, count"
statistic AnnotationShowcase.accessPoint.wlan[0].radio minSnir:histogram
field count 17399
field mean 8239.7766655849
field stddev 598.12765366987
field min 1.1399823458466
field max 8787.6826952789
field sum 143363874.20451
field sqrsum 1187510556252.3
attr recordingmode histogram
attr source minimumSnir(packetSentToUpper)
attr title "Min SNIR"
bin	-inf	0
bin	0	17
bin	200	0
bin	400	0
bin	600	0
bin	800	0
bin	1000	0
bin	1200	0
bin	1400	0
bin	1600	0
bin	1800	0
bin	2000	0
bin	2200	0
bin	2400	0
bin	2600	0
bin	2800	0
bin	3000	0
bin	3200	0
bin	3400	0
bin	3600	0
bin	3800	0
bin	4000	0
bin	4200	0
bin	4400	0
bin	4600	0
bin	4800	0
bin	5000	0
bin	5200	0
bin	5400	0
bin	5600	0
bin	5800	0
bin	6000	0
bin	6200	0
bin	6400	0
bin	6600	0
bin	6800	0
bin	7000	0
bin	7200	0
bin	7400	0
bin	7600	8688
bin	7800	0
bin	8000	0
bin	8200	0
bin	8400	0
bin	8600	8694
bin	8800	0
bin	9000	0
bin	9200	0
bin	9400	0
bin	9600	0
bin	9800	0
bin	10000	0
bin	10200	0
bin	10400	0
bin	10600	0
bin	10800	0
bin	11000	0
statistic AnnotationShowcase.accessPoint.wlan[0].radio packetErrorRate:histogram
field count 17399
field mean 0.00097706764756595
field stddev 0.031243704826322
field min 0
field max 1
field sum 17
field sqrsum 17
attr recordingmode histogram
attr source packetErrorRate(packetSentToUpper)
attr title "Packet error rate"
bin	-inf	0
bin	0	17382
bin	1	17
bin	2	0
statistic AnnotationShowcase.accessPoint.wlan[0].radio bitErrorRate:histogram
field count 0
field mean -nan
field stddev nan
field min nan
field max nan
field sum 0
field sqrsum 0
attr recordingmode histogram
attr source bitErrorRate(packetSentToUpper)
attr title "Bit error rate"
bin	-inf	0
bin	0	0
bin	1	0
statistic AnnotationShowcase.accessPoint.wlan[0].radio symbolErrorRate:histogram
field count 0
field mean -nan
field stddev nan
field min nan
field max nan
field sum 0
field sqrsum 0
attr recordingmode histogram
attr source symbolErrorRate(packetSentToUpper)
attr title "Symbol error rate"
bin	-inf	0
bin	0	0
bin	1	0
scalar AnnotationShowcase.accessPoint.wlan[0] packetDropInterfaceDown:count 0
attr interpolationmode none
attr recordingmode count
attr source packetDropReasonIsInterfaceDown(packetDropped)
attr title "packet drops: interface down, count"
scalar AnnotationShowcase.accessPoint.wlan[0] packetDropInterfaceDown:sum(packetBytes) 0
attr interpolationmode none
attr recordingmode sum(packetBytes)
attr source packetDropReasonIsInterfaceDown(packetDropped)
attr title "packet drops: interface down, sum(packetBytes)"
scalar AnnotationShowcase.accessPoint.wlan[0] packetDropNoCarrier:count 0
attr interpolationmode none
attr recordingmode count
attr source packetDropReasonIsNoCarrier(packetDropped)
attr title "packet drops: no carrier, count"
scalar AnnotationShowcase.accessPoint.wlan[0] packetDropNoCarrier:sum(packetBytes) 0
attr interpolationmode none
attr recordingmode sum(packetBytes)
attr source packetDropReasonIsNoCarrier(packetDropped)
attr title "packet drops: no carrier, sum(packetBytes)"

