version 3
run inet__lwip-0-20250108-11:23:27-10567
attr configname inet__lwip
attr datetime 20250108-11:23:27
attr datetimef 20250108-112327
attr experiment inet__lwip
attr inifile omnetpp.ini
attr iterationvars ""
attr iterationvarsd ""
attr iterationvarsf ""
attr measurement ""
attr network ClientServer
attr processid 10567
attr repetition 0
attr replication #0
attr resultdir results
attr runnumber 0
attr seedset 0
config **.param-recording false
config image-path /home/levy/workspace/inet/images
config output-scalar-file results/omnetpp.ini-inet__lwip-#0.sca
config output-vector-file results/omnetpp.ini-inet__lwip-#0.vec
config sim-time-limit 100s
config sim-time-limit 100s
config description "inet_TCP <---> TcpLwip"
config **.server*.tcp.typename Tcp
config **.client*.tcp.typename TcpLwip
config **.server*.app[0].echoFactor 2.0
config network ClientServer
config total-stack 7MiB
config **.server.numPcapRecorders 1
config **.server.pcapRecorder[0].pcapFile "\"results/server.pcap\""
config **.client1.numPcapRecorders 1
config **.client1.pcapRecorder[0].pcapFile "\"results/client1.pcap\""
config **.crcMode "\"computed\""
config **.numApps 1
config **.client*.app[*].typename TcpSessionApp
config **.client*.app[0].active true
config **.client*.app[0].localPort -1
config **.client*.app[0].connectAddress "\"server\""
config **.client*.app[0].connectPort 1000
config **.client*.app[0].tOpen 0.2s
config **.client*.app[0].tSend 0.4s
config **.client*.app[0].sendBytes 1000000B
config **.client*.app[0].sendScript "\"\""
config **.client*.app[0].tClose 25s
config **.server*.app[*].typename TcpEchoApp
config **.server*.app[0].localPort 1000
config **.server*.app[0].echoDelay 0s
config **.ppp[*].queue.typename DropTailQueue
config **.ppp[*].queue.packetCapacity 10
config *.configurator.config "xml(\"<config><interface hosts='*' address='192.168.1.x' netmask='255.255.255.0'/></config>\")"

scalar ClientServer.client1.lo[0].lo rcvdPkFromHl:count 0
scalar ClientServer.client1.lo[0].lo rcvdPkFromHl:sum(packetBytes) 0
scalar ClientServer.client1.lo[0].lo passedUpPk:count 0
scalar ClientServer.client1.lo[0].lo passedUpPk:sum(packetBytes) 0
scalar ClientServer.client1.lo[0] packetDropInterfaceDown:count 0
scalar ClientServer.client1.lo[0] packetDropInterfaceDown:sum(packetBytes) 0
scalar ClientServer.client1.lo[0] packetDropNoCarrier:count 0
scalar ClientServer.client1.lo[0] packetDropNoCarrier:sum(packetBytes) 0
scalar ClientServer.client1.ppp[0].queue queueLength:last 0
scalar ClientServer.client1.ppp[0].queue queueLength:max 10
scalar ClientServer.client1.ppp[0].queue queueLength:timeavg 0.05529768
scalar ClientServer.client1.ppp[0].queue queueBitLength:last 0
scalar ClientServer.client1.ppp[0].queue queueBitLength:max 35328
scalar ClientServer.client1.ppp[0].queue queueBitLength:timeavg 158.39628608
scalar ClientServer.client1.ppp[0].queue outgoingPackets:count 5680
scalar ClientServer.client1.ppp[0].queue outgoingPacketLengths:sum 9817632
scalar ClientServer.client1.ppp[0].queue incomingPackets:count 5737
scalar ClientServer.client1.ppp[0].queue incomingPacketLengths:sum 10080288
scalar ClientServer.client1.ppp[0].queue droppedPacketsQueueOverflow:count 57
scalar ClientServer.client1.ppp[0].queue droppedPacketLengthsQueueOverflow:sum 262656
scalar ClientServer.client1.ppp[0].ppp transmissionState:timeavg 0.010135711999999
scalar ClientServer.client1.ppp[0].ppp rxPkOk:count 5682
scalar ClientServer.client1.ppp[0].ppp rxPkOk:sum(packetBytes) 2267058
scalar ClientServer.client1.ppp[0].ppp txPk:count 5680
scalar ClientServer.client1.ppp[0].ppp txPk:sum(packetBytes) 1266964
scalar ClientServer.client1.ppp[0].ppp rcvdPkFromHl:count 5680
scalar ClientServer.client1.ppp[0].ppp rcvdPkFromHl:sum(packetBytes) 1227204
scalar ClientServer.client1.ppp[0].ppp passedUpPk:count 5682
scalar ClientServer.client1.ppp[0].ppp passedUpPk:sum(packetBytes) 2227284
scalar ClientServer.client1.ppp[0].ppp packetDropIncorrectlyReceived:count 0
scalar ClientServer.client1.ppp[0].ppp packetDropIncorrectlyReceived:sum(packetBytes) 0
scalar ClientServer.client1.ppp[0].ppp packetDropInterfaceDown:count 0
scalar ClientServer.client1.ppp[0].ppp packetDropInterfaceDown:sum(packetBytes) 0
scalar ClientServer.client1.ppp[0] packetDropInterfaceDown:count 0
scalar ClientServer.client1.ppp[0] packetDropInterfaceDown:sum(packetBytes) 0
scalar ClientServer.client1.ppp[0] packetDropNoCarrier:count 0
scalar ClientServer.client1.ppp[0] packetDropNoCarrier:sum(packetBytes) 0
scalar ClientServer.client1.ipv4.ip packetDropAddressResolutionFailed:count 0
scalar ClientServer.client1.ipv4.ip packetDropAddressResolutionFailed:sum(packetBytes) 0
scalar ClientServer.client1.ipv4.ip packetDropHopLimitReached:count 0
scalar ClientServer.client1.ipv4.ip packetDropHopLimitReached:sum(packetBytes) 0
scalar ClientServer.client1.ipv4.ip packetDropForwardingDisabled:count 0
scalar ClientServer.client1.ipv4.ip packetDropForwardingDisabled:sum(packetBytes) 0
scalar ClientServer.client1.ipv4.ip packetDropLifetimeExpired:count 0
scalar ClientServer.client1.ipv4.ip packetDropLifetimeExpired:sum(packetBytes) 0
scalar ClientServer.client1.ipv4.ip packetDropNoInterfaceFound:count 0
scalar ClientServer.client1.ipv4.ip packetDropNoInterfaceFound:sum(packetBytes) 0
scalar ClientServer.client1.ipv4.ip packetDropNoRouteFound:count 0
scalar ClientServer.client1.ipv4.ip packetDropNoRouteFound:sum(packetBytes) 0
scalar ClientServer.client1.ipv4.ip packetDropUndefined:count 0
scalar ClientServer.client1.ipv4.ip packetDropUndefined:sum(packetBytes) 0
scalar ClientServer.client1.ipv4.arp arpResolutionFailed:count 0
scalar ClientServer.client1.ipv4.arp arpResolutionCompleted:count 0
scalar ClientServer.client1.ipv4.arp arpResolutionInitiated:count 0
scalar ClientServer.client1.ipv4.arp arpReplySent:count 0
scalar ClientServer.client1.ipv4.arp arpReplySent:sum(packetBytes) 0
scalar ClientServer.client1.ipv4.arp arpRequestSent:count 0
scalar ClientServer.client1.ipv4.arp arpRequestSent:sum(packetBytes) 0
scalar ClientServer.client1.udp packetReceived:count 0
scalar ClientServer.client1.udp packetReceived:sum(packetBytes) 0
scalar ClientServer.client1.udp packetSent:count 0
scalar ClientServer.client1.udp packetSent:sum(packetBytes) 0
scalar ClientServer.client1.udp passedUpPk:count 0
scalar ClientServer.client1.udp droppedPkWrongPort:count 0
scalar ClientServer.client1.udp droppedPkBadChecksum:count 0
scalar ClientServer.client1.app[0] bytesRcvd 2000000
scalar ClientServer.client1.app[0] bytesSent 1000000
scalar ClientServer.client1.app[0] packetReceived:count 3732
scalar ClientServer.client1.app[0] packetReceived:sum(packetBytes) 2000000
scalar ClientServer.client1.app[0] packetSent:count 1
scalar ClientServer.client1.app[0] packetSent:sum(packetBytes) 1000000
scalar ClientServer.server.lo[0].lo rcvdPkFromHl:count 0
scalar ClientServer.server.lo[0].lo rcvdPkFromHl:sum(packetBytes) 0
scalar ClientServer.server.lo[0].lo passedUpPk:count 0
scalar ClientServer.server.lo[0].lo passedUpPk:sum(packetBytes) 0
scalar ClientServer.server.lo[0] packetDropInterfaceDown:count 0
scalar ClientServer.server.lo[0] packetDropInterfaceDown:sum(packetBytes) 0
scalar ClientServer.server.lo[0] packetDropNoCarrier:count 0
scalar ClientServer.server.lo[0] packetDropNoCarrier:sum(packetBytes) 0
scalar ClientServer.server.ppp[0].queue queueLength:last 0
scalar ClientServer.server.ppp[0].queue queueLength:max 4
scalar ClientServer.server.ppp[0].queue queueLength:timeavg 0.050654359999996
scalar ClientServer.server.ppp[0].queue queueBitLength:last 0
scalar ClientServer.server.ppp[0].queue queueBitLength:max 14144
scalar ClientServer.server.ppp[0].queue queueBitLength:timeavg 191.62327654401
scalar ClientServer.server.ppp[0].queue outgoingPackets:count 5682
scalar ClientServer.server.ppp[0].queue outgoingPacketLengths:sum 17818272
scalar ClientServer.server.ppp[0].queue incomingPackets:count 5682
scalar ClientServer.server.ppp[0].queue incomingPacketLengths:sum 17818272
scalar ClientServer.server.ppp[0].queue droppedPacketsQueueOverflow:count 0
scalar ClientServer.server.ppp[0].queue droppedPacketLengthsQueueOverflow:sum 0
scalar ClientServer.server.ppp[0].ppp transmissionState:timeavg 0.018136464000001
scalar ClientServer.server.ppp[0].ppp rxPkOk:count 5680
scalar ClientServer.server.ppp[0].ppp rxPkOk:sum(packetBytes) 1266964
scalar ClientServer.server.ppp[0].ppp txPk:count 5682
scalar ClientServer.server.ppp[0].ppp txPk:sum(packetBytes) 2267058
scalar ClientServer.server.ppp[0].ppp rcvdPkFromHl:count 5682
scalar ClientServer.server.ppp[0].ppp rcvdPkFromHl:sum(packetBytes) 2227284
scalar ClientServer.server.ppp[0].ppp passedUpPk:count 5680
scalar ClientServer.server.ppp[0].ppp passedUpPk:sum(packetBytes) 1227204
scalar ClientServer.server.ppp[0].ppp packetDropIncorrectlyReceived:count 0
scalar ClientServer.server.ppp[0].ppp packetDropIncorrectlyReceived:sum(packetBytes) 0
scalar ClientServer.server.ppp[0].ppp packetDropInterfaceDown:count 0
scalar ClientServer.server.ppp[0].ppp packetDropInterfaceDown:sum(packetBytes) 0
scalar ClientServer.server.ppp[0] packetDropInterfaceDown:count 0
scalar ClientServer.server.ppp[0] packetDropInterfaceDown:sum(packetBytes) 0
scalar ClientServer.server.ppp[0] packetDropNoCarrier:count 0
scalar ClientServer.server.ppp[0] packetDropNoCarrier:sum(packetBytes) 0
scalar ClientServer.server.ipv4.ip packetDropAddressResolutionFailed:count 0
scalar ClientServer.server.ipv4.ip packetDropAddressResolutionFailed:sum(packetBytes) 0
scalar ClientServer.server.ipv4.ip packetDropHopLimitReached:count 0
scalar ClientServer.server.ipv4.ip packetDropHopLimitReached:sum(packetBytes) 0
scalar ClientServer.server.ipv4.ip packetDropForwardingDisabled:count 0
scalar ClientServer.server.ipv4.ip packetDropForwardingDisabled:sum(packetBytes) 0
scalar ClientServer.server.ipv4.ip packetDropLifetimeExpired:count 0
scalar ClientServer.server.ipv4.ip packetDropLifetimeExpired:sum(packetBytes) 0
scalar ClientServer.server.ipv4.ip packetDropNoInterfaceFound:count 0
scalar ClientServer.server.ipv4.ip packetDropNoInterfaceFound:sum(packetBytes) 0
scalar ClientServer.server.ipv4.ip packetDropNoRouteFound:count 0
scalar ClientServer.server.ipv4.ip packetDropNoRouteFound:sum(packetBytes) 0
scalar ClientServer.server.ipv4.ip packetDropUndefined:count 0
scalar ClientServer.server.ipv4.ip packetDropUndefined:sum(packetBytes) 0
scalar ClientServer.server.ipv4.arp arpResolutionFailed:count 0
scalar ClientServer.server.ipv4.arp arpResolutionCompleted:count 0
scalar ClientServer.server.ipv4.arp arpResolutionInitiated:count 0
scalar ClientServer.server.ipv4.arp arpReplySent:count 0
scalar ClientServer.server.ipv4.arp arpReplySent:sum(packetBytes) 0
scalar ClientServer.server.ipv4.arp arpRequestSent:count 0
scalar ClientServer.server.ipv4.arp arpRequestSent:sum(packetBytes) 0
scalar ClientServer.server.udp packetReceived:count 0
scalar ClientServer.server.udp packetReceived:sum(packetBytes) 0
scalar ClientServer.server.udp packetSent:count 0
scalar ClientServer.server.udp packetSent:sum(packetBytes) 0
scalar ClientServer.server.udp passedUpPk:count 0
scalar ClientServer.server.udp droppedPkWrongPort:count 0
scalar ClientServer.server.udp droppedPkBadChecksum:count 0
scalar ClientServer.server.app[0] bytesRcvd 1000000
scalar ClientServer.server.app[0] bytesSent 2000000
scalar ClientServer.server.app[0] packetReceived:count 1549
scalar ClientServer.server.app[0] packetReceived:sum(packetBytes) 1000000
scalar ClientServer.server.app[0] packetSent:count 1549
scalar ClientServer.server.app[0] packetSent:sum(packetBytes) 2000000
scalar ClientServer.client1.ppp[0].queue queueingTime:histogram:count 5680
scalar ClientServer.client1.ppp[0].queue queueingTime:histogram:sumweights 5680
scalar ClientServer.client1.ppp[0].queue queueingTime:histogram:mean 0.00097355070422535
scalar ClientServer.client1.ppp[0].queue queueingTime:histogram:stddev 0.0010021561572501
scalar ClientServer.client1.ppp[0].queue queueingTime:histogram:min 0
scalar ClientServer.client1.ppp[0].queue queueingTime:histogram:max 0.0033022
scalar ClientServer.client1.ppp[0].queue queueingTime:histogram:numbins 83
scalar ClientServer.client1.ppp[0].queue queueingTime:histogram:rangemin 0
scalar ClientServer.client1.ppp[0].queue queueingTime:histogram:rangemax 0.00415
scalar ClientServer.client1.ppp[0].queue queueingTime:histogram:underflows 0
scalar ClientServer.client1.ppp[0].queue queueingTime:histogram:overflows 0
scalar ClientServer.client1.ppp[0].queue outgoingPacketLengths:histogram:count 5680
scalar ClientServer.client1.ppp[0].queue outgoingPacketLengths:histogram:sumweights 5680
scalar ClientServer.client1.ppp[0].queue outgoingPacketLengths:histogram:mean 1728.4563380282
scalar ClientServer.client1.ppp[0].queue outgoingPacketLengths:histogram:stddev 1971.2847764508
scalar ClientServer.client1.ppp[0].queue outgoingPacketLengths:histogram:min 320
scalar ClientServer.client1.ppp[0].queue outgoingPacketLengths:histogram:max 4608
scalar ClientServer.client1.ppp[0].queue outgoingPacketLengths:histogram:numbins 57
scalar ClientServer.client1.ppp[0].queue outgoingPacketLengths:histogram:rangemin 0
scalar ClientServer.client1.ppp[0].queue outgoingPacketLengths:histogram:rangemax 5700
scalar ClientServer.client1.ppp[0].queue outgoingPacketLengths:histogram:underflows 0
scalar ClientServer.client1.ppp[0].queue outgoingPacketLengths:histogram:overflows 0
scalar ClientServer.client1.ppp[0].queue flowQueueingTime:histogram:count 0
scalar ClientServer.client1.ppp[0].queue flowQueueingTime:histogram:sumweights 0
scalar ClientServer.client1.ppp[0].queue flowQueueingTime:histogram:mean -nan
scalar ClientServer.client1.ppp[0].queue flowQueueingTime:histogram:stddev nan
scalar ClientServer.client1.ppp[0].queue flowQueueingTime:histogram:min nan
scalar ClientServer.client1.ppp[0].queue flowQueueingTime:histogram:max nan
scalar ClientServer.client1.ppp[0].queue flowQueueingTime:histogram:numbins 1
scalar ClientServer.client1.ppp[0].queue flowQueueingTime:histogram:rangemin 0
scalar ClientServer.client1.ppp[0].queue flowQueueingTime:histogram:rangemax 1
scalar ClientServer.client1.ppp[0].queue flowQueueingTime:histogram:underflows 0
scalar ClientServer.client1.ppp[0].queue flowQueueingTime:histogram:overflows 0
scalar ClientServer.client1.ppp[0].queue incomingPacketLengths:histogram:count 5737
scalar ClientServer.client1.ppp[0].queue incomingPacketLengths:histogram:sumweights 5737
scalar ClientServer.client1.ppp[0].queue incomingPacketLengths:histogram:mean 1757.066062402
scalar ClientServer.client1.ppp[0].queue incomingPacketLengths:histogram:stddev 1982.1520062812
scalar ClientServer.client1.ppp[0].queue incomingPacketLengths:histogram:min 320
scalar ClientServer.client1.ppp[0].queue incomingPacketLengths:histogram:max 4608
scalar ClientServer.client1.ppp[0].queue incomingPacketLengths:histogram:numbins 57
scalar ClientServer.client1.ppp[0].queue incomingPacketLengths:histogram:rangemin 0
scalar ClientServer.client1.ppp[0].queue incomingPacketLengths:histogram:rangemax 5700
scalar ClientServer.client1.ppp[0].queue incomingPacketLengths:histogram:underflows 0
scalar ClientServer.client1.ppp[0].queue incomingPacketLengths:histogram:overflows 0
scalar ClientServer.client1.app[0] endToEndDelay:histogram:count 0
scalar ClientServer.client1.app[0] endToEndDelay:histogram:sumweights 0
scalar ClientServer.client1.app[0] endToEndDelay:histogram:mean -nan
scalar ClientServer.client1.app[0] endToEndDelay:histogram:stddev nan
scalar ClientServer.client1.app[0] endToEndDelay:histogram:min nan
scalar ClientServer.client1.app[0] endToEndDelay:histogram:max nan
scalar ClientServer.client1.app[0] endToEndDelay:histogram:numbins 1
scalar ClientServer.client1.app[0] endToEndDelay:histogram:rangemin 0
scalar ClientServer.client1.app[0] endToEndDelay:histogram:rangemax 1
scalar ClientServer.client1.app[0] endToEndDelay:histogram:underflows 0
scalar ClientServer.client1.app[0] endToEndDelay:histogram:overflows 0
scalar ClientServer.client1.app[0] endToEndDelay:weightedHistogram:count 0
scalar ClientServer.client1.app[0] endToEndDelay:weightedHistogram:sumweights 0
scalar ClientServer.client1.app[0] endToEndDelay:weightedHistogram:mean -nan
scalar ClientServer.client1.app[0] endToEndDelay:weightedHistogram:stddev nan
scalar ClientServer.client1.app[0] endToEndDelay:weightedHistogram:min nan
scalar ClientServer.client1.app[0] endToEndDelay:weightedHistogram:max nan
scalar ClientServer.client1.app[0] endToEndDelay:weightedHistogram:numbins 1
scalar ClientServer.client1.app[0] endToEndDelay:weightedHistogram:rangemin 0
scalar ClientServer.client1.app[0] endToEndDelay:weightedHistogram:rangemax 1
scalar ClientServer.client1.app[0] endToEndDelay:weightedHistogram:underflows 0
scalar ClientServer.client1.app[0] endToEndDelay:weightedHistogram:overflows 0
scalar ClientServer.server.ppp[0].queue queueingTime:histogram:count 5682
scalar ClientServer.server.ppp[0].queue queueingTime:histogram:sumweights 5682
scalar ClientServer.server.ppp[0].queue queueingTime:histogram:mean 0.00089148820837737
scalar ClientServer.server.ppp[0].queue queueingTime:histogram:stddev 0.00054992966356195
scalar ClientServer.server.ppp[0].queue queueingTime:histogram:min 0
scalar ClientServer.server.ppp[0].queue queueingTime:histogram:max 0.00144
scalar ClientServer.server.ppp[0].queue queueingTime:histogram:numbins 86
scalar ClientServer.server.ppp[0].queue queueingTime:histogram:rangemin 0
scalar ClientServer.server.ppp[0].queue queueingTime:histogram:rangemax 0.00172
scalar ClientServer.server.ppp[0].queue queueingTime:histogram:underflows 0
scalar ClientServer.server.ppp[0].queue queueingTime:histogram:overflows 0
scalar ClientServer.server.ppp[0].queue outgoingPacketLengths:histogram:count 5682
scalar ClientServer.server.ppp[0].queue outgoingPacketLengths:histogram:sumweights 5682
scalar ClientServer.server.ppp[0].queue outgoingPacketLengths:histogram:mean 3135.9155227033
scalar ClientServer.server.ppp[0].queue outgoingPacketLengths:histogram:stddev 2035.9866348015
scalar ClientServer.server.ppp[0].queue outgoingPacketLengths:histogram:min 320
scalar ClientServer.server.ppp[0].queue outgoingPacketLengths:histogram:max 4608
scalar ClientServer.server.ppp[0].queue outgoingPacketLengths:histogram:numbins 57
scalar ClientServer.server.ppp[0].queue outgoingPacketLengths:histogram:rangemin 0
scalar ClientServer.server.ppp[0].queue outgoingPacketLengths:histogram:rangemax 5700
scalar ClientServer.server.ppp[0].queue outgoingPacketLengths:histogram:underflows 0
scalar ClientServer.server.ppp[0].queue outgoingPacketLengths:histogram:overflows 0
scalar ClientServer.server.ppp[0].queue flowQueueingTime:histogram:count 0
scalar ClientServer.server.ppp[0].queue flowQueueingTime:histogram:sumweights 0
scalar ClientServer.server.ppp[0].queue flowQueueingTime:histogram:mean -nan
scalar ClientServer.server.ppp[0].queue flowQueueingTime:histogram:stddev nan
scalar ClientServer.server.ppp[0].queue flowQueueingTime:histogram:min nan
scalar ClientServer.server.ppp[0].queue flowQueueingTime:histogram:max nan
scalar ClientServer.server.ppp[0].queue flowQueueingTime:histogram:numbins 1
scalar ClientServer.server.ppp[0].queue flowQueueingTime:histogram:rangemin 0
scalar ClientServer.server.ppp[0].queue flowQueueingTime:histogram:rangemax 1
scalar ClientServer.server.ppp[0].queue flowQueueingTime:histogram:underflows 0
scalar ClientServer.server.ppp[0].queue flowQueueingTime:histogram:overflows 0
scalar ClientServer.server.ppp[0].queue incomingPacketLengths:histogram:count 5682
scalar ClientServer.server.ppp[0].queue incomingPacketLengths:histogram:sumweights 5682
scalar ClientServer.server.ppp[0].queue incomingPacketLengths:histogram:mean 3135.9155227033
scalar ClientServer.server.ppp[0].queue incomingPacketLengths:histogram:stddev 2035.9866348015
scalar ClientServer.server.ppp[0].queue incomingPacketLengths:histogram:min 320
scalar ClientServer.server.ppp[0].queue incomingPacketLengths:histogram:max 4608
scalar ClientServer.server.ppp[0].queue incomingPacketLengths:histogram:numbins 57
scalar ClientServer.server.ppp[0].queue incomingPacketLengths:histogram:rangemin 0
scalar ClientServer.server.ppp[0].queue incomingPacketLengths:histogram:rangemax 5700
scalar ClientServer.server.ppp[0].queue incomingPacketLengths:histogram:underflows 0
scalar ClientServer.server.ppp[0].queue incomingPacketLengths:histogram:overflows 0
scalar ClientServer.server.app[0] endToEndDelay:histogram:count 0
scalar ClientServer.server.app[0] endToEndDelay:histogram:sumweights 0
scalar ClientServer.server.app[0] endToEndDelay:histogram:mean -nan
scalar ClientServer.server.app[0] endToEndDelay:histogram:stddev nan
scalar ClientServer.server.app[0] endToEndDelay:histogram:min nan
scalar ClientServer.server.app[0] endToEndDelay:histogram:max nan
scalar ClientServer.server.app[0] endToEndDelay:histogram:numbins 1
scalar ClientServer.server.app[0] endToEndDelay:histogram:rangemin 0
scalar ClientServer.server.app[0] endToEndDelay:histogram:rangemax 1
scalar ClientServer.server.app[0] endToEndDelay:histogram:underflows 0
scalar ClientServer.server.app[0] endToEndDelay:histogram:overflows 0
scalar ClientServer.server.app[0] endToEndDelay:weightedHistogram:count 0
scalar ClientServer.server.app[0] endToEndDelay:weightedHistogram:sumweights 0
scalar ClientServer.server.app[0] endToEndDelay:weightedHistogram:mean -nan
scalar ClientServer.server.app[0] endToEndDelay:weightedHistogram:stddev nan
scalar ClientServer.server.app[0] endToEndDelay:weightedHistogram:min nan
scalar ClientServer.server.app[0] endToEndDelay:weightedHistogram:max nan
scalar ClientServer.server.app[0] endToEndDelay:weightedHistogram:numbins 1
scalar ClientServer.server.app[0] endToEndDelay:weightedHistogram:rangemin 0
scalar ClientServer.server.app[0] endToEndDelay:weightedHistogram:rangemax 1
scalar ClientServer.server.app[0] endToEndDelay:weightedHistogram:underflows 0
scalar ClientServer.server.app[0] endToEndDelay:weightedHistogram:overflows 0
statistic ClientServer.client1.ppp[0].queue queueingTime:histogram
field count 5680
field mean 0.00097355070422535
field stddev 0.0010021561572501
field min 0
field max 0.0033022
field sum 5.529768
field sqrsum 0.0110870255664
bin	-inf	0
bin	0	2367
bin	5e-05	0
bin	0.0001	57
bin	0.00015	0
bin	0.0002	113
bin	0.00025	0
bin	0.0003	0
bin	0.00035	0
bin	0.0004	1
bin	0.00045	1
bin	0.0005	167
bin	0.00055	57
bin	0.0006	0
bin	0.00065	116
bin	0.0007	0
bin	0.00075	0
bin	0.0008	0
bin	0.00085	3
bin	0.0009	0
bin	0.00095	167
bin	0.001	59
bin	0.00105	112
bin	0.0011	4
bin	0.00115	112
bin	0.0012	0
bin	0.00125	0
bin	0.0013	0
bin	0.00135	113
bin	0.0014	113
bin	0.00145	227
bin	0.0015	172
bin	0.00155	57
bin	0.0016	0
bin	0.00165	0
bin	0.0017	3
bin	0.00175	0
bin	0.0018	222
bin	0.00185	344
bin	0.0019	0
bin	0.00195	5
bin	0.002	56
bin	0.00205	0
bin	0.0021	0
bin	0.00215	112
bin	0.0022	1
bin	0.00225	61
bin	0.0023	171
bin	0.00235	1
bin	0.0024	112
bin	0.00245	0
bin	0.0025	0
bin	0.00255	0
bin	0.0026	111
bin	0.00265	0
bin	0.0027	2
bin	0.00275	453
bin	0.0028	0
bin	0.00285	0
bin	0.0029	2
bin	0.00295	0
bin	0.003	0
bin	0.00305	0
bin	0.0031	5
bin	0.00315	0
bin	0.0032	0
bin	0.00325	0
bin	0.0033	1
bin	0.00335	0
bin	0.0034	0
bin	0.00345	0
bin	0.0035	0
bin	0.00355	0
bin	0.0036	0
bin	0.00365	0
bin	0.0037	0
bin	0.00375	0
bin	0.0038	0
bin	0.00385	0
bin	0.0039	0
bin	0.00395	0
bin	0.004	0
bin	0.00405	0
bin	0.0041	0
bin	0.00415	0
statistic ClientServer.client1.ppp[0].queue outgoingPacketLengths:histogram
field count 5680
field mean 1728.4563380282
field stddev 1971.2847764508
field min 320
field max 4608
field sum 9817632
field sqrsum 39037735936
bin	-inf	0
bin	0	0
bin	100	0
bin	200	0
bin	300	3732
bin	400	0
bin	500	0
bin	600	0
bin	700	0
bin	800	0
bin	900	0
bin	1000	0
bin	1100	0
bin	1200	0
bin	1300	0
bin	1400	0
bin	1500	0
bin	1600	0
bin	1700	1
bin	1800	0
bin	1900	0
bin	2000	0
bin	2100	0
bin	2200	0
bin	2300	0
bin	2400	0
bin	2500	0
bin	2600	0
bin	2700	0
bin	2800	0
bin	2900	0
bin	3000	228
bin	3100	0
bin	3200	0
bin	3300	0
bin	3400	0
bin	3500	0
bin	3600	0
bin	3700	0
bin	3800	0
bin	3900	0
bin	4000	0
bin	4100	0
bin	4200	0
bin	4300	0
bin	4400	0
bin	4500	0
bin	4600	1719
bin	4700	0
bin	4800	0
bin	4900	0
bin	5000	0
bin	5100	0
bin	5200	0
bin	5300	0
bin	5400	0
bin	5500	0
bin	5600	0
bin	5700	0
statistic ClientServer.client1.ppp[0].queue flowQueueingTime:histogram
field count 0
field mean -nan
field stddev nan
field min nan
field max nan
field sum 0
field sqrsum 0
bin	-inf	0
bin	0	0
bin	1	0
statistic ClientServer.client1.ppp[0].queue incomingPacketLengths:histogram
field count 5737
field mean 1757.066062402
field stddev 1982.1520062812
field min 320
field max 4608
field sum 10080288
field sqrsum 40248054784
bin	-inf	0
bin	0	0
bin	100	0
bin	200	0
bin	300	3732
bin	400	0
bin	500	0
bin	600	0
bin	700	0
bin	800	0
bin	900	0
bin	1000	0
bin	1100	0
bin	1200	0
bin	1300	0
bin	1400	0
bin	1500	0
bin	1600	0
bin	1700	1
bin	1800	0
bin	1900	0
bin	2000	0
bin	2100	0
bin	2200	0
bin	2300	0
bin	2400	0
bin	2500	0
bin	2600	0
bin	2700	0
bin	2800	0
bin	2900	0
bin	3000	228
bin	3100	0
bin	3200	0
bin	3300	0
bin	3400	0
bin	3500	0
bin	3600	0
bin	3700	0
bin	3800	0
bin	3900	0
bin	4000	0
bin	4100	0
bin	4200	0
bin	4300	0
bin	4400	0
bin	4500	0
bin	4600	1776
bin	4700	0
bin	4800	0
bin	4900	0
bin	5000	0
bin	5100	0
bin	5200	0
bin	5300	0
bin	5400	0
bin	5500	0
bin	5600	0
bin	5700	0
statistic ClientServer.client1.app[0] endToEndDelay:histogram
field count 0
field mean -nan
field stddev nan
field min nan
field max nan
field sum 0
field sqrsum 0
bin	-inf	0
bin	0	0
bin	1	0
statistic ClientServer.client1.app[0] endToEndDelay:weightedHistogram
field count 0
field mean -nan
field stddev nan
field min nan
field max nan
field weights 0
field weightedSum 0
field sqrSumWeights 0
field weightedSqrSum 0
bin	-inf	0
bin	0	0
bin	1	0
statistic ClientServer.server.ppp[0].queue queueingTime:histogram
field count 5682
field mean 0.00089148820837737
field stddev 0.00054992966356195
field min 0
field max 0.00144
field sum 5.0654360000002
field sqrsum 0.0062338394529605
bin	-inf	0
bin	0	1042
bin	2e-05	4
bin	4e-05	0
bin	6e-05	1
bin	8e-05	0
bin	0.0001	0
bin	0.00012	0
bin	0.00014	222
bin	0.00016	0
bin	0.00018	0
bin	0.0002	0
bin	0.00022	0
bin	0.00024	0
bin	0.00026	0
bin	0.00028	0
bin	0.0003	0
bin	0.00032	0
bin	0.00034	0
bin	0.00036	0
bin	0.00038	0
bin	0.0004	0
bin	0.00042	515
bin	0.00044	0
bin	0.00046	4
bin	0.00048	0
bin	0.0005	1
bin	0.00052	0
bin	0.00054	0
bin	0.00056	0
bin	0.00058	167
bin	0.0006	0
bin	0.00062	0
bin	0.00064	0
bin	0.00066	0
bin	0.00068	0
bin	0.0007	0
bin	0.00072	0
bin	0.00074	0
bin	0.00076	0
bin	0.00078	0
bin	0.0008	0
bin	0.00082	0
bin	0.00084	516
bin	0.00086	0
bin	0.00088	1
bin	0.0009	0
bin	0.00092	2
bin	0.00094	0
bin	0.00096	0
bin	0.00098	0
bin	0.001	166
bin	0.00102	0
bin	0.00104	0
bin	0.00106	0
bin	0.00108	0
bin	0.0011	0
bin	0.00112	0
bin	0.00114	0
bin	0.00116	0
bin	0.00118	0
bin	0.0012	0
bin	0.00122	0
bin	0.00124	0
bin	0.00126	0
bin	0.00128	626
bin	0.0013	0
bin	0.00132	0
bin	0.00134	0
bin	0.00136	2358
bin	0.00138	1
bin	0.0014	0
bin	0.00142	56
bin	0.00144	0
bin	0.00146	0
bin	0.00148	0
bin	0.0015	0
bin	0.00152	0
bin	0.00154	0
bin	0.00156	0
bin	0.00158	0
bin	0.0016	0
bin	0.00162	0
bin	0.00164	0
bin	0.00166	0
bin	0.00168	0
bin	0.0017	0
bin	0.00172	0
statistic ClientServer.server.ppp[0].queue outgoingPacketLengths:histogram
field count 5682
field mean 3135.9155227033
field stddev 2035.9866348015
field min 320
field max 4608
field sum 17818272
field sqrsum 79425713152
bin	-inf	0
bin	0	0
bin	100	0
bin	200	0
bin	300	1950
bin	400	0
bin	500	0
bin	600	0
bin	700	0
bin	800	0
bin	900	0
bin	1000	0
bin	1100	0
bin	1200	0
bin	1300	0
bin	1400	0
bin	1500	0
bin	1600	0
bin	1700	1
bin	1800	0
bin	1900	0
bin	2000	0
bin	2100	0
bin	2200	0
bin	2300	0
bin	2400	0
bin	2500	0
bin	2600	0
bin	2700	0
bin	2800	0
bin	2900	0
bin	3000	0
bin	3100	0
bin	3200	0
bin	3300	0
bin	3400	0
bin	3500	0
bin	3600	0
bin	3700	0
bin	3800	0
bin	3900	0
bin	4000	0
bin	4100	0
bin	4200	0
bin	4300	0
bin	4400	0
bin	4500	0
bin	4600	3731
bin	4700	0
bin	4800	0
bin	4900	0
bin	5000	0
bin	5100	0
bin	5200	0
bin	5300	0
bin	5400	0
bin	5500	0
bin	5600	0
bin	5700	0
statistic ClientServer.server.ppp[0].queue flowQueueingTime:histogram
field count 0
field mean -nan
field stddev nan
field min nan
field max nan
field sum 0
field sqrsum 0
bin	-inf	0
bin	0	0
bin	1	0
statistic ClientServer.server.ppp[0].queue incomingPacketLengths:histogram
field count 5682
field mean 3135.9155227033
field stddev 2035.9866348015
field min 320
field max 4608
field sum 17818272
field sqrsum 79425713152
bin	-inf	0
bin	0	0
bin	100	0
bin	200	0
bin	300	1950
bin	400	0
bin	500	0
bin	600	0
bin	700	0
bin	800	0
bin	900	0
bin	1000	0
bin	1100	0
bin	1200	0
bin	1300	0
bin	1400	0
bin	1500	0
bin	1600	0
bin	1700	1
bin	1800	0
bin	1900	0
bin	2000	0
bin	2100	0
bin	2200	0
bin	2300	0
bin	2400	0
bin	2500	0
bin	2600	0
bin	2700	0
bin	2800	0
bin	2900	0
bin	3000	0
bin	3100	0
bin	3200	0
bin	3300	0
bin	3400	0
bin	3500	0
bin	3600	0
bin	3700	0
bin	3800	0
bin	3900	0
bin	4000	0
bin	4100	0
bin	4200	0
bin	4300	0
bin	4400	0
bin	4500	0
bin	4600	3731
bin	4700	0
bin	4800	0
bin	4900	0
bin	5000	0
bin	5100	0
bin	5200	0
bin	5300	0
bin	5400	0
bin	5500	0
bin	5600	0
bin	5700	0
statistic ClientServer.server.app[0] endToEndDelay:histogram
field count 0
field mean -nan
field stddev nan
field min nan
field max nan
field sum 0
field sqrsum 0
bin	-inf	0
bin	0	0
bin	1	0
statistic ClientServer.server.app[0] endToEndDelay:weightedHistogram
field count 0
field mean -nan
field stddev nan
field min nan
field max nan
field weights 0
field weightedSum 0
field sqrSumWeights 0
field weightedSqrSum 0
bin	-inf	0
bin	0	0
bin	1	0
scalar ClientServer.client1.lo[0].lo rcvdPkFromHl:vector(packetBytes):count 0
scalar ClientServer.client1.lo[0].lo rcvdPkFromHl:vector(packetBytes):sum 0
scalar ClientServer.client1.lo[0].lo rcvdPkFromHl:vector(packetBytes):sumweights 0
scalar ClientServer.client1.lo[0].lo rcvdPkFromHl:vector(packetBytes):mean -nan
scalar ClientServer.client1.lo[0].lo rcvdPkFromHl:vector(packetBytes):stddev nan
scalar ClientServer.client1.lo[0].lo rcvdPkFromHl:vector(packetBytes):min inf
scalar ClientServer.client1.lo[0].lo rcvdPkFromHl:vector(packetBytes):max -inf
scalar ClientServer.client1.lo[0].lo rcvdPkFromHl:vector(packetBytes):starttime nan
scalar ClientServer.client1.lo[0].lo rcvdPkFromHl:vector(packetBytes):endtime nan
scalar ClientServer.client1.lo[0].lo passedUpPk:vector(packetBytes):count 0
scalar ClientServer.client1.lo[0].lo passedUpPk:vector(packetBytes):sum 0
scalar ClientServer.client1.lo[0].lo passedUpPk:vector(packetBytes):sumweights 0
scalar ClientServer.client1.lo[0].lo passedUpPk:vector(packetBytes):mean -nan
scalar ClientServer.client1.lo[0].lo passedUpPk:vector(packetBytes):stddev nan
scalar ClientServer.client1.lo[0].lo passedUpPk:vector(packetBytes):min inf
scalar ClientServer.client1.lo[0].lo passedUpPk:vector(packetBytes):max -inf
scalar ClientServer.client1.lo[0].lo passedUpPk:vector(packetBytes):starttime nan
scalar ClientServer.client1.lo[0].lo passedUpPk:vector(packetBytes):endtime nan
scalar ClientServer.client1.lo[0] packetDropInterfaceDown:vector(packetBytes):count 0
scalar ClientServer.client1.lo[0] packetDropInterfaceDown:vector(packetBytes):sum 0
scalar ClientServer.client1.lo[0] packetDropInterfaceDown:vector(packetBytes):sumweights 0
scalar ClientServer.client1.lo[0] packetDropInterfaceDown:vector(packetBytes):mean -nan
scalar ClientServer.client1.lo[0] packetDropInterfaceDown:vector(packetBytes):stddev nan
scalar ClientServer.client1.lo[0] packetDropInterfaceDown:vector(packetBytes):min inf
scalar ClientServer.client1.lo[0] packetDropInterfaceDown:vector(packetBytes):max -inf
scalar ClientServer.client1.lo[0] packetDropInterfaceDown:vector(packetBytes):starttime nan
scalar ClientServer.client1.lo[0] packetDropInterfaceDown:vector(packetBytes):endtime nan
scalar ClientServer.client1.lo[0] packetDropNoCarrier:vector(packetBytes):count 0
scalar ClientServer.client1.lo[0] packetDropNoCarrier:vector(packetBytes):sum 0
scalar ClientServer.client1.lo[0] packetDropNoCarrier:vector(packetBytes):sumweights 0
scalar ClientServer.client1.lo[0] packetDropNoCarrier:vector(packetBytes):mean -nan
scalar ClientServer.client1.lo[0] packetDropNoCarrier:vector(packetBytes):stddev nan
scalar ClientServer.client1.lo[0] packetDropNoCarrier:vector(packetBytes):min inf
scalar ClientServer.client1.lo[0] packetDropNoCarrier:vector(packetBytes):max -inf
scalar ClientServer.client1.lo[0] packetDropNoCarrier:vector(packetBytes):starttime nan
scalar ClientServer.client1.lo[0] packetDropNoCarrier:vector(packetBytes):endtime nan
scalar ClientServer.client1.ppp[0].queue queueLength:vector:count 9055
scalar ClientServer.client1.ppp[0].queue queueLength:vector:sum 40905
scalar ClientServer.client1.ppp[0].queue queueLength:vector:sumweights 9055
scalar ClientServer.client1.ppp[0].queue queueLength:vector:mean 4.5173937051353
scalar ClientServer.client1.ppp[0].queue queueLength:vector:stddev 3.2009671488869
scalar ClientServer.client1.ppp[0].queue queueLength:vector:min 0
scalar ClientServer.client1.ppp[0].queue queueLength:vector:max 10
scalar ClientServer.client1.ppp[0].queue queueLength:vector:starttime 0
scalar ClientServer.client1.ppp[0].queue queueLength:vector:endtime 25.000113
scalar ClientServer.client1.ppp[0].queue queueBitLength:vector:count 9055
scalar ClientServer.client1.ppp[0].queue queueBitLength:vector:sum 115320832
scalar ClientServer.client1.ppp[0].queue queueBitLength:vector:sumweights 9055
scalar ClientServer.client1.ppp[0].queue queueBitLength:vector:mean 12735.597128658
scalar ClientServer.client1.ppp[0].queue queueBitLength:vector:stddev 10329.651872058
scalar ClientServer.client1.ppp[0].queue queueBitLength:vector:min 0
scalar ClientServer.client1.ppp[0].queue queueBitLength:vector:max 35328
scalar ClientServer.client1.ppp[0].queue queueBitLength:vector:starttime 0
scalar ClientServer.client1.ppp[0].queue queueBitLength:vector:endtime 25.000113
scalar ClientServer.client1.ppp[0].queue queueingTime:vector:count 5680
scalar ClientServer.client1.ppp[0].queue queueingTime:vector:sum 5.529768
scalar ClientServer.client1.ppp[0].queue queueingTime:vector:sumweights 5680
scalar ClientServer.client1.ppp[0].queue queueingTime:vector:mean 0.00097355070422535
scalar ClientServer.client1.ppp[0].queue queueingTime:vector:stddev 0.0010021561572501
scalar ClientServer.client1.ppp[0].queue queueingTime:vector:min 0
scalar ClientServer.client1.ppp[0].queue queueingTime:vector:max 0.0033022
scalar ClientServer.client1.ppp[0].queue queueingTime:vector:starttime 0.2
scalar ClientServer.client1.ppp[0].queue queueingTime:vector:endtime 25.000113
scalar ClientServer.client1.ppp[0].queue incomingPacketLengths:vector:count 5737
scalar ClientServer.client1.ppp[0].queue incomingPacketLengths:vector:sum 10080288
scalar ClientServer.client1.ppp[0].queue incomingPacketLengths:vector:sumweights 5737
scalar ClientServer.client1.ppp[0].queue incomingPacketLengths:vector:mean 1757.066062402
scalar ClientServer.client1.ppp[0].queue incomingPacketLengths:vector:stddev 1982.1520062812
scalar ClientServer.client1.ppp[0].queue incomingPacketLengths:vector:min 320
scalar ClientServer.client1.ppp[0].queue incomingPacketLengths:vector:max 4608
scalar ClientServer.client1.ppp[0].queue incomingPacketLengths:vector:starttime 0.2
scalar ClientServer.client1.ppp[0].queue incomingPacketLengths:vector:endtime 25.000113
scalar ClientServer.client1.ppp[0].queue incomingDataRate:vector:count 1037
scalar ClientServer.client1.ppp[0].queue incomingDataRate:vector:sum 355422392.6805
scalar ClientServer.client1.ppp[0].queue incomingDataRate:vector:sumweights 1037
scalar ClientServer.client1.ppp[0].queue incomingDataRate:vector:mean 342740.97654822
scalar ClientServer.client1.ppp[0].queue incomingDataRate:vector:stddev 1785736.1314341
scalar ClientServer.client1.ppp[0].queue incomingDataRate:vector:min 0
scalar ClientServer.client1.ppp[0].queue incomingDataRate:vector:max 10941890.065684
scalar ClientServer.client1.ppp[0].queue incomingDataRate:vector:starttime 0.1
scalar ClientServer.client1.ppp[0].queue incomingDataRate:vector:endtime 100
scalar ClientServer.client1.ppp[0].queue outgoingPacketLengths:vector:count 5680
scalar ClientServer.client1.ppp[0].queue outgoingPacketLengths:vector:sum 9817632
scalar ClientServer.client1.ppp[0].queue outgoingPacketLengths:vector:sumweights 5680
scalar ClientServer.client1.ppp[0].queue outgoingPacketLengths:vector:mean 1728.4563380282
scalar ClientServer.client1.ppp[0].queue outgoingPacketLengths:vector:stddev 1971.2847764508
scalar ClientServer.client1.ppp[0].queue outgoingPacketLengths:vector:min 320
scalar ClientServer.client1.ppp[0].queue outgoingPacketLengths:vector:max 4608
scalar ClientServer.client1.ppp[0].queue outgoingPacketLengths:vector:starttime 0.2
scalar ClientServer.client1.ppp[0].queue outgoingPacketLengths:vector:endtime 25.000113
scalar ClientServer.client1.ppp[0].queue outgoingDataRate:vector:count 1037
scalar ClientServer.client1.ppp[0].queue outgoingDataRate:vector:sum 340308322.08235
scalar ClientServer.client1.ppp[0].queue outgoingDataRate:vector:sumweights 1037
scalar ClientServer.client1.ppp[0].queue outgoingDataRate:vector:mean 328166.17365704
scalar ClientServer.client1.ppp[0].queue outgoingDataRate:vector:stddev 1721691.6644814
scalar ClientServer.client1.ppp[0].queue outgoingDataRate:vector:min 0
scalar ClientServer.client1.ppp[0].queue outgoingDataRate:vector:max 9953116.0663236
scalar ClientServer.client1.ppp[0].queue outgoingDataRate:vector:starttime 0.1
scalar ClientServer.client1.ppp[0].queue outgoingDataRate:vector:endtime 100
scalar ClientServer.client1.ppp[0].queue droppedPacketLengthsQueueOverflow:vector:count 57
scalar ClientServer.client1.ppp[0].queue droppedPacketLengthsQueueOverflow:vector:sum 262656
scalar ClientServer.client1.ppp[0].queue droppedPacketLengthsQueueOverflow:vector:sumweights 57
scalar ClientServer.client1.ppp[0].queue droppedPacketLengthsQueueOverflow:vector:mean 4608
scalar ClientServer.client1.ppp[0].queue droppedPacketLengthsQueueOverflow:vector:stddev 0
scalar ClientServer.client1.ppp[0].queue droppedPacketLengthsQueueOverflow:vector:min 4608
scalar ClientServer.client1.ppp[0].queue droppedPacketLengthsQueueOverflow:vector:max 4608
scalar ClientServer.client1.ppp[0].queue droppedPacketLengthsQueueOverflow:vector:starttime 0.5066018
scalar ClientServer.client1.ppp[0].queue droppedPacketLengthsQueueOverflow:vector:endtime 1.4089714
scalar ClientServer.client1.ppp[0].queue flowQueueingTime:vector:count 0
scalar ClientServer.client1.ppp[0].queue flowQueueingTime:vector:sum 0
scalar ClientServer.client1.ppp[0].queue flowQueueingTime:vector:sumweights 0
scalar ClientServer.client1.ppp[0].queue flowQueueingTime:vector:mean -nan
scalar ClientServer.client1.ppp[0].queue flowQueueingTime:vector:stddev nan
scalar ClientServer.client1.ppp[0].queue flowQueueingTime:vector:min inf
scalar ClientServer.client1.ppp[0].queue flowQueueingTime:vector:max -inf
scalar ClientServer.client1.ppp[0].queue flowQueueingTime:vector:starttime nan
scalar ClientServer.client1.ppp[0].queue flowQueueingTime:vector:endtime nan
scalar ClientServer.client1.ppp[0].queue flowIncomingDataRate:vector:count 1000
scalar ClientServer.client1.ppp[0].queue flowIncomingDataRate:vector:sum 0
scalar ClientServer.client1.ppp[0].queue flowIncomingDataRate:vector:sumweights 1000
scalar ClientServer.client1.ppp[0].queue flowIncomingDataRate:vector:mean 0
scalar ClientServer.client1.ppp[0].queue flowIncomingDataRate:vector:stddev 0
scalar ClientServer.client1.ppp[0].queue flowIncomingDataRate:vector:min 0
scalar ClientServer.client1.ppp[0].queue flowIncomingDataRate:vector:max 0
scalar ClientServer.client1.ppp[0].queue flowIncomingDataRate:vector:starttime 0.1
scalar ClientServer.client1.ppp[0].queue flowIncomingDataRate:vector:endtime 100
scalar ClientServer.client1.ppp[0].queue flowOutgoingDataRate:vector:count 1000
scalar ClientServer.client1.ppp[0].queue flowOutgoingDataRate:vector:sum 0
scalar ClientServer.client1.ppp[0].queue flowOutgoingDataRate:vector:sumweights 1000
scalar ClientServer.client1.ppp[0].queue flowOutgoingDataRate:vector:mean 0
scalar ClientServer.client1.ppp[0].queue flowOutgoingDataRate:vector:stddev 0
scalar ClientServer.client1.ppp[0].queue flowOutgoingDataRate:vector:min 0
scalar ClientServer.client1.ppp[0].queue flowOutgoingDataRate:vector:max 0
scalar ClientServer.client1.ppp[0].queue flowOutgoingDataRate:vector:starttime 0.1
scalar ClientServer.client1.ppp[0].queue flowOutgoingDataRate:vector:endtime 100
scalar ClientServer.client1.ppp[0].ppp transmissionState:vector:count 11361
scalar ClientServer.client1.ppp[0].ppp transmissionState:vector:sum 5680
scalar ClientServer.client1.ppp[0].ppp transmissionState:vector:sumweights 11361
scalar ClientServer.client1.ppp[0].ppp transmissionState:vector:mean 0.49995598978963
scalar ClientServer.client1.ppp[0].ppp transmissionState:vector:stddev 0.50002200462098
scalar ClientServer.client1.ppp[0].ppp transmissionState:vector:min 0
scalar ClientServer.client1.ppp[0].ppp transmissionState:vector:max 1
scalar ClientServer.client1.ppp[0].ppp transmissionState:vector:starttime 0
scalar ClientServer.client1.ppp[0].ppp transmissionState:vector:endtime 25.0001506
scalar ClientServer.client1.ppp[0].ppp txPk:vector(packetBytes):count 5680
scalar ClientServer.client1.ppp[0].ppp txPk:vector(packetBytes):sum 1266964
scalar ClientServer.client1.ppp[0].ppp txPk:vector(packetBytes):sumweights 5680
scalar ClientServer.client1.ppp[0].ppp txPk:vector(packetBytes):mean 223.05704225352
scalar ClientServer.client1.ppp[0].ppp txPk:vector(packetBytes):stddev 246.41059705634
scalar ClientServer.client1.ppp[0].ppp txPk:vector(packetBytes):min 47
scalar ClientServer.client1.ppp[0].ppp txPk:vector(packetBytes):max 583
scalar ClientServer.client1.ppp[0].ppp txPk:vector(packetBytes):starttime 0.2
scalar ClientServer.client1.ppp[0].ppp txPk:vector(packetBytes):endtime 25.000113
scalar ClientServer.client1.ppp[0].ppp rxPkOk:vector(packetBytes):count 5682
scalar ClientServer.client1.ppp[0].ppp rxPkOk:vector(packetBytes):sum 2267058
scalar ClientServer.client1.ppp[0].ppp rxPkOk:vector(packetBytes):sumweights 5682
scalar ClientServer.client1.ppp[0].ppp rxPkOk:vector(packetBytes):mean 398.98944033791
scalar ClientServer.client1.ppp[0].ppp rxPkOk:vector(packetBytes):stddev 254.49832935019
scalar ClientServer.client1.ppp[0].ppp rxPkOk:vector(packetBytes):min 47
scalar ClientServer.client1.ppp[0].ppp rxPkOk:vector(packetBytes):max 583
scalar ClientServer.client1.ppp[0].ppp rxPkOk:vector(packetBytes):starttime 0.2000818
scalar ClientServer.client1.ppp[0].ppp rxPkOk:vector(packetBytes):endtime 25.000113
scalar ClientServer.client1.ppp[0].ppp packetDropIncorrectlyReceived:vector(packetBytes):count 0
scalar ClientServer.client1.ppp[0].ppp packetDropIncorrectlyReceived:vector(packetBytes):sum 0
scalar ClientServer.client1.ppp[0].ppp packetDropIncorrectlyReceived:vector(packetBytes):sumweights 0
scalar ClientServer.client1.ppp[0].ppp packetDropIncorrectlyReceived:vector(packetBytes):mean -nan
scalar ClientServer.client1.ppp[0].ppp packetDropIncorrectlyReceived:vector(packetBytes):stddev nan
scalar ClientServer.client1.ppp[0].ppp packetDropIncorrectlyReceived:vector(packetBytes):min inf
scalar ClientServer.client1.ppp[0].ppp packetDropIncorrectlyReceived:vector(packetBytes):max -inf
scalar ClientServer.client1.ppp[0].ppp packetDropIncorrectlyReceived:vector(packetBytes):starttime nan
scalar ClientServer.client1.ppp[0].ppp packetDropIncorrectlyReceived:vector(packetBytes):endtime nan
scalar ClientServer.client1.ppp[0].ppp packetDropInterfaceDown:vector(packetBytes):count 0
scalar ClientServer.client1.ppp[0].ppp packetDropInterfaceDown:vector(packetBytes):sum 0
scalar ClientServer.client1.ppp[0].ppp packetDropInterfaceDown:vector(packetBytes):sumweights 0
scalar ClientServer.client1.ppp[0].ppp packetDropInterfaceDown:vector(packetBytes):mean -nan
scalar ClientServer.client1.ppp[0].ppp packetDropInterfaceDown:vector(packetBytes):stddev nan
scalar ClientServer.client1.ppp[0].ppp packetDropInterfaceDown:vector(packetBytes):min inf
scalar ClientServer.client1.ppp[0].ppp packetDropInterfaceDown:vector(packetBytes):max -inf
scalar ClientServer.client1.ppp[0].ppp packetDropInterfaceDown:vector(packetBytes):starttime nan
scalar ClientServer.client1.ppp[0].ppp packetDropInterfaceDown:vector(packetBytes):endtime nan
scalar ClientServer.client1.ppp[0].ppp rcvdPkFromHl:vector(packetBytes):count 5680
scalar ClientServer.client1.ppp[0].ppp rcvdPkFromHl:vector(packetBytes):sum 1227204
scalar ClientServer.client1.ppp[0].ppp rcvdPkFromHl:vector(packetBytes):sumweights 5680
scalar ClientServer.client1.ppp[0].ppp rcvdPkFromHl:vector(packetBytes):mean 216.05704225352
scalar ClientServer.client1.ppp[0].ppp rcvdPkFromHl:vector(packetBytes):stddev 246.41059705634
scalar ClientServer.client1.ppp[0].ppp rcvdPkFromHl:vector(packetBytes):min 40
scalar ClientServer.client1.ppp[0].ppp rcvdPkFromHl:vector(packetBytes):max 576
scalar ClientServer.client1.ppp[0].ppp rcvdPkFromHl:vector(packetBytes):starttime 0.2
scalar ClientServer.client1.ppp[0].ppp rcvdPkFromHl:vector(packetBytes):endtime 25.000113
scalar ClientServer.client1.ppp[0].ppp passedUpPk:vector(packetBytes):count 5682
scalar ClientServer.client1.ppp[0].ppp passedUpPk:vector(packetBytes):sum 2227284
scalar ClientServer.client1.ppp[0].ppp passedUpPk:vector(packetBytes):sumweights 5682
scalar ClientServer.client1.ppp[0].ppp passedUpPk:vector(packetBytes):mean 391.98944033791
scalar ClientServer.client1.ppp[0].ppp passedUpPk:vector(packetBytes):stddev 254.49832935019
scalar ClientServer.client1.ppp[0].ppp passedUpPk:vector(packetBytes):min 40
scalar ClientServer.client1.ppp[0].ppp passedUpPk:vector(packetBytes):max 576
scalar ClientServer.client1.ppp[0].ppp passedUpPk:vector(packetBytes):starttime 0.2000818
scalar ClientServer.client1.ppp[0].ppp passedUpPk:vector(packetBytes):endtime 25.000113
scalar ClientServer.client1.ppp[0] packetDropInterfaceDown:vector(packetBytes):count 0
scalar ClientServer.client1.ppp[0] packetDropInterfaceDown:vector(packetBytes):sum 0
scalar ClientServer.client1.ppp[0] packetDropInterfaceDown:vector(packetBytes):sumweights 0
scalar ClientServer.client1.ppp[0] packetDropInterfaceDown:vector(packetBytes):mean -nan
scalar ClientServer.client1.ppp[0] packetDropInterfaceDown:vector(packetBytes):stddev nan
scalar ClientServer.client1.ppp[0] packetDropInterfaceDown:vector(packetBytes):min inf
scalar ClientServer.client1.ppp[0] packetDropInterfaceDown:vector(packetBytes):max -inf
scalar ClientServer.client1.ppp[0] packetDropInterfaceDown:vector(packetBytes):starttime nan
scalar ClientServer.client1.ppp[0] packetDropInterfaceDown:vector(packetBytes):endtime nan
scalar ClientServer.client1.ppp[0] packetDropNoCarrier:vector(packetBytes):count 0
scalar ClientServer.client1.ppp[0] packetDropNoCarrier:vector(packetBytes):sum 0
scalar ClientServer.client1.ppp[0] packetDropNoCarrier:vector(packetBytes):sumweights 0
scalar ClientServer.client1.ppp[0] packetDropNoCarrier:vector(packetBytes):mean -nan
scalar ClientServer.client1.ppp[0] packetDropNoCarrier:vector(packetBytes):stddev nan
scalar ClientServer.client1.ppp[0] packetDropNoCarrier:vector(packetBytes):min inf
scalar ClientServer.client1.ppp[0] packetDropNoCarrier:vector(packetBytes):max -inf
scalar ClientServer.client1.ppp[0] packetDropNoCarrier:vector(packetBytes):starttime nan
scalar ClientServer.client1.ppp[0] packetDropNoCarrier:vector(packetBytes):endtime nan
scalar ClientServer.client1.ipv4.ip packetDropAddressResolutionFailed:vector(packetBytes):count 0
scalar ClientServer.client1.ipv4.ip packetDropAddressResolutionFailed:vector(packetBytes):sum 0
scalar ClientServer.client1.ipv4.ip packetDropAddressResolutionFailed:vector(packetBytes):sumweights 0
scalar ClientServer.client1.ipv4.ip packetDropAddressResolutionFailed:vector(packetBytes):mean -nan
scalar ClientServer.client1.ipv4.ip packetDropAddressResolutionFailed:vector(packetBytes):stddev nan
scalar ClientServer.client1.ipv4.ip packetDropAddressResolutionFailed:vector(packetBytes):min inf
scalar ClientServer.client1.ipv4.ip packetDropAddressResolutionFailed:vector(packetBytes):max -inf
scalar ClientServer.client1.ipv4.ip packetDropAddressResolutionFailed:vector(packetBytes):starttime nan
scalar ClientServer.client1.ipv4.ip packetDropAddressResolutionFailed:vector(packetBytes):endtime nan
scalar ClientServer.client1.ipv4.ip packetDropHopLimitReached:vector(packetBytes):count 0
scalar ClientServer.client1.ipv4.ip packetDropHopLimitReached:vector(packetBytes):sum 0
scalar ClientServer.client1.ipv4.ip packetDropHopLimitReached:vector(packetBytes):sumweights 0
scalar ClientServer.client1.ipv4.ip packetDropHopLimitReached:vector(packetBytes):mean -nan
scalar ClientServer.client1.ipv4.ip packetDropHopLimitReached:vector(packetBytes):stddev nan
scalar ClientServer.client1.ipv4.ip packetDropHopLimitReached:vector(packetBytes):min inf
scalar ClientServer.client1.ipv4.ip packetDropHopLimitReached:vector(packetBytes):max -inf
scalar ClientServer.client1.ipv4.ip packetDropHopLimitReached:vector(packetBytes):starttime nan
scalar ClientServer.client1.ipv4.ip packetDropHopLimitReached:vector(packetBytes):endtime nan
scalar ClientServer.client1.ipv4.ip packetDropForwardingDisabled:vector(packetBytes):count 0
scalar ClientServer.client1.ipv4.ip packetDropForwardingDisabled:vector(packetBytes):sum 0
scalar ClientServer.client1.ipv4.ip packetDropForwardingDisabled:vector(packetBytes):sumweights 0
scalar ClientServer.client1.ipv4.ip packetDropForwardingDisabled:vector(packetBytes):mean -nan
scalar ClientServer.client1.ipv4.ip packetDropForwardingDisabled:vector(packetBytes):stddev nan
scalar ClientServer.client1.ipv4.ip packetDropForwardingDisabled:vector(packetBytes):min inf
scalar ClientServer.client1.ipv4.ip packetDropForwardingDisabled:vector(packetBytes):max -inf
scalar ClientServer.client1.ipv4.ip packetDropForwardingDisabled:vector(packetBytes):starttime nan
scalar ClientServer.client1.ipv4.ip packetDropForwardingDisabled:vector(packetBytes):endtime nan
scalar ClientServer.client1.ipv4.ip packetDropLifetimeExpired:vector(packetBytes):count 0
scalar ClientServer.client1.ipv4.ip packetDropLifetimeExpired:vector(packetBytes):sum 0
scalar ClientServer.client1.ipv4.ip packetDropLifetimeExpired:vector(packetBytes):sumweights 0
scalar ClientServer.client1.ipv4.ip packetDropLifetimeExpired:vector(packetBytes):mean -nan
scalar ClientServer.client1.ipv4.ip packetDropLifetimeExpired:vector(packetBytes):stddev nan
scalar ClientServer.client1.ipv4.ip packetDropLifetimeExpired:vector(packetBytes):min inf
scalar ClientServer.client1.ipv4.ip packetDropLifetimeExpired:vector(packetBytes):max -inf
scalar ClientServer.client1.ipv4.ip packetDropLifetimeExpired:vector(packetBytes):starttime nan
scalar ClientServer.client1.ipv4.ip packetDropLifetimeExpired:vector(packetBytes):endtime nan
scalar ClientServer.client1.ipv4.ip packetDropNoInterfaceFound:vector(packetBytes):count 0
scalar ClientServer.client1.ipv4.ip packetDropNoInterfaceFound:vector(packetBytes):sum 0
scalar ClientServer.client1.ipv4.ip packetDropNoInterfaceFound:vector(packetBytes):sumweights 0
scalar ClientServer.client1.ipv4.ip packetDropNoInterfaceFound:vector(packetBytes):mean -nan
scalar ClientServer.client1.ipv4.ip packetDropNoInterfaceFound:vector(packetBytes):stddev nan
scalar ClientServer.client1.ipv4.ip packetDropNoInterfaceFound:vector(packetBytes):min inf
scalar ClientServer.client1.ipv4.ip packetDropNoInterfaceFound:vector(packetBytes):max -inf
scalar ClientServer.client1.ipv4.ip packetDropNoInterfaceFound:vector(packetBytes):starttime nan
scalar ClientServer.client1.ipv4.ip packetDropNoInterfaceFound:vector(packetBytes):endtime nan
scalar ClientServer.client1.ipv4.ip packetDropNoRouteFound:vector(packetBytes):count 0
scalar ClientServer.client1.ipv4.ip packetDropNoRouteFound:vector(packetBytes):sum 0
scalar ClientServer.client1.ipv4.ip packetDropNoRouteFound:vector(packetBytes):sumweights 0
scalar ClientServer.client1.ipv4.ip packetDropNoRouteFound:vector(packetBytes):mean -nan
scalar ClientServer.client1.ipv4.ip packetDropNoRouteFound:vector(packetBytes):stddev nan
scalar ClientServer.client1.ipv4.ip packetDropNoRouteFound:vector(packetBytes):min inf
scalar ClientServer.client1.ipv4.ip packetDropNoRouteFound:vector(packetBytes):max -inf
scalar ClientServer.client1.ipv4.ip packetDropNoRouteFound:vector(packetBytes):starttime nan
scalar ClientServer.client1.ipv4.ip packetDropNoRouteFound:vector(packetBytes):endtime nan
scalar ClientServer.client1.ipv4.ip packetDropUndefined:vector(packetBytes):count 0
scalar ClientServer.client1.ipv4.ip packetDropUndefined:vector(packetBytes):sum 0
scalar ClientServer.client1.ipv4.ip packetDropUndefined:vector(packetBytes):sumweights 0
scalar ClientServer.client1.ipv4.ip packetDropUndefined:vector(packetBytes):mean -nan
scalar ClientServer.client1.ipv4.ip packetDropUndefined:vector(packetBytes):stddev nan
scalar ClientServer.client1.ipv4.ip packetDropUndefined:vector(packetBytes):min inf
scalar ClientServer.client1.ipv4.ip packetDropUndefined:vector(packetBytes):max -inf
scalar ClientServer.client1.ipv4.ip packetDropUndefined:vector(packetBytes):starttime nan
scalar ClientServer.client1.ipv4.ip packetDropUndefined:vector(packetBytes):endtime nan
scalar ClientServer.client1.ipv4.arp arpRequestSent:vector(packetBytes):count 0
scalar ClientServer.client1.ipv4.arp arpRequestSent:vector(packetBytes):sum 0
scalar ClientServer.client1.ipv4.arp arpRequestSent:vector(packetBytes):sumweights 0
scalar ClientServer.client1.ipv4.arp arpRequestSent:vector(packetBytes):mean -nan
scalar ClientServer.client1.ipv4.arp arpRequestSent:vector(packetBytes):stddev nan
scalar ClientServer.client1.ipv4.arp arpRequestSent:vector(packetBytes):min inf
scalar ClientServer.client1.ipv4.arp arpRequestSent:vector(packetBytes):max -inf
scalar ClientServer.client1.ipv4.arp arpRequestSent:vector(packetBytes):starttime nan
scalar ClientServer.client1.ipv4.arp arpRequestSent:vector(packetBytes):endtime nan
scalar ClientServer.client1.ipv4.arp arpReplySent:vector(packetBytes):count 0
scalar ClientServer.client1.ipv4.arp arpReplySent:vector(packetBytes):sum 0
scalar ClientServer.client1.ipv4.arp arpReplySent:vector(packetBytes):sumweights 0
scalar ClientServer.client1.ipv4.arp arpReplySent:vector(packetBytes):mean -nan
scalar ClientServer.client1.ipv4.arp arpReplySent:vector(packetBytes):stddev nan
scalar ClientServer.client1.ipv4.arp arpReplySent:vector(packetBytes):min inf
scalar ClientServer.client1.ipv4.arp arpReplySent:vector(packetBytes):max -inf
scalar ClientServer.client1.ipv4.arp arpReplySent:vector(packetBytes):starttime nan
scalar ClientServer.client1.ipv4.arp arpReplySent:vector(packetBytes):endtime nan
scalar ClientServer.client1.udp packetSent:vector(packetBytes):count 0
scalar ClientServer.client1.udp packetSent:vector(packetBytes):sum 0
scalar ClientServer.client1.udp packetSent:vector(packetBytes):sumweights 0
scalar ClientServer.client1.udp packetSent:vector(packetBytes):mean -nan
scalar ClientServer.client1.udp packetSent:vector(packetBytes):stddev nan
scalar ClientServer.client1.udp packetSent:vector(packetBytes):min inf
scalar ClientServer.client1.udp packetSent:vector(packetBytes):max -inf
scalar ClientServer.client1.udp packetSent:vector(packetBytes):starttime nan
scalar ClientServer.client1.udp packetSent:vector(packetBytes):endtime nan
scalar ClientServer.client1.udp packetReceived:vector(packetBytes):count 0
scalar ClientServer.client1.udp packetReceived:vector(packetBytes):sum 0
scalar ClientServer.client1.udp packetReceived:vector(packetBytes):sumweights 0
scalar ClientServer.client1.udp packetReceived:vector(packetBytes):mean -nan
scalar ClientServer.client1.udp packetReceived:vector(packetBytes):stddev nan
scalar ClientServer.client1.udp packetReceived:vector(packetBytes):min inf
scalar ClientServer.client1.udp packetReceived:vector(packetBytes):max -inf
scalar ClientServer.client1.udp packetReceived:vector(packetBytes):starttime nan
scalar ClientServer.client1.udp packetReceived:vector(packetBytes):endtime nan
scalar ClientServer.client1.udp passedUpPk:vector(count):count 1
scalar ClientServer.client1.udp passedUpPk:vector(count):sum 0
scalar ClientServer.client1.udp passedUpPk:vector(count):sumweights 1
scalar ClientServer.client1.udp passedUpPk:vector(count):mean 0
scalar ClientServer.client1.udp passedUpPk:vector(count):stddev nan
scalar ClientServer.client1.udp passedUpPk:vector(count):min 0
scalar ClientServer.client1.udp passedUpPk:vector(count):max 0
scalar ClientServer.client1.udp passedUpPk:vector(count):starttime 0
scalar ClientServer.client1.udp passedUpPk:vector(count):endtime 0
scalar ClientServer.client1.udp droppedPkWrongPort:vector(count):count 1
scalar ClientServer.client1.udp droppedPkWrongPort:vector(count):sum 0
scalar ClientServer.client1.udp droppedPkWrongPort:vector(count):sumweights 1
scalar ClientServer.client1.udp droppedPkWrongPort:vector(count):mean 0
scalar ClientServer.client1.udp droppedPkWrongPort:vector(count):stddev nan
scalar ClientServer.client1.udp droppedPkWrongPort:vector(count):min 0
scalar ClientServer.client1.udp droppedPkWrongPort:vector(count):max 0
scalar ClientServer.client1.udp droppedPkWrongPort:vector(count):starttime 0
scalar ClientServer.client1.udp droppedPkWrongPort:vector(count):endtime 0
scalar ClientServer.client1.udp droppedPkBadChecksum:vector(count):count 1
scalar ClientServer.client1.udp droppedPkBadChecksum:vector(count):sum 0
scalar ClientServer.client1.udp droppedPkBadChecksum:vector(count):sumweights 1
scalar ClientServer.client1.udp droppedPkBadChecksum:vector(count):mean 0
scalar ClientServer.client1.udp droppedPkBadChecksum:vector(count):stddev nan
scalar ClientServer.client1.udp droppedPkBadChecksum:vector(count):min 0
scalar ClientServer.client1.udp droppedPkBadChecksum:vector(count):max 0
scalar ClientServer.client1.udp droppedPkBadChecksum:vector(count):starttime 0
scalar ClientServer.client1.udp droppedPkBadChecksum:vector(count):endtime 0
scalar ClientServer.client1.app[0] packetReceived:vector(packetBytes):count 3732
scalar ClientServer.client1.app[0] packetReceived:vector(packetBytes):sum 2000000
scalar ClientServer.client1.app[0] packetReceived:vector(packetBytes):sumweights 3732
scalar ClientServer.client1.app[0] packetReceived:vector(packetBytes):mean 535.90568060021
scalar ClientServer.client1.app[0] packetReceived:vector(packetBytes):stddev 5.7619813193505
scalar ClientServer.client1.app[0] packetReceived:vector(packetBytes):min 184
scalar ClientServer.client1.app[0] packetReceived:vector(packetBytes):max 536
scalar ClientServer.client1.app[0] packetReceived:vector(packetBytes):starttime 0.5009706
scalar ClientServer.client1.app[0] packetReceived:vector(packetBytes):endtime 2.526191
scalar ClientServer.client1.app[0] packetSent:vector(packetBytes):count 1
scalar ClientServer.client1.app[0] packetSent:vector(packetBytes):sum 1000000
scalar ClientServer.client1.app[0] packetSent:vector(packetBytes):sumweights 1
scalar ClientServer.client1.app[0] packetSent:vector(packetBytes):mean 1000000
scalar ClientServer.client1.app[0] packetSent:vector(packetBytes):stddev nan
scalar ClientServer.client1.app[0] packetSent:vector(packetBytes):min 1000000
scalar ClientServer.client1.app[0] packetSent:vector(packetBytes):max 1000000
scalar ClientServer.client1.app[0] packetSent:vector(packetBytes):starttime 0.4
scalar ClientServer.client1.app[0] packetSent:vector(packetBytes):endtime 0.4
scalar ClientServer.client1.app[0] endToEndDelay:vector:count 0
scalar ClientServer.client1.app[0] endToEndDelay:vector:sum 0
scalar ClientServer.client1.app[0] endToEndDelay:vector:sumweights 0
scalar ClientServer.client1.app[0] endToEndDelay:vector:mean -nan
scalar ClientServer.client1.app[0] endToEndDelay:vector:stddev nan
scalar ClientServer.client1.app[0] endToEndDelay:vector:min inf
scalar ClientServer.client1.app[0] endToEndDelay:vector:max -inf
scalar ClientServer.client1.app[0] endToEndDelay:vector:starttime nan
scalar ClientServer.client1.app[0] endToEndDelay:vector:endtime nan
scalar ClientServer.server.lo[0].lo rcvdPkFromHl:vector(packetBytes):count 0
scalar ClientServer.server.lo[0].lo rcvdPkFromHl:vector(packetBytes):sum 0
scalar ClientServer.server.lo[0].lo rcvdPkFromHl:vector(packetBytes):sumweights 0
scalar ClientServer.server.lo[0].lo rcvdPkFromHl:vector(packetBytes):mean -nan
scalar ClientServer.server.lo[0].lo rcvdPkFromHl:vector(packetBytes):stddev nan
scalar ClientServer.server.lo[0].lo rcvdPkFromHl:vector(packetBytes):min inf
scalar ClientServer.server.lo[0].lo rcvdPkFromHl:vector(packetBytes):max -inf
scalar ClientServer.server.lo[0].lo rcvdPkFromHl:vector(packetBytes):starttime nan
scalar ClientServer.server.lo[0].lo rcvdPkFromHl:vector(packetBytes):endtime nan
scalar ClientServer.server.lo[0].lo passedUpPk:vector(packetBytes):count 0
scalar ClientServer.server.lo[0].lo passedUpPk:vector(packetBytes):sum 0
scalar ClientServer.server.lo[0].lo passedUpPk:vector(packetBytes):sumweights 0
scalar ClientServer.server.lo[0].lo passedUpPk:vector(packetBytes):mean -nan
scalar ClientServer.server.lo[0].lo passedUpPk:vector(packetBytes):stddev nan
scalar ClientServer.server.lo[0].lo passedUpPk:vector(packetBytes):min inf
scalar ClientServer.server.lo[0].lo passedUpPk:vector(packetBytes):max -inf
scalar ClientServer.server.lo[0].lo passedUpPk:vector(packetBytes):starttime nan
scalar ClientServer.server.lo[0].lo passedUpPk:vector(packetBytes):endtime nan
scalar ClientServer.server.lo[0] packetDropInterfaceDown:vector(packetBytes):count 0
scalar ClientServer.server.lo[0] packetDropInterfaceDown:vector(packetBytes):sum 0
scalar ClientServer.server.lo[0] packetDropInterfaceDown:vector(packetBytes):sumweights 0
scalar ClientServer.server.lo[0] packetDropInterfaceDown:vector(packetBytes):mean -nan
scalar ClientServer.server.lo[0] packetDropInterfaceDown:vector(packetBytes):stddev nan
scalar ClientServer.server.lo[0] packetDropInterfaceDown:vector(packetBytes):min inf
scalar ClientServer.server.lo[0] packetDropInterfaceDown:vector(packetBytes):max -inf
scalar ClientServer.server.lo[0] packetDropInterfaceDown:vector(packetBytes):starttime nan
scalar ClientServer.server.lo[0] packetDropInterfaceDown:vector(packetBytes):endtime nan
scalar ClientServer.server.lo[0] packetDropNoCarrier:vector(packetBytes):count 0
scalar ClientServer.server.lo[0] packetDropNoCarrier:vector(packetBytes):sum 0
scalar ClientServer.server.lo[0] packetDropNoCarrier:vector(packetBytes):sumweights 0
scalar ClientServer.server.lo[0] packetDropNoCarrier:vector(packetBytes):mean -nan
scalar ClientServer.server.lo[0] packetDropNoCarrier:vector(packetBytes):stddev nan
scalar ClientServer.server.lo[0] packetDropNoCarrier:vector(packetBytes):min inf
scalar ClientServer.server.lo[0] packetDropNoCarrier:vector(packetBytes):max -inf
scalar ClientServer.server.lo[0] packetDropNoCarrier:vector(packetBytes):starttime nan
scalar ClientServer.server.lo[0] packetDropNoCarrier:vector(packetBytes):endtime nan
scalar ClientServer.server.ppp[0].queue queueLength:vector:count 10327
scalar ClientServer.server.ppp[0].queue queueLength:vector:sum 22338
scalar ClientServer.server.ppp[0].queue queueLength:vector:sumweights 10327
scalar ClientServer.server.ppp[0].queue queueLength:vector:mean 2.1630676866467
scalar ClientServer.server.ppp[0].queue queueLength:vector:stddev 1.0955420917917
scalar ClientServer.server.ppp[0].queue queueLength:vector:min 0
scalar ClientServer.server.ppp[0].queue queueLength:vector:max 4
scalar ClientServer.server.ppp[0].queue queueLength:vector:starttime 0
scalar ClientServer.server.ppp[0].queue queueLength:vector:endtime 25.0000753
scalar ClientServer.server.ppp[0].queue queueBitLength:vector:count 10327
scalar ClientServer.server.ppp[0].queue queueBitLength:vector:sum 76973952
scalar ClientServer.server.ppp[0].queue queueBitLength:vector:sumweights 10327
scalar ClientServer.server.ppp[0].queue queueBitLength:vector:mean 7453.6605015978
scalar ClientServer.server.ppp[0].queue queueBitLength:vector:stddev 5220.6882730466
scalar ClientServer.server.ppp[0].queue queueBitLength:vector:min 0
scalar ClientServer.server.ppp[0].queue queueBitLength:vector:max 14144
scalar ClientServer.server.ppp[0].queue queueBitLength:vector:starttime 0
scalar ClientServer.server.ppp[0].queue queueBitLength:vector:endtime 25.0000753
scalar ClientServer.server.ppp[0].queue queueingTime:vector:count 5682
scalar ClientServer.server.ppp[0].queue queueingTime:vector:sum 5.0654360000002
scalar ClientServer.server.ppp[0].queue queueingTime:vector:sumweights 5682
scalar ClientServer.server.ppp[0].queue queueingTime:vector:mean 0.00089148820837737
scalar ClientServer.server.ppp[0].queue queueingTime:vector:stddev 0.00054992966356195
scalar ClientServer.server.ppp[0].queue queueingTime:vector:min 0
scalar ClientServer.server.ppp[0].queue queueingTime:vector:max 0.00144
scalar ClientServer.server.ppp[0].queue queueingTime:vector:starttime 0.2000409
scalar ClientServer.server.ppp[0].queue queueingTime:vector:endtime 25.0000753
scalar ClientServer.server.ppp[0].queue incomingPacketLengths:vector:count 5682
scalar ClientServer.server.ppp[0].queue incomingPacketLengths:vector:sum 17818272
scalar ClientServer.server.ppp[0].queue incomingPacketLengths:vector:sumweights 5682
scalar ClientServer.server.ppp[0].queue incomingPacketLengths:vector:mean 3135.9155227033
scalar ClientServer.server.ppp[0].queue incomingPacketLengths:vector:stddev 2035.9866348015
scalar ClientServer.server.ppp[0].queue incomingPacketLengths:vector:min 320
scalar ClientServer.server.ppp[0].queue incomingPacketLengths:vector:max 4608
scalar ClientServer.server.ppp[0].queue incomingPacketLengths:vector:starttime 0.2000409
scalar ClientServer.server.ppp[0].queue incomingPacketLengths:vector:endtime 25.0000377
scalar ClientServer.server.ppp[0].queue incomingDataRate:vector:count 1037
scalar ClientServer.server.ppp[0].queue incomingDataRate:vector:sum 478766471.62365
scalar ClientServer.server.ppp[0].queue incomingDataRate:vector:sumweights 1037
scalar ClientServer.server.ppp[0].queue incomingDataRate:vector:mean 461684.15778558
scalar ClientServer.server.ppp[0].queue incomingDataRate:vector:stddev 1941645.5081086
scalar ClientServer.server.ppp[0].queue incomingDataRate:vector:min 0
scalar ClientServer.server.ppp[0].queue incomingDataRate:vector:max 10044631.386618
scalar ClientServer.server.ppp[0].queue incomingDataRate:vector:starttime 0.1
scalar ClientServer.server.ppp[0].queue incomingDataRate:vector:endtime 100
scalar ClientServer.server.ppp[0].queue outgoingPacketLengths:vector:count 5682
scalar ClientServer.server.ppp[0].queue outgoingPacketLengths:vector:sum 17818272
scalar ClientServer.server.ppp[0].queue outgoingPacketLengths:vector:sumweights 5682
scalar ClientServer.server.ppp[0].queue outgoingPacketLengths:vector:mean 3135.9155227033
scalar ClientServer.server.ppp[0].queue outgoingPacketLengths:vector:stddev 2035.9866348015
scalar ClientServer.server.ppp[0].queue outgoingPacketLengths:vector:min 320
scalar ClientServer.server.ppp[0].queue outgoingPacketLengths:vector:max 4608
scalar ClientServer.server.ppp[0].queue outgoingPacketLengths:vector:starttime 0.2000409
scalar ClientServer.server.ppp[0].queue outgoingPacketLengths:vector:endtime 25.0000753
scalar ClientServer.server.ppp[0].queue outgoingDataRate:vector:count 1037
scalar ClientServer.server.ppp[0].queue outgoingDataRate:vector:sum 478249631.66052
scalar ClientServer.server.ppp[0].queue outgoingDataRate:vector:sumweights 1037
scalar ClientServer.server.ppp[0].queue outgoingDataRate:vector:mean 461185.75859259
scalar ClientServer.server.ppp[0].queue outgoingDataRate:vector:stddev 1938738.5695584
scalar ClientServer.server.ppp[0].queue outgoingDataRate:vector:min 0
scalar ClientServer.server.ppp[0].queue outgoingDataRate:vector:max 9879931.3893654
scalar ClientServer.server.ppp[0].queue outgoingDataRate:vector:starttime 0.1
scalar ClientServer.server.ppp[0].queue outgoingDataRate:vector:endtime 100
scalar ClientServer.server.ppp[0].queue droppedPacketLengthsQueueOverflow:vector:count 0
scalar ClientServer.server.ppp[0].queue droppedPacketLengthsQueueOverflow:vector:sum 0
scalar ClientServer.server.ppp[0].queue droppedPacketLengthsQueueOverflow:vector:sumweights 0
scalar ClientServer.server.ppp[0].queue droppedPacketLengthsQueueOverflow:vector:mean -nan
scalar ClientServer.server.ppp[0].queue droppedPacketLengthsQueueOverflow:vector:stddev nan
scalar ClientServer.server.ppp[0].queue droppedPacketLengthsQueueOverflow:vector:min inf
scalar ClientServer.server.ppp[0].queue droppedPacketLengthsQueueOverflow:vector:max -inf
scalar ClientServer.server.ppp[0].queue droppedPacketLengthsQueueOverflow:vector:starttime nan
scalar ClientServer.server.ppp[0].queue droppedPacketLengthsQueueOverflow:vector:endtime nan
scalar ClientServer.server.ppp[0].queue flowQueueingTime:vector:count 0
scalar ClientServer.server.ppp[0].queue flowQueueingTime:vector:sum 0
scalar ClientServer.server.ppp[0].queue flowQueueingTime:vector:sumweights 0
scalar ClientServer.server.ppp[0].queue flowQueueingTime:vector:mean -nan
scalar ClientServer.server.ppp[0].queue flowQueueingTime:vector:stddev nan
scalar ClientServer.server.ppp[0].queue flowQueueingTime:vector:min inf
scalar ClientServer.server.ppp[0].queue flowQueueingTime:vector:max -inf
scalar ClientServer.server.ppp[0].queue flowQueueingTime:vector:starttime nan
scalar ClientServer.server.ppp[0].queue flowQueueingTime:vector:endtime nan
scalar ClientServer.server.ppp[0].queue flowIncomingDataRate:vector:count 1000
scalar ClientServer.server.ppp[0].queue flowIncomingDataRate:vector:sum 0
scalar ClientServer.server.ppp[0].queue flowIncomingDataRate:vector:sumweights 1000
scalar ClientServer.server.ppp[0].queue flowIncomingDataRate:vector:mean 0
scalar ClientServer.server.ppp[0].queue flowIncomingDataRate:vector:stddev 0
scalar ClientServer.server.ppp[0].queue flowIncomingDataRate:vector:min 0
scalar ClientServer.server.ppp[0].queue flowIncomingDataRate:vector:max 0
scalar ClientServer.server.ppp[0].queue flowIncomingDataRate:vector:starttime 0.1
scalar ClientServer.server.ppp[0].queue flowIncomingDataRate:vector:endtime 100
scalar ClientServer.server.ppp[0].queue flowOutgoingDataRate:vector:count 1000
scalar ClientServer.server.ppp[0].queue flowOutgoingDataRate:vector:sum 0
scalar ClientServer.server.ppp[0].queue flowOutgoingDataRate:vector:sumweights 1000
scalar ClientServer.server.ppp[0].queue flowOutgoingDataRate:vector:mean 0
scalar ClientServer.server.ppp[0].queue flowOutgoingDataRate:vector:stddev 0
scalar ClientServer.server.ppp[0].queue flowOutgoingDataRate:vector:min 0
scalar ClientServer.server.ppp[0].queue flowOutgoingDataRate:vector:max 0
scalar ClientServer.server.ppp[0].queue flowOutgoingDataRate:vector:starttime 0.1
scalar ClientServer.server.ppp[0].queue flowOutgoingDataRate:vector:endtime 100
scalar ClientServer.server.ppp[0].ppp transmissionState:vector:count 11365
scalar ClientServer.server.ppp[0].ppp transmissionState:vector:sum 5682
scalar ClientServer.server.ppp[0].ppp transmissionState:vector:sumweights 11365
scalar ClientServer.server.ppp[0].ppp transmissionState:vector:mean 0.49995600527937
scalar ClientServer.server.ppp[0].ppp transmissionState:vector:stddev 0.50002199687645
scalar ClientServer.server.ppp[0].ppp transmissionState:vector:min 0
scalar ClientServer.server.ppp[0].ppp transmissionState:vector:max 1
scalar ClientServer.server.ppp[0].ppp transmissionState:vector:starttime 0
scalar ClientServer.server.ppp[0].ppp transmissionState:vector:endtime 25.0001129
scalar ClientServer.server.ppp[0].ppp txPk:vector(packetBytes):count 5682
scalar ClientServer.server.ppp[0].ppp txPk:vector(packetBytes):sum 2267058
scalar ClientServer.server.ppp[0].ppp txPk:vector(packetBytes):sumweights 5682
scalar ClientServer.server.ppp[0].ppp txPk:vector(packetBytes):mean 398.98944033791
scalar ClientServer.server.ppp[0].ppp txPk:vector(packetBytes):stddev 254.49832935019
scalar ClientServer.server.ppp[0].ppp txPk:vector(packetBytes):min 47
scalar ClientServer.server.ppp[0].ppp txPk:vector(packetBytes):max 583
scalar ClientServer.server.ppp[0].ppp txPk:vector(packetBytes):starttime 0.2000409
scalar ClientServer.server.ppp[0].ppp txPk:vector(packetBytes):endtime 25.0000753
scalar ClientServer.server.ppp[0].ppp rxPkOk:vector(packetBytes):count 5680
scalar ClientServer.server.ppp[0].ppp rxPkOk:vector(packetBytes):sum 1266964
scalar ClientServer.server.ppp[0].ppp rxPkOk:vector(packetBytes):sumweights 5680
scalar ClientServer.server.ppp[0].ppp rxPkOk:vector(packetBytes):mean 223.05704225352
scalar ClientServer.server.ppp[0].ppp rxPkOk:vector(packetBytes):stddev 246.41059705634
scalar ClientServer.server.ppp[0].ppp rxPkOk:vector(packetBytes):min 47
scalar ClientServer.server.ppp[0].ppp rxPkOk:vector(packetBytes):max 583
scalar ClientServer.server.ppp[0].ppp rxPkOk:vector(packetBytes):starttime 0.2000409
scalar ClientServer.server.ppp[0].ppp rxPkOk:vector(packetBytes):endtime 25.0001507
scalar ClientServer.server.ppp[0].ppp packetDropIncorrectlyReceived:vector(packetBytes):count 0
scalar ClientServer.server.ppp[0].ppp packetDropIncorrectlyReceived:vector(packetBytes):sum 0
scalar ClientServer.server.ppp[0].ppp packetDropIncorrectlyReceived:vector(packetBytes):sumweights 0
scalar ClientServer.server.ppp[0].ppp packetDropIncorrectlyReceived:vector(packetBytes):mean -nan
scalar ClientServer.server.ppp[0].ppp packetDropIncorrectlyReceived:vector(packetBytes):stddev nan
scalar ClientServer.server.ppp[0].ppp packetDropIncorrectlyReceived:vector(packetBytes):min inf
scalar ClientServer.server.ppp[0].ppp packetDropIncorrectlyReceived:vector(packetBytes):max -inf
scalar ClientServer.server.ppp[0].ppp packetDropIncorrectlyReceived:vector(packetBytes):starttime nan
scalar ClientServer.server.ppp[0].ppp packetDropIncorrectlyReceived:vector(packetBytes):endtime nan
scalar ClientServer.server.ppp[0].ppp packetDropInterfaceDown:vector(packetBytes):count 0
scalar ClientServer.server.ppp[0].ppp packetDropInterfaceDown:vector(packetBytes):sum 0
scalar ClientServer.server.ppp[0].ppp packetDropInterfaceDown:vector(packetBytes):sumweights 0
scalar ClientServer.server.ppp[0].ppp packetDropInterfaceDown:vector(packetBytes):mean -nan
scalar ClientServer.server.ppp[0].ppp packetDropInterfaceDown:vector(packetBytes):stddev nan
scalar ClientServer.server.ppp[0].ppp packetDropInterfaceDown:vector(packetBytes):min inf
scalar ClientServer.server.ppp[0].ppp packetDropInterfaceDown:vector(packetBytes):max -inf
scalar ClientServer.server.ppp[0].ppp packetDropInterfaceDown:vector(packetBytes):starttime nan
scalar ClientServer.server.ppp[0].ppp packetDropInterfaceDown:vector(packetBytes):endtime nan
scalar ClientServer.server.ppp[0].ppp rcvdPkFromHl:vector(packetBytes):count 5682
scalar ClientServer.server.ppp[0].ppp rcvdPkFromHl:vector(packetBytes):sum 2227284
scalar ClientServer.server.ppp[0].ppp rcvdPkFromHl:vector(packetBytes):sumweights 5682
scalar ClientServer.server.ppp[0].ppp rcvdPkFromHl:vector(packetBytes):mean 391.98944033791
scalar ClientServer.server.ppp[0].ppp rcvdPkFromHl:vector(packetBytes):stddev 254.49832935019
scalar ClientServer.server.ppp[0].ppp rcvdPkFromHl:vector(packetBytes):min 40
scalar ClientServer.server.ppp[0].ppp rcvdPkFromHl:vector(packetBytes):max 576
scalar ClientServer.server.ppp[0].ppp rcvdPkFromHl:vector(packetBytes):starttime 0.2000409
scalar ClientServer.server.ppp[0].ppp rcvdPkFromHl:vector(packetBytes):endtime 25.0000753
scalar ClientServer.server.ppp[0].ppp passedUpPk:vector(packetBytes):count 5680
scalar ClientServer.server.ppp[0].ppp passedUpPk:vector(packetBytes):sum 1227204
scalar ClientServer.server.ppp[0].ppp passedUpPk:vector(packetBytes):sumweights 5680
scalar ClientServer.server.ppp[0].ppp passedUpPk:vector(packetBytes):mean 216.05704225352
scalar ClientServer.server.ppp[0].ppp passedUpPk:vector(packetBytes):stddev 246.41059705634
scalar ClientServer.server.ppp[0].ppp passedUpPk:vector(packetBytes):min 40
scalar ClientServer.server.ppp[0].ppp passedUpPk:vector(packetBytes):max 576
scalar ClientServer.server.ppp[0].ppp passedUpPk:vector(packetBytes):starttime 0.2000409
scalar ClientServer.server.ppp[0].ppp passedUpPk:vector(packetBytes):endtime 25.0001507
scalar ClientServer.server.ppp[0] packetDropInterfaceDown:vector(packetBytes):count 0
scalar ClientServer.server.ppp[0] packetDropInterfaceDown:vector(packetBytes):sum 0
scalar ClientServer.server.ppp[0] packetDropInterfaceDown:vector(packetBytes):sumweights 0
scalar ClientServer.server.ppp[0] packetDropInterfaceDown:vector(packetBytes):mean -nan
scalar ClientServer.server.ppp[0] packetDropInterfaceDown:vector(packetBytes):stddev nan
scalar ClientServer.server.ppp[0] packetDropInterfaceDown:vector(packetBytes):min inf
scalar ClientServer.server.ppp[0] packetDropInterfaceDown:vector(packetBytes):max -inf
scalar ClientServer.server.ppp[0] packetDropInterfaceDown:vector(packetBytes):starttime nan
scalar ClientServer.server.ppp[0] packetDropInterfaceDown:vector(packetBytes):endtime nan
scalar ClientServer.server.ppp[0] packetDropNoCarrier:vector(packetBytes):count 0
scalar ClientServer.server.ppp[0] packetDropNoCarrier:vector(packetBytes):sum 0
scalar ClientServer.server.ppp[0] packetDropNoCarrier:vector(packetBytes):sumweights 0
scalar ClientServer.server.ppp[0] packetDropNoCarrier:vector(packetBytes):mean -nan
scalar ClientServer.server.ppp[0] packetDropNoCarrier:vector(packetBytes):stddev nan
scalar ClientServer.server.ppp[0] packetDropNoCarrier:vector(packetBytes):min inf
scalar ClientServer.server.ppp[0] packetDropNoCarrier:vector(packetBytes):max -inf
scalar ClientServer.server.ppp[0] packetDropNoCarrier:vector(packetBytes):starttime nan
scalar ClientServer.server.ppp[0] packetDropNoCarrier:vector(packetBytes):endtime nan
scalar ClientServer.server.ipv4.ip packetDropAddressResolutionFailed:vector(packetBytes):count 0
scalar ClientServer.server.ipv4.ip packetDropAddressResolutionFailed:vector(packetBytes):sum 0
scalar ClientServer.server.ipv4.ip packetDropAddressResolutionFailed:vector(packetBytes):sumweights 0
scalar ClientServer.server.ipv4.ip packetDropAddressResolutionFailed:vector(packetBytes):mean -nan
scalar ClientServer.server.ipv4.ip packetDropAddressResolutionFailed:vector(packetBytes):stddev nan
scalar ClientServer.server.ipv4.ip packetDropAddressResolutionFailed:vector(packetBytes):min inf
scalar ClientServer.server.ipv4.ip packetDropAddressResolutionFailed:vector(packetBytes):max -inf
scalar ClientServer.server.ipv4.ip packetDropAddressResolutionFailed:vector(packetBytes):starttime nan
scalar ClientServer.server.ipv4.ip packetDropAddressResolutionFailed:vector(packetBytes):endtime nan
scalar ClientServer.server.ipv4.ip packetDropHopLimitReached:vector(packetBytes):count 0
scalar ClientServer.server.ipv4.ip packetDropHopLimitReached:vector(packetBytes):sum 0
scalar ClientServer.server.ipv4.ip packetDropHopLimitReached:vector(packetBytes):sumweights 0
scalar ClientServer.server.ipv4.ip packetDropHopLimitReached:vector(packetBytes):mean -nan
scalar ClientServer.server.ipv4.ip packetDropHopLimitReached:vector(packetBytes):stddev nan
scalar ClientServer.server.ipv4.ip packetDropHopLimitReached:vector(packetBytes):min inf
scalar ClientServer.server.ipv4.ip packetDropHopLimitReached:vector(packetBytes):max -inf
scalar ClientServer.server.ipv4.ip packetDropHopLimitReached:vector(packetBytes):starttime nan
scalar ClientServer.server.ipv4.ip packetDropHopLimitReached:vector(packetBytes):endtime nan
scalar ClientServer.server.ipv4.ip packetDropForwardingDisabled:vector(packetBytes):count 0
scalar ClientServer.server.ipv4.ip packetDropForwardingDisabled:vector(packetBytes):sum 0
scalar ClientServer.server.ipv4.ip packetDropForwardingDisabled:vector(packetBytes):sumweights 0
[...]
scalar ClientServer.client1.tcp.conn-4 rcvAck:vector:starttime nan
scalar ClientServer.client1.tcp.conn-4 rcvAck:vector:endtime nan
scalar ClientServer.server.tcp.conn-5 state:vector:count 5
scalar ClientServer.server.tcp.conn-5 state:vector:sum 23
scalar ClientServer.server.tcp.conn-5 state:vector:sumweights 5
scalar ClientServer.server.tcp.conn-5 state:vector:mean 4.6
scalar ClientServer.server.tcp.conn-5 state:vector:stddev 2.3021728866443
scalar ClientServer.server.tcp.conn-5 state:vector:min 1
scalar ClientServer.server.tcp.conn-5 state:vector:max 7
scalar ClientServer.server.tcp.conn-5 state:vector:starttime 0.2000409
scalar ClientServer.server.tcp.conn-5 state:vector:endtime 25.0001507
scalar ClientServer.server.tcp.conn-5 sndWnd:vector:count 3732
scalar ClientServer.server.tcp.conn-5 sndWnd:vector:sum 8001039
scalar ClientServer.server.tcp.conn-5 sndWnd:vector:sumweights 3732
scalar ClientServer.server.tcp.conn-5 sndWnd:vector:mean 2143.9011254019
scalar ClientServer.server.tcp.conn-5 sndWnd:vector:stddev 4.2705512470144
scalar ClientServer.server.tcp.conn-5 sndWnd:vector:min 1959
scalar ClientServer.server.tcp.conn-5 sndWnd:vector:max 2144
scalar ClientServer.server.tcp.conn-5 sndWnd:vector:starttime 0.2000409
scalar ClientServer.server.tcp.conn-5 sndWnd:vector:endtime 25.0001507
scalar ClientServer.server.tcp.conn-5 rcvWnd:vector:count 5682
scalar ClientServer.server.tcp.conn-5 rcvWnd:vector:sum 42636992
scalar ClientServer.server.tcp.conn-5 rcvWnd:vector:sumweights 5682
scalar ClientServer.server.tcp.conn-5 rcvWnd:vector:mean 7503.870468145
scalar ClientServer.server.tcp.conn-5 rcvWnd:vector:stddev 4.880704377912
scalar ClientServer.server.tcp.conn-5 rcvWnd:vector:min 7320
scalar ClientServer.server.tcp.conn-5 rcvWnd:vector:max 7504
scalar ClientServer.server.tcp.conn-5 rcvWnd:vector:starttime 0.2000409
scalar ClientServer.server.tcp.conn-5 rcvWnd:vector:endtime 25.0000377
scalar ClientServer.server.tcp.conn-5 rcvAdv:vector:count 5683
scalar ClientServer.server.tcp.conn-5 rcvAdv:vector:sum 4103335396
scalar ClientServer.server.tcp.conn-5 rcvAdv:vector:sumweights 5683
scalar ClientServer.server.tcp.conn-5 rcvAdv:vector:mean 722036.84603203
scalar ClientServer.server.tcp.conn-5 rcvAdv:vector:stddev 330617.17149754
scalar ClientServer.server.tcp.conn-5 rcvAdv:vector:min 14014
scalar ClientServer.server.tcp.conn-5 rcvAdv:vector:max 1014015
scalar ClientServer.server.tcp.conn-5 rcvAdv:vector:starttime 0.2000409
scalar ClientServer.server.tcp.conn-5 rcvAdv:vector:endtime 25.0000377
scalar ClientServer.server.tcp.conn-5 sndNxt:vector:count 3732
scalar ClientServer.server.tcp.conn-5 sndNxt:vector:sum 3918297708
scalar ClientServer.server.tcp.conn-5 sndNxt:vector:sumweights 3732
scalar ClientServer.server.tcp.conn-5 sndNxt:vector:mean 1049919
scalar ClientServer.server.tcp.conn-5 sndNxt:vector:stddev 577529.24259122
scalar ClientServer.server.tcp.conn-5 sndNxt:vector:min 50011
scalar ClientServer.server.tcp.conn-5 sndNxt:vector:max 2049827
scalar ClientServer.server.tcp.conn-5 sndNxt:vector:starttime 0.5004665
scalar ClientServer.server.tcp.conn-5 sndNxt:vector:endtime 2.5260061
scalar ClientServer.server.tcp.conn-5 sndAck:vector:count 5682
scalar ClientServer.server.tcp.conn-5 sndAck:vector:sum 4060684390
scalar ClientServer.server.tcp.conn-5 sndAck:vector:sumweights 5682
scalar ClientServer.server.tcp.conn-5 sndAck:vector:mean 714657.58359732
scalar ClientServer.server.tcp.conn-5 sndAck:vector:stddev 330512.89569544
scalar ClientServer.server.tcp.conn-5 sndAck:vector:min 6510
scalar ClientServer.server.tcp.conn-5 sndAck:vector:max 1006511
scalar ClientServer.server.tcp.conn-5 sndAck:vector:starttime 0.2000409
scalar ClientServer.server.tcp.conn-5 sndAck:vector:endtime 25.0000377
scalar ClientServer.server.tcp.conn-5 rcvSeq:vector:count 5679
scalar ClientServer.server.tcp.conn-5 rcvSeq:vector:sum 4061973507
scalar ClientServer.server.tcp.conn-5 rcvSeq:vector:sumweights 5679
scalar ClientServer.server.tcp.conn-5 rcvSeq:vector:mean 715262.10723719
scalar ClientServer.server.tcp.conn-5 rcvSeq:vector:stddev 330056.24471468
scalar ClientServer.server.tcp.conn-5 rcvSeq:vector:min 6510
scalar ClientServer.server.tcp.conn-5 rcvSeq:vector:max 1006511
scalar ClientServer.server.tcp.conn-5 rcvSeq:vector:starttime 0.2001195
scalar ClientServer.server.tcp.conn-5 rcvSeq:vector:endtime 25.0001507
scalar ClientServer.server.tcp.conn-5 rcvAck:vector:count 5679
scalar ClientServer.server.tcp.conn-5 rcvAck:vector:sum 4728349750
scalar ClientServer.server.tcp.conn-5 rcvAck:vector:sumweights 5679
scalar ClientServer.server.tcp.conn-5 rcvAck:vector:mean 832602.52685332
scalar ClientServer.server.tcp.conn-5 rcvAck:vector:stddev 571446.37043598
scalar ClientServer.server.tcp.conn-5 rcvAck:vector:min 50011
scalar ClientServer.server.tcp.conn-5 rcvAck:vector:max 2050012
scalar ClientServer.server.tcp.conn-5 rcvAck:vector:starttime 0.2001195
scalar ClientServer.server.tcp.conn-5 rcvAck:vector:endtime 25.0001507
scalar ClientServer.server.tcp.conn-5 unacked:vector:count 7458
scalar ClientServer.server.tcp.conn-5 unacked:vector:sum 13969953
scalar ClientServer.server.tcp.conn-5 unacked:vector:sumweights 7458
scalar ClientServer.server.tcp.conn-5 unacked:vector:mean 1873.1500402253
scalar ClientServer.server.tcp.conn-5 unacked:vector:stddev 276.33350914208
scalar ClientServer.server.tcp.conn-5 unacked:vector:min 0
scalar ClientServer.server.tcp.conn-5 unacked:vector:max 2144
scalar ClientServer.server.tcp.conn-5 unacked:vector:starttime 0.2001195
scalar ClientServer.server.tcp.conn-5 unacked:vector:endtime 25.0001507
scalar ClientServer.server.tcp.conn-5 dupAcks:vector:count 5678
scalar ClientServer.server.tcp.conn-5 dupAcks:vector:sum 0
scalar ClientServer.server.tcp.conn-5 dupAcks:vector:sumweights 5678
scalar ClientServer.server.tcp.conn-5 dupAcks:vector:mean 0
scalar ClientServer.server.tcp.conn-5 dupAcks:vector:stddev 0
scalar ClientServer.server.tcp.conn-5 dupAcks:vector:min 0
scalar ClientServer.server.tcp.conn-5 dupAcks:vector:max 0
scalar ClientServer.server.tcp.conn-5 dupAcks:vector:starttime 0.5004665
scalar ClientServer.server.tcp.conn-5 dupAcks:vector:endtime 25.0001507
scalar ClientServer.server.tcp.conn-5 pipe:vector:count 0
scalar ClientServer.server.tcp.conn-5 pipe:vector:sum 0
scalar ClientServer.server.tcp.conn-5 pipe:vector:sumweights 0
scalar ClientServer.server.tcp.conn-5 pipe:vector:mean -nan
scalar ClientServer.server.tcp.conn-5 pipe:vector:stddev nan
scalar ClientServer.server.tcp.conn-5 pipe:vector:min inf
scalar ClientServer.server.tcp.conn-5 pipe:vector:max -inf
scalar ClientServer.server.tcp.conn-5 pipe:vector:starttime nan
scalar ClientServer.server.tcp.conn-5 pipe:vector:endtime nan
scalar ClientServer.server.tcp.conn-5 sndSacks:vector:count 0
scalar ClientServer.server.tcp.conn-5 sndSacks:vector:sum 0
scalar ClientServer.server.tcp.conn-5 sndSacks:vector:sumweights 0
scalar ClientServer.server.tcp.conn-5 sndSacks:vector:mean -nan
scalar ClientServer.server.tcp.conn-5 sndSacks:vector:stddev nan
scalar ClientServer.server.tcp.conn-5 sndSacks:vector:min inf
scalar ClientServer.server.tcp.conn-5 sndSacks:vector:max -inf
scalar ClientServer.server.tcp.conn-5 sndSacks:vector:starttime nan
scalar ClientServer.server.tcp.conn-5 sndSacks:vector:endtime nan
scalar ClientServer.server.tcp.conn-5 rcvSacks:vector:count 0
scalar ClientServer.server.tcp.conn-5 rcvSacks:vector:sum 0
scalar ClientServer.server.tcp.conn-5 rcvSacks:vector:sumweights 0
scalar ClientServer.server.tcp.conn-5 rcvSacks:vector:mean -nan
scalar ClientServer.server.tcp.conn-5 rcvSacks:vector:stddev nan
scalar ClientServer.server.tcp.conn-5 rcvSacks:vector:min inf
scalar ClientServer.server.tcp.conn-5 rcvSacks:vector:max -inf
scalar ClientServer.server.tcp.conn-5 rcvSacks:vector:starttime nan
scalar ClientServer.server.tcp.conn-5 rcvSacks:vector:endtime nan
scalar ClientServer.server.tcp.conn-5 rcvOooSeg:vector:count 399
scalar ClientServer.server.tcp.conn-5 rcvOooSeg:vector:sum 79800
scalar ClientServer.server.tcp.conn-5 rcvOooSeg:vector:sumweights 399
scalar ClientServer.server.tcp.conn-5 rcvOooSeg:vector:mean 200
scalar ClientServer.server.tcp.conn-5 rcvOooSeg:vector:stddev 115.32562594671
scalar ClientServer.server.tcp.conn-5 rcvOooSeg:vector:min 1
scalar ClientServer.server.tcp.conn-5 rcvOooSeg:vector:max 399
scalar ClientServer.server.tcp.conn-5 rcvOooSeg:vector:starttime 0.5102169
scalar ClientServer.server.tcp.conn-5 rcvOooSeg:vector:endtime 1.4153033
scalar ClientServer.server.tcp.conn-5 rcvNASeg:vector:count 0
scalar ClientServer.server.tcp.conn-5 rcvNASeg:vector:sum 0
scalar ClientServer.server.tcp.conn-5 rcvNASeg:vector:sumweights 0
scalar ClientServer.server.tcp.conn-5 rcvNASeg:vector:mean -nan
scalar ClientServer.server.tcp.conn-5 rcvNASeg:vector:stddev nan
scalar ClientServer.server.tcp.conn-5 rcvNASeg:vector:min inf
scalar ClientServer.server.tcp.conn-5 rcvNASeg:vector:max -inf
scalar ClientServer.server.tcp.conn-5 rcvNASeg:vector:starttime nan
scalar ClientServer.server.tcp.conn-5 rcvNASeg:vector:endtime nan
scalar ClientServer.server.tcp.conn-5 sackedBytes:vector:count 0
scalar ClientServer.server.tcp.conn-5 sackedBytes:vector:sum 0
scalar ClientServer.server.tcp.conn-5 sackedBytes:vector:sumweights 0
scalar ClientServer.server.tcp.conn-5 sackedBytes:vector:mean -nan
scalar ClientServer.server.tcp.conn-5 sackedBytes:vector:stddev nan
scalar ClientServer.server.tcp.conn-5 sackedBytes:vector:min inf
scalar ClientServer.server.tcp.conn-5 sackedBytes:vector:max -inf
scalar ClientServer.server.tcp.conn-5 sackedBytes:vector:starttime nan
scalar ClientServer.server.tcp.conn-5 sackedBytes:vector:endtime nan
scalar ClientServer.server.tcp.conn-5 tcpRcvQueueBytes:vector:count 7630
scalar ClientServer.server.tcp.conn-5 tcpRcvQueueBytes:vector:sum 2010528
scalar ClientServer.server.tcp.conn-5 tcpRcvQueueBytes:vector:sumweights 7630
scalar ClientServer.server.tcp.conn-5 tcpRcvQueueBytes:vector:mean 263.50301441678
scalar ClientServer.server.tcp.conn-5 tcpRcvQueueBytes:vector:stddev 744.68082205129
scalar ClientServer.server.tcp.conn-5 tcpRcvQueueBytes:vector:min 0
scalar ClientServer.server.tcp.conn-5 tcpRcvQueueBytes:vector:max 3560
scalar ClientServer.server.tcp.conn-5 tcpRcvQueueBytes:vector:starttime 0.2000409
scalar ClientServer.server.tcp.conn-5 tcpRcvQueueBytes:vector:endtime 25.0000377
scalar ClientServer.server.tcp.conn-5 tcpRcvQueueDrops:vector:count 0
scalar ClientServer.server.tcp.conn-5 tcpRcvQueueDrops:vector:sum 0
scalar ClientServer.server.tcp.conn-5 tcpRcvQueueDrops:vector:sumweights 0
scalar ClientServer.server.tcp.conn-5 tcpRcvQueueDrops:vector:mean -nan
scalar ClientServer.server.tcp.conn-5 tcpRcvQueueDrops:vector:stddev nan
scalar ClientServer.server.tcp.conn-5 tcpRcvQueueDrops:vector:min inf
scalar ClientServer.server.tcp.conn-5 tcpRcvQueueDrops:vector:max -inf
scalar ClientServer.server.tcp.conn-5 tcpRcvQueueDrops:vector:starttime nan
scalar ClientServer.server.tcp.conn-5 tcpRcvQueueDrops:vector:endtime nan
scalar ClientServer.server.tcp.conn-5 tcpRcvPayloadBytes:vector:count 5679
scalar ClientServer.server.tcp.conn-5 tcpRcvPayloadBytes:vector:sum 1000000
scalar ClientServer.server.tcp.conn-5 tcpRcvPayloadBytes:vector:sumweights 5679
scalar ClientServer.server.tcp.conn-5 tcpRcvPayloadBytes:vector:mean 176.0873393203
scalar ClientServer.server.tcp.conn-5 tcpRcvPayloadBytes:vector:stddev 246.42171427859
scalar ClientServer.server.tcp.conn-5 tcpRcvPayloadBytes:vector:min 0
scalar ClientServer.server.tcp.conn-5 tcpRcvPayloadBytes:vector:max 536
scalar ClientServer.server.tcp.conn-5 tcpRcvPayloadBytes:vector:starttime 0.2001195
scalar ClientServer.server.tcp.conn-5 tcpRcvPayloadBytes:vector:endtime 25.0001507
scalar ClientServer.server.tcp.conn-5 cwnd:vector:count 3730
scalar ClientServer.server.tcp.conn-5 cwnd:vector:sum 3731656120
scalar ClientServer.server.tcp.conn-5 cwnd:vector:sumweights 3730
scalar ClientServer.server.tcp.conn-5 cwnd:vector:mean 1000444
scalar ClientServer.server.tcp.conn-5 cwnd:vector:stddev 577219.78284416
scalar ClientServer.server.tcp.conn-5 cwnd:vector:min 1072
scalar ClientServer.server.tcp.conn-5 cwnd:vector:max 1999816
scalar ClientServer.server.tcp.conn-5 cwnd:vector:starttime 0.5019033
scalar ClientServer.server.tcp.conn-5 cwnd:vector:endtime 25.0001507
scalar ClientServer.server.tcp.conn-5 ssthresh:vector:count 3730
scalar ClientServer.server.tcp.conn-5 ssthresh:vector:sum 16020228010350
scalar ClientServer.server.tcp.conn-5 ssthresh:vector:sumweights 3730
scalar ClientServer.server.tcp.conn-5 ssthresh:vector:mean 4294967295
scalar ClientServer.server.tcp.conn-5 ssthresh:vector:stddev 0
scalar ClientServer.server.tcp.conn-5 ssthresh:vector:min 4294967295
scalar ClientServer.server.tcp.conn-5 ssthresh:vector:max 4294967295
scalar ClientServer.server.tcp.conn-5 ssthresh:vector:starttime 0.5019033
scalar ClientServer.server.tcp.conn-5 ssthresh:vector:endtime 25.0001507
scalar ClientServer.server.tcp.conn-5 rtt:vector:count 935
scalar ClientServer.server.tcp.conn-5 rtt:vector:sum 2.248172
scalar ClientServer.server.tcp.conn-5 rtt:vector:sumweights 935
scalar ClientServer.server.tcp.conn-5 rtt:vector:mean 0.0024044620320856
scalar ClientServer.server.tcp.conn-5 rtt:vector:stddev 0.0072729642831507
scalar ClientServer.server.tcp.conn-5 rtt:vector:min 0.0005042
scalar ClientServer.server.tcp.conn-5 rtt:vector:max 0.2240316
scalar ClientServer.server.tcp.conn-5 rtt:vector:starttime 0.5019033
scalar ClientServer.server.tcp.conn-5 rtt:vector:endtime 2.7500377
scalar ClientServer.server.tcp.conn-5 srtt:vector:count 935
scalar ClientServer.server.tcp.conn-5 srtt:vector:sum 2.040717551815
scalar ClientServer.server.tcp.conn-5 srtt:vector:sumweights 935
scalar ClientServer.server.tcp.conn-5 srtt:vector:mean 0.0021825856169144
scalar ClientServer.server.tcp.conn-5 srtt:vector:stddev 0.00098553132161429
scalar ClientServer.server.tcp.conn-5 srtt:vector:min 0.0001796
scalar ClientServer.server.tcp.conn-5 srtt:vector:max 0.029636350004
scalar ClientServer.server.tcp.conn-5 srtt:vector:starttime 0.5019033
scalar ClientServer.server.tcp.conn-5 srtt:vector:endtime 2.7500377
scalar ClientServer.server.tcp.conn-5 rttvar:vector:count 935
scalar ClientServer.server.tcp.conn-5 rttvar:vector:sum 5.4664626298059
scalar ClientServer.server.tcp.conn-5 rttvar:vector:sumweights 935
scalar ClientServer.server.tcp.conn-5 rttvar:vector:mean 0.0058464840960491
scalar ClientServer.server.tcp.conn-5 rttvar:vector:stddev 0.044077387138973
scalar ClientServer.server.tcp.conn-5 rttvar:vector:min 8e-12
scalar ClientServer.server.tcp.conn-5 rttvar:vector:max 0.6564296
scalar ClientServer.server.tcp.conn-5 rttvar:vector:starttime 0.5019033
scalar ClientServer.server.tcp.conn-5 rttvar:vector:endtime 2.7500377
scalar ClientServer.server.tcp.conn-5 rto:vector:count 935
scalar ClientServer.server.tcp.conn-5 rto:vector:sum 940.81960287322
scalar ClientServer.server.tcp.conn-5 rto:vector:sumweights 935
scalar ClientServer.server.tcp.conn-5 rto:vector:mean 1.006224174196
scalar ClientServer.server.tcp.conn-5 rto:vector:stddev 0.082528830086233
scalar ClientServer.server.tcp.conn-5 rto:vector:min 1
scalar ClientServer.server.tcp.conn-5 rto:vector:max 2.625898
scalar ClientServer.server.tcp.conn-5 rto:vector:starttime 0.5019033
scalar ClientServer.server.tcp.conn-5 rto:vector:endtime 2.7500377
scalar ClientServer.server.tcp.conn-5 numRtos:vector:count 0
scalar ClientServer.server.tcp.conn-5 numRtos:vector:sum 0
scalar ClientServer.server.tcp.conn-5 numRtos:vector:sumweights 0
scalar ClientServer.server.tcp.conn-5 numRtos:vector:mean -nan
scalar ClientServer.server.tcp.conn-5 numRtos:vector:stddev nan
scalar ClientServer.server.tcp.conn-5 numRtos:vector:min inf
scalar ClientServer.server.tcp.conn-5 numRtos:vector:max -inf
scalar ClientServer.server.tcp.conn-5 numRtos:vector:starttime nan
scalar ClientServer.server.tcp.conn-5 numRtos:vector:endtime nan
scalar ClientServer.server.tcp.conn-5 load:vector:count 0
scalar ClientServer.server.tcp.conn-5 load:vector:sum 0
scalar ClientServer.server.tcp.conn-5 load:vector:sumweights 0
scalar ClientServer.server.tcp.conn-5 load:vector:mean -nan
scalar ClientServer.server.tcp.conn-5 load:vector:stddev nan
scalar ClientServer.server.tcp.conn-5 load:vector:min inf
scalar ClientServer.server.tcp.conn-5 load:vector:max -inf
scalar ClientServer.server.tcp.conn-5 load:vector:starttime nan
scalar ClientServer.server.tcp.conn-5 load:vector:endtime nan
scalar ClientServer.server.tcp.conn-5 calcLoad:vector:count 0
scalar ClientServer.server.tcp.conn-5 calcLoad:vector:sum 0
scalar ClientServer.server.tcp.conn-5 calcLoad:vector:sumweights 0
scalar ClientServer.server.tcp.conn-5 calcLoad:vector:mean -nan
scalar ClientServer.server.tcp.conn-5 calcLoad:vector:stddev nan
scalar ClientServer.server.tcp.conn-5 calcLoad:vector:min inf
scalar ClientServer.server.tcp.conn-5 calcLoad:vector:max -inf
scalar ClientServer.server.tcp.conn-5 calcLoad:vector:starttime nan
scalar ClientServer.server.tcp.conn-5 calcLoad:vector:endtime nan
scalar ClientServer.server.tcp.conn-5 markingProb:vector:count 0
scalar ClientServer.server.tcp.conn-5 markingProb:vector:sum 0
scalar ClientServer.server.tcp.conn-5 markingProb:vector:sumweights 0
scalar ClientServer.server.tcp.conn-5 markingProb:vector:mean -nan
scalar ClientServer.server.tcp.conn-5 markingProb:vector:stddev nan
scalar ClientServer.server.tcp.conn-5 markingProb:vector:min inf
scalar ClientServer.server.tcp.conn-5 markingProb:vector:max -inf
scalar ClientServer.server.tcp.conn-5 markingProb:vector:starttime nan
scalar ClientServer.server.tcp.conn-5 markingProb:vector:endtime nan
scalar ClientServer.server.app[0].thread_5 packetReceived:vector(packetBytes):count 1549
scalar ClientServer.server.app[0].thread_5 packetReceived:vector(packetBytes):sum 1000000
scalar ClientServer.server.app[0].thread_5 packetReceived:vector(packetBytes):sumweights 1549
scalar ClientServer.server.app[0].thread_5 packetReceived:vector(packetBytes):mean 645.57779212395
scalar ClientServer.server.app[0].thread_5 packetReceived:vector(packetBytes):stddev 677.34831815394
scalar ClientServer.server.app[0].thread_5 packetReceived:vector(packetBytes):min 184
scalar ClientServer.server.app[0].thread_5 packetReceived:vector(packetBytes):max 4096
scalar ClientServer.server.app[0].thread_5 packetReceived:vector(packetBytes):starttime 0.5004665
scalar ClientServer.server.app[0].thread_5 packetReceived:vector(packetBytes):endtime 1.4252643
scalar ClientServer.server.app[0].thread_5 packetSent:vector(packetBytes):count 1549
scalar ClientServer.server.app[0].thread_5 packetSent:vector(packetBytes):sum 2000000
scalar ClientServer.server.app[0].thread_5 packetSent:vector(packetBytes):sumweights 1549
scalar ClientServer.server.app[0].thread_5 packetSent:vector(packetBytes):mean 1291.1555842479
scalar ClientServer.server.app[0].thread_5 packetSent:vector(packetBytes):stddev 1354.6966363079
scalar ClientServer.server.app[0].thread_5 packetSent:vector(packetBytes):min 368
scalar ClientServer.server.app[0].thread_5 packetSent:vector(packetBytes):max 8192
scalar ClientServer.server.app[0].thread_5 packetSent:vector(packetBytes):starttime 0.5004665
scalar ClientServer.server.app[0].thread_5 packetSent:vector(packetBytes):endtime 1.4252643
scalar ClientServer.server.app[0].thread_5 endToEndDelay:vector:count 0
scalar ClientServer.server.app[0].thread_5 endToEndDelay:vector:sum 0
scalar ClientServer.server.app[0].thread_5 endToEndDelay:vector:sumweights 0
scalar ClientServer.server.app[0].thread_5 endToEndDelay:vector:mean -nan
scalar ClientServer.server.app[0].thread_5 endToEndDelay:vector:stddev nan
scalar ClientServer.server.app[0].thread_5 endToEndDelay:vector:min inf
scalar ClientServer.server.app[0].thread_5 endToEndDelay:vector:max -inf
scalar ClientServer.server.app[0].thread_5 endToEndDelay:vector:starttime nan
scalar ClientServer.server.app[0].thread_5 endToEndDelay:vector:endtime nan

