version 3
run General-0-20260206-21:52:17-3555678
attr configname General
attr datetime 20260206-21:52:17
attr datetimef 20260206-215217
attr experiment General
attr inifile omnetpp.ini
attr iterationvars ""
attr iterationvarsd ""
attr iterationvarsf ""
attr measurement ""
attr network BgpNetwork
attr processid 3555678
attr repetition 0
attr replication #0
attr resultdir results
attr runnumber 0
attr seedset 0
config **.param-recording false
config image-path /home/attila/projects/inet/images
config output-scalar-file results/omnetpp.ini-General-#0.sca
config output-scalar-precision 17
config output-vector-file results/omnetpp.ini-General-#0.vec
config output-vector-precision 17
config record-eventlog false
config sim-time-limit 40s
config description "Multi OSPF routing test + BGP"
config network BgpNetwork
config sim-time-limit 40s
config output-scalar-file results.sca
config output-scalar-precision 2
config **.app[0].**.scalar-recording true
config **.scalar-recording false
config **.vector-recording false
config **.eth[*].queue.packetCapacity 100
config **.tcp.typename Tcp
config **.tcp.mss 1024
config **.tcp.advertisedWindow 14336
config **.tcp.tcpAlgorithmClass "\"TcpReno\""
config **.ospfConfig "xmldoc(\"OSPFConfig.xml\")"
config **.bgpConfig "xmldoc(\"BGPConfig.xml\")"
config *.A.bgp.redistributeOspf "\"E2\""
config *.B.bgp.redistributeOspf "\"E2\""
config *.visualizer.interfaceTableVisualizer.displayInterfaceTables true
config **.HA11.numApps 1
config **.HA11.app[*].typename UdpBasicApp
config **.HA11.app[0].localPort 1234
config **.HA11.app[0].destPort 5678
config **.HA11.app[0].messageLength "32 bytes"
config **.HA11.app[0].sendInterval 1s
config **.HA11.app[0].destAddresses "\"192.170.1.1\""
config **.HB11.numApps 1
config **.HB11.app[*].typename UdpSink
config **.HB11.app[0].localPort 5678

scalar BgpNetwork.HA11.app[0] "packets sent" 40
scalar BgpNetwork.HA11.app[0] "packets received" 0
scalar BgpNetwork.HA11.app[0] packetReceived:count 0
scalar BgpNetwork.HA11.app[0] packetReceived:sum(packetBytes) 0
scalar BgpNetwork.HA11.app[0] packetSent:count 40
scalar BgpNetwork.HA11.app[0] packetSent:sum(packetBytes) 1280
scalar BgpNetwork.HB11.app[0] packetReceived:count 23
scalar BgpNetwork.HB11.app[0] packetReceived:sum(packetBytes) 736
scalar BgpNetwork.HA11.app[0] rcvdPkLifetime:stats:count 0
scalar BgpNetwork.HA11.app[0] rcvdPkLifetime:stats:sumweights 0
scalar BgpNetwork.HA11.app[0] rcvdPkLifetime:stats:mean -nan
scalar BgpNetwork.HA11.app[0] rcvdPkLifetime:stats:stddev nan
scalar BgpNetwork.HA11.app[0] rcvdPkLifetime:stats:min nan
scalar BgpNetwork.HA11.app[0] rcvdPkLifetime:stats:max nan
scalar BgpNetwork.HA11.app[0] rcvdPkLifetime:stats:numbins 0
scalar BgpNetwork.HB11.app[0] endToEndDelay:histogram:count 23
scalar BgpNetwork.HB11.app[0] endToEndDelay:histogram:sumweights 23
scalar BgpNetwork.HB11.app[0] endToEndDelay:histogram:mean 0.0002846886956521739
scalar BgpNetwork.HB11.app[0] endToEndDelay:histogram:stddev 2.3253527455645251e-05
scalar BgpNetwork.HB11.app[0] endToEndDelay:histogram:min 0.00027984
scalar BgpNetwork.HB11.app[0] endToEndDelay:histogram:max 0.00039135999999999999
scalar BgpNetwork.HB11.app[0] endToEndDelay:histogram:numbins 85
scalar BgpNetwork.HB11.app[0] endToEndDelay:histogram:rangemin 0.00025000000000000006
scalar BgpNetwork.HB11.app[0] endToEndDelay:histogram:rangemax 0.00042000000000000013
scalar BgpNetwork.HB11.app[0] endToEndDelay:histogram:underflows 0
scalar BgpNetwork.HB11.app[0] endToEndDelay:histogram:overflows 0
statistic BgpNetwork.HA11.app[0] rcvdPkLifetime:stats
field count 0
field mean -nan
field stddev nan
field min nan
field max nan
field sum 0
field sqrsum 0
statistic BgpNetwork.HB11.app[0] endToEndDelay:histogram
field count 23
field mean 0.0002846886956521739
field stddev 2.3253527455645251e-05
field min 0.00027984
field max 0.00039135999999999999
field sum 0.0065478399999999992
field sqrsum 1.8759920127999999e-06
bin	-inf	0
bin	0.00025000000000000006	0
bin	0.00025200000000000005	0
bin	0.00025400000000000005	0
bin	0.00025600000000000004	0
bin	0.00025800000000000004	0
bin	0.00026000000000000009	0
bin	0.00026200000000000008	0
bin	0.00026400000000000007	0
bin	0.00026600000000000007	0
bin	0.00026800000000000006	0
bin	0.00027000000000000006	0
bin	0.00027200000000000005	0
bin	0.00027400000000000005	0
bin	0.00027600000000000004	0
bin	0.00027800000000000004	22
bin	0.00028000000000000008	0
bin	0.00028200000000000008	0
bin	0.00028400000000000007	0
bin	0.00028600000000000007	0
bin	0.00028800000000000006	0
bin	0.00029000000000000006	0
bin	0.00029200000000000005	0
bin	0.00029400000000000004	0
bin	0.00029600000000000004	0
bin	0.00029800000000000009	0
bin	0.00030000000000000008	0
bin	0.00030200000000000008	0
bin	0.00030400000000000007	0
bin	0.00030600000000000007	0
bin	0.00030800000000000006	0
bin	0.00031000000000000005	0
bin	0.0003120000000000001	0
bin	0.00031400000000000004	0
bin	0.00031600000000000009	0
bin	0.00031800000000000009	0
bin	0.00032000000000000008	0
bin	0.00032200000000000007	0
bin	0.00032400000000000007	0
bin	0.00032600000000000006	0
bin	0.00032800000000000006	0
bin	0.00033000000000000011	0
bin	0.00033200000000000005	0
bin	0.0003340000000000001	0
bin	0.00033600000000000009	0
bin	0.00033800000000000008	0
bin	0.00034000000000000008	0
bin	0.00034200000000000007	0
bin	0.00034400000000000007	0
bin	0.00034600000000000006	0
bin	0.00034800000000000006	0
bin	0.00035000000000000005	0
bin	0.0003520000000000001	0
bin	0.00035400000000000009	0
bin	0.00035600000000000009	0
bin	0.00035800000000000008	0
bin	0.00036000000000000008	0
bin	0.00036200000000000007	0
bin	0.00036400000000000007	0
bin	0.00036600000000000006	0
bin	0.00036800000000000005	0
bin	0.0003700000000000001	0
bin	0.0003720000000000001	0
bin	0.00037400000000000009	0
bin	0.00037600000000000009	0
bin	0.00037800000000000008	0
bin	0.00038000000000000008	0
bin	0.00038200000000000007	0
bin	0.00038400000000000012	0
bin	0.00038600000000000006	0
bin	0.00038800000000000011	0
bin	0.00039000000000000005	1
bin	0.0003920000000000001	0
bin	0.00039400000000000009	0
bin	0.00039600000000000008	0
bin	0.00039800000000000008	0
bin	0.00040000000000000007	0
bin	0.00040200000000000012	0
bin	0.00040400000000000006	0
bin	0.00040600000000000011	0
bin	0.00040800000000000005	0
bin	0.0004100000000000001	0
bin	0.00041200000000000009	0
bin	0.00041400000000000009	0
bin	0.00041600000000000008	0
bin	0.00041800000000000008	0
bin	0.00042000000000000013	0
scalar BgpNetwork.A.lo[0].lo rcvdPkFromHl:vector(packetBytes):count 0
scalar BgpNetwork.A.lo[0].lo rcvdPkFromHl:vector(packetBytes):sum 0
scalar BgpNetwork.A.lo[0].lo rcvdPkFromHl:vector(packetBytes):sumweights 0
scalar BgpNetwork.A.lo[0].lo rcvdPkFromHl:vector(packetBytes):mean -nan
scalar BgpNetwork.A.lo[0].lo rcvdPkFromHl:vector(packetBytes):stddev nan
scalar BgpNetwork.A.lo[0].lo rcvdPkFromHl:vector(packetBytes):min inf
scalar BgpNetwork.A.lo[0].lo rcvdPkFromHl:vector(packetBytes):max -inf
scalar BgpNetwork.A.lo[0].lo rcvdPkFromHl:vector(packetBytes):starttime nan
scalar BgpNetwork.A.lo[0].lo rcvdPkFromHl:vector(packetBytes):endtime nan
scalar BgpNetwork.A.lo[0].lo passedUpPk:vector(packetBytes):count 0
scalar BgpNetwork.A.lo[0].lo passedUpPk:vector(packetBytes):sum 0
scalar BgpNetwork.A.lo[0].lo passedUpPk:vector(packetBytes):sumweights 0
scalar BgpNetwork.A.lo[0].lo passedUpPk:vector(packetBytes):mean -nan
scalar BgpNetwork.A.lo[0].lo passedUpPk:vector(packetBytes):stddev nan
scalar BgpNetwork.A.lo[0].lo passedUpPk:vector(packetBytes):min inf
scalar BgpNetwork.A.lo[0].lo passedUpPk:vector(packetBytes):max -inf
scalar BgpNetwork.A.lo[0].lo passedUpPk:vector(packetBytes):starttime nan
scalar BgpNetwork.A.lo[0].lo passedUpPk:vector(packetBytes):endtime nan
scalar BgpNetwork.A.lo[0] packetDropInterfaceDown:vector(packetBytes):count 0
scalar BgpNetwork.A.lo[0] packetDropInterfaceDown:vector(packetBytes):sum 0
scalar BgpNetwork.A.lo[0] packetDropInterfaceDown:vector(packetBytes):sumweights 0
scalar BgpNetwork.A.lo[0] packetDropInterfaceDown:vector(packetBytes):mean -nan
scalar BgpNetwork.A.lo[0] packetDropInterfaceDown:vector(packetBytes):stddev nan
scalar BgpNetwork.A.lo[0] packetDropInterfaceDown:vector(packetBytes):min inf
scalar BgpNetwork.A.lo[0] packetDropInterfaceDown:vector(packetBytes):max -inf
scalar BgpNetwork.A.lo[0] packetDropInterfaceDown:vector(packetBytes):starttime nan
scalar BgpNetwork.A.lo[0] packetDropInterfaceDown:vector(packetBytes):endtime nan
scalar BgpNetwork.A.lo[0] packetDropNoCarrier:vector(packetBytes):count 0
scalar BgpNetwork.A.lo[0] packetDropNoCarrier:vector(packetBytes):sum 0
scalar BgpNetwork.A.lo[0] packetDropNoCarrier:vector(packetBytes):sumweights 0
scalar BgpNetwork.A.lo[0] packetDropNoCarrier:vector(packetBytes):mean -nan
scalar BgpNetwork.A.lo[0] packetDropNoCarrier:vector(packetBytes):stddev nan
scalar BgpNetwork.A.lo[0] packetDropNoCarrier:vector(packetBytes):min inf
scalar BgpNetwork.A.lo[0] packetDropNoCarrier:vector(packetBytes):max -inf
scalar BgpNetwork.A.lo[0] packetDropNoCarrier:vector(packetBytes):starttime nan
scalar BgpNetwork.A.lo[0] packetDropNoCarrier:vector(packetBytes):endtime nan
scalar BgpNetwork.A.ppp[0].queue queueLength:vector:count 0
scalar BgpNetwork.A.ppp[0].queue queueLength:vector:sum 0
scalar BgpNetwork.A.ppp[0].queue queueLength:vector:sumweights 0
scalar BgpNetwork.A.ppp[0].queue queueLength:vector:mean -nan
scalar BgpNetwork.A.ppp[0].queue queueLength:vector:stddev nan
scalar BgpNetwork.A.ppp[0].queue queueLength:vector:min inf
scalar BgpNetwork.A.ppp[0].queue queueLength:vector:max -inf
scalar BgpNetwork.A.ppp[0].queue queueLength:vector:starttime nan
scalar BgpNetwork.A.ppp[0].queue queueLength:vector:endtime nan
scalar BgpNetwork.A.ppp[0].queue queueBitLength:vector:count 0
scalar BgpNetwork.A.ppp[0].queue queueBitLength:vector:sum 0
scalar BgpNetwork.A.ppp[0].queue queueBitLength:vector:sumweights 0
scalar BgpNetwork.A.ppp[0].queue queueBitLength:vector:mean -nan
scalar BgpNetwork.A.ppp[0].queue queueBitLength:vector:stddev nan
scalar BgpNetwork.A.ppp[0].queue queueBitLength:vector:min inf
scalar BgpNetwork.A.ppp[0].queue queueBitLength:vector:max -inf
scalar BgpNetwork.A.ppp[0].queue queueBitLength:vector:starttime nan
scalar BgpNetwork.A.ppp[0].queue queueBitLength:vector:endtime nan
scalar BgpNetwork.A.ppp[0].queue queueingTime:vector:count 0
scalar BgpNetwork.A.ppp[0].queue queueingTime:vector:sum 0
scalar BgpNetwork.A.ppp[0].queue queueingTime:vector:sumweights 0
scalar BgpNetwork.A.ppp[0].queue queueingTime:vector:mean -nan
scalar BgpNetwork.A.ppp[0].queue queueingTime:vector:stddev nan
scalar BgpNetwork.A.ppp[0].queue queueingTime:vector:min inf
scalar BgpNetwork.A.ppp[0].queue queueingTime:vector:max -inf
scalar BgpNetwork.A.ppp[0].queue queueingTime:vector:starttime nan
scalar BgpNetwork.A.ppp[0].queue queueingTime:vector:endtime nan
scalar BgpNetwork.A.ppp[0].queue incomingPacketLengths:vector:count 0
scalar BgpNetwork.A.ppp[0].queue incomingPacketLengths:vector:sum 0
scalar BgpNetwork.A.ppp[0].queue incomingPacketLengths:vector:sumweights 0
scalar BgpNetwork.A.ppp[0].queue incomingPacketLengths:vector:mean -nan
scalar BgpNetwork.A.ppp[0].queue incomingPacketLengths:vector:stddev nan
scalar BgpNetwork.A.ppp[0].queue incomingPacketLengths:vector:min inf
scalar BgpNetwork.A.ppp[0].queue incomingPacketLengths:vector:max -inf
scalar BgpNetwork.A.ppp[0].queue incomingPacketLengths:vector:starttime nan
scalar BgpNetwork.A.ppp[0].queue incomingPacketLengths:vector:endtime nan
scalar BgpNetwork.A.ppp[0].queue incomingDataRate:vector:count 0
scalar BgpNetwork.A.ppp[0].queue incomingDataRate:vector:sum 0
scalar BgpNetwork.A.ppp[0].queue incomingDataRate:vector:sumweights 0
scalar BgpNetwork.A.ppp[0].queue incomingDataRate:vector:mean -nan
scalar BgpNetwork.A.ppp[0].queue incomingDataRate:vector:stddev nan
scalar BgpNetwork.A.ppp[0].queue incomingDataRate:vector:min inf
scalar BgpNetwork.A.ppp[0].queue incomingDataRate:vector:max -inf
scalar BgpNetwork.A.ppp[0].queue incomingDataRate:vector:starttime nan
scalar BgpNetwork.A.ppp[0].queue incomingDataRate:vector:endtime nan
scalar BgpNetwork.A.ppp[0].queue outgoingPacketLengths:vector:count 0
scalar BgpNetwork.A.ppp[0].queue outgoingPacketLengths:vector:sum 0
scalar BgpNetwork.A.ppp[0].queue outgoingPacketLengths:vector:sumweights 0
scalar BgpNetwork.A.ppp[0].queue outgoingPacketLengths:vector:mean -nan
scalar BgpNetwork.A.ppp[0].queue outgoingPacketLengths:vector:stddev nan
scalar BgpNetwork.A.ppp[0].queue outgoingPacketLengths:vector:min inf
scalar BgpNetwork.A.ppp[0].queue outgoingPacketLengths:vector:max -inf
scalar BgpNetwork.A.ppp[0].queue outgoingPacketLengths:vector:starttime nan
scalar BgpNetwork.A.ppp[0].queue outgoingPacketLengths:vector:endtime nan
scalar BgpNetwork.A.ppp[0].queue outgoingDataRate:vector:count 0
scalar BgpNetwork.A.ppp[0].queue outgoingDataRate:vector:sum 0
scalar BgpNetwork.A.ppp[0].queue outgoingDataRate:vector:sumweights 0
scalar BgpNetwork.A.ppp[0].queue outgoingDataRate:vector:mean -nan
scalar BgpNetwork.A.ppp[0].queue outgoingDataRate:vector:stddev nan
scalar BgpNetwork.A.ppp[0].queue outgoingDataRate:vector:min inf
scalar BgpNetwork.A.ppp[0].queue outgoingDataRate:vector:max -inf
scalar BgpNetwork.A.ppp[0].queue outgoingDataRate:vector:starttime nan
scalar BgpNetwork.A.ppp[0].queue outgoingDataRate:vector:endtime nan
scalar BgpNetwork.A.ppp[0].queue droppedPacketLengthsQueueOverflow:vector:count 0
scalar BgpNetwork.A.ppp[0].queue droppedPacketLengthsQueueOverflow:vector:sum 0
scalar BgpNetwork.A.ppp[0].queue droppedPacketLengthsQueueOverflow:vector:sumweights 0
scalar BgpNetwork.A.ppp[0].queue droppedPacketLengthsQueueOverflow:vector:mean -nan
scalar BgpNetwork.A.ppp[0].queue droppedPacketLengthsQueueOverflow:vector:stddev nan
scalar BgpNetwork.A.ppp[0].queue droppedPacketLengthsQueueOverflow:vector:min inf
scalar BgpNetwork.A.ppp[0].queue droppedPacketLengthsQueueOverflow:vector:max -inf
scalar BgpNetwork.A.ppp[0].queue droppedPacketLengthsQueueOverflow:vector:starttime nan
scalar BgpNetwork.A.ppp[0].queue droppedPacketLengthsQueueOverflow:vector:endtime nan
scalar BgpNetwork.A.ppp[0].queue flowQueueingTime:vector:count 0
scalar BgpNetwork.A.ppp[0].queue flowQueueingTime:vector:sum 0
scalar BgpNetwork.A.ppp[0].queue flowQueueingTime:vector:sumweights 0
scalar BgpNetwork.A.ppp[0].queue flowQueueingTime:vector:mean -nan
scalar BgpNetwork.A.ppp[0].queue flowQueueingTime:vector:stddev nan
scalar BgpNetwork.A.ppp[0].queue flowQueueingTime:vector:min inf
scalar BgpNetwork.A.ppp[0].queue flowQueueingTime:vector:max -inf
scalar BgpNetwork.A.ppp[0].queue flowQueueingTime:vector:starttime nan
scalar BgpNetwork.A.ppp[0].queue flowQueueingTime:vector:endtime nan
scalar BgpNetwork.A.ppp[0].queue flowIncomingDataRate:vector:count 0
scalar BgpNetwork.A.ppp[0].queue flowIncomingDataRate:vector:sum 0
scalar BgpNetwork.A.ppp[0].queue flowIncomingDataRate:vector:sumweights 0
scalar BgpNetwork.A.ppp[0].queue flowIncomingDataRate:vector:mean -nan
scalar BgpNetwork.A.ppp[0].queue flowIncomingDataRate:vector:stddev nan
scalar BgpNetwork.A.ppp[0].queue flowIncomingDataRate:vector:min inf
scalar BgpNetwork.A.ppp[0].queue flowIncomingDataRate:vector:max -inf
scalar BgpNetwork.A.ppp[0].queue flowIncomingDataRate:vector:starttime nan
scalar BgpNetwork.A.ppp[0].queue flowIncomingDataRate:vector:endtime nan
scalar BgpNetwork.A.ppp[0].queue flowOutgoingDataRate:vector:count 0
scalar BgpNetwork.A.ppp[0].queue flowOutgoingDataRate:vector:sum 0
scalar BgpNetwork.A.ppp[0].queue flowOutgoingDataRate:vector:sumweights 0
scalar BgpNetwork.A.ppp[0].queue flowOutgoingDataRate:vector:mean -nan
scalar BgpNetwork.A.ppp[0].queue flowOutgoingDataRate:vector:stddev nan
scalar BgpNetwork.A.ppp[0].queue flowOutgoingDataRate:vector:min inf
scalar BgpNetwork.A.ppp[0].queue flowOutgoingDataRate:vector:max -inf
scalar BgpNetwork.A.ppp[0].queue flowOutgoingDataRate:vector:starttime nan
scalar BgpNetwork.A.ppp[0].queue flowOutgoingDataRate:vector:endtime nan
scalar BgpNetwork.A.ppp[0].ppp transmissionState:vector:count 0
scalar BgpNetwork.A.ppp[0].ppp transmissionState:vector:sum 0
scalar BgpNetwork.A.ppp[0].ppp transmissionState:vector:sumweights 0
scalar BgpNetwork.A.ppp[0].ppp transmissionState:vector:mean -nan
scalar BgpNetwork.A.ppp[0].ppp transmissionState:vector:stddev nan
scalar BgpNetwork.A.ppp[0].ppp transmissionState:vector:min inf
scalar BgpNetwork.A.ppp[0].ppp transmissionState:vector:max -inf
scalar BgpNetwork.A.ppp[0].ppp transmissionState:vector:starttime nan
scalar BgpNetwork.A.ppp[0].ppp transmissionState:vector:endtime nan
scalar BgpNetwork.A.ppp[0].ppp txPk:vector(packetBytes):count 0
scalar BgpNetwork.A.ppp[0].ppp txPk:vector(packetBytes):sum 0
scalar BgpNetwork.A.ppp[0].ppp txPk:vector(packetBytes):sumweights 0
scalar BgpNetwork.A.ppp[0].ppp txPk:vector(packetBytes):mean -nan
scalar BgpNetwork.A.ppp[0].ppp txPk:vector(packetBytes):stddev nan
scalar BgpNetwork.A.ppp[0].ppp txPk:vector(packetBytes):min inf
scalar BgpNetwork.A.ppp[0].ppp txPk:vector(packetBytes):max -inf
scalar BgpNetwork.A.ppp[0].ppp txPk:vector(packetBytes):starttime nan
scalar BgpNetwork.A.ppp[0].ppp txPk:vector(packetBytes):endtime nan
scalar BgpNetwork.A.ppp[0].ppp rxPkOk:vector(packetBytes):count 0
scalar BgpNetwork.A.ppp[0].ppp rxPkOk:vector(packetBytes):sum 0
scalar BgpNetwork.A.ppp[0].ppp rxPkOk:vector(packetBytes):sumweights 0
scalar BgpNetwork.A.ppp[0].ppp rxPkOk:vector(packetBytes):mean -nan
scalar BgpNetwork.A.ppp[0].ppp rxPkOk:vector(packetBytes):stddev nan
scalar BgpNetwork.A.ppp[0].ppp rxPkOk:vector(packetBytes):min inf
scalar BgpNetwork.A.ppp[0].ppp rxPkOk:vector(packetBytes):max -inf
scalar BgpNetwork.A.ppp[0].ppp rxPkOk:vector(packetBytes):starttime nan
scalar BgpNetwork.A.ppp[0].ppp rxPkOk:vector(packetBytes):endtime nan
scalar BgpNetwork.A.ppp[0].ppp packetDropIncorrectlyReceived:vector(packetBytes):count 0
scalar BgpNetwork.A.ppp[0].ppp packetDropIncorrectlyReceived:vector(packetBytes):sum 0
scalar BgpNetwork.A.ppp[0].ppp packetDropIncorrectlyReceived:vector(packetBytes):sumweights 0
scalar BgpNetwork.A.ppp[0].ppp packetDropIncorrectlyReceived:vector(packetBytes):mean -nan
scalar BgpNetwork.A.ppp[0].ppp packetDropIncorrectlyReceived:vector(packetBytes):stddev nan
scalar BgpNetwork.A.ppp[0].ppp packetDropIncorrectlyReceived:vector(packetBytes):min inf
scalar BgpNetwork.A.ppp[0].ppp packetDropIncorrectlyReceived:vector(packetBytes):max -inf
scalar BgpNetwork.A.ppp[0].ppp packetDropIncorrectlyReceived:vector(packetBytes):starttime nan
scalar BgpNetwork.A.ppp[0].ppp packetDropIncorrectlyReceived:vector(packetBytes):endtime nan
scalar BgpNetwork.A.ppp[0].ppp packetDropInterfaceDown:vector(packetBytes):count 0
scalar BgpNetwork.A.ppp[0].ppp packetDropInterfaceDown:vector(packetBytes):sum 0
scalar BgpNetwork.A.ppp[0].ppp packetDropInterfaceDown:vector(packetBytes):sumweights 0
scalar BgpNetwork.A.ppp[0].ppp packetDropInterfaceDown:vector(packetBytes):mean -nan
scalar BgpNetwork.A.ppp[0].ppp packetDropInterfaceDown:vector(packetBytes):stddev nan
scalar BgpNetwork.A.ppp[0].ppp packetDropInterfaceDown:vector(packetBytes):min inf
scalar BgpNetwork.A.ppp[0].ppp packetDropInterfaceDown:vector(packetBytes):max -inf
scalar BgpNetwork.A.ppp[0].ppp packetDropInterfaceDown:vector(packetBytes):starttime nan
scalar BgpNetwork.A.ppp[0].ppp packetDropInterfaceDown:vector(packetBytes):endtime nan
scalar BgpNetwork.A.ppp[0].ppp rcvdPkFromHl:vector(packetBytes):count 0
scalar BgpNetwork.A.ppp[0].ppp rcvdPkFromHl:vector(packetBytes):sum 0
scalar BgpNetwork.A.ppp[0].ppp rcvdPkFromHl:vector(packetBytes):sumweights 0
scalar BgpNetwork.A.ppp[0].ppp rcvdPkFromHl:vector(packetBytes):mean -nan
scalar BgpNetwork.A.ppp[0].ppp rcvdPkFromHl:vector(packetBytes):stddev nan
scalar BgpNetwork.A.ppp[0].ppp rcvdPkFromHl:vector(packetBytes):min inf
scalar BgpNetwork.A.ppp[0].ppp rcvdPkFromHl:vector(packetBytes):max -inf
scalar BgpNetwork.A.ppp[0].ppp rcvdPkFromHl:vector(packetBytes):starttime nan
scalar BgpNetwork.A.ppp[0].ppp rcvdPkFromHl:vector(packetBytes):endtime nan
scalar BgpNetwork.A.ppp[0].ppp passedUpPk:vector(packetBytes):count 0
scalar BgpNetwork.A.ppp[0].ppp passedUpPk:vector(packetBytes):sum 0
scalar BgpNetwork.A.ppp[0].ppp passedUpPk:vector(packetBytes):sumweights 0
scalar BgpNetwork.A.ppp[0].ppp passedUpPk:vector(packetBytes):mean -nan
scalar BgpNetwork.A.ppp[0].ppp passedUpPk:vector(packetBytes):stddev nan
scalar BgpNetwork.A.ppp[0].ppp passedUpPk:vector(packetBytes):min inf
scalar BgpNetwork.A.ppp[0].ppp passedUpPk:vector(packetBytes):max -inf
scalar BgpNetwork.A.ppp[0].ppp passedUpPk:vector(packetBytes):starttime nan
scalar BgpNetwork.A.ppp[0].ppp passedUpPk:vector(packetBytes):endtime nan
scalar BgpNetwork.A.ppp[0] packetDropInterfaceDown:vector(packetBytes):count 0
scalar BgpNetwork.A.ppp[0] packetDropInterfaceDown:vector(packetBytes):sum 0
scalar BgpNetwork.A.ppp[0] packetDropInterfaceDown:vector(packetBytes):sumweights 0
scalar BgpNetwork.A.ppp[0] packetDropInterfaceDown:vector(packetBytes):mean -nan
scalar BgpNetwork.A.ppp[0] packetDropInterfaceDown:vector(packetBytes):stddev nan
scalar BgpNetwork.A.ppp[0] packetDropInterfaceDown:vector(packetBytes):min inf
scalar BgpNetwork.A.ppp[0] packetDropInterfaceDown:vector(packetBytes):max -inf
scalar BgpNetwork.A.ppp[0] packetDropInterfaceDown:vector(packetBytes):starttime nan
scalar BgpNetwork.A.ppp[0] packetDropInterfaceDown:vector(packetBytes):endtime nan
scalar BgpNetwork.A.ppp[0] packetDropNoCarrier:vector(packetBytes):count 0
scalar BgpNetwork.A.ppp[0] packetDropNoCarrier:vector(packetBytes):sum 0
scalar BgpNetwork.A.ppp[0] packetDropNoCarrier:vector(packetBytes):sumweights 0
scalar BgpNetwork.A.ppp[0] packetDropNoCarrier:vector(packetBytes):mean -nan
scalar BgpNetwork.A.ppp[0] packetDropNoCarrier:vector(packetBytes):stddev nan
scalar BgpNetwork.A.ppp[0] packetDropNoCarrier:vector(packetBytes):min inf
scalar BgpNetwork.A.ppp[0] packetDropNoCarrier:vector(packetBytes):max -inf
scalar BgpNetwork.A.ppp[0] packetDropNoCarrier:vector(packetBytes):starttime nan
scalar BgpNetwork.A.ppp[0] packetDropNoCarrier:vector(packetBytes):endtime nan
scalar BgpNetwork.A.ppp[1].queue queueLength:vector:count 0
scalar BgpNetwork.A.ppp[1].queue queueLength:vector:sum 0
scalar BgpNetwork.A.ppp[1].queue queueLength:vector:sumweights 0
scalar BgpNetwork.A.ppp[1].queue queueLength:vector:mean -nan
scalar BgpNetwork.A.ppp[1].queue queueLength:vector:stddev nan
scalar BgpNetwork.A.ppp[1].queue queueLength:vector:min inf
scalar BgpNetwork.A.ppp[1].queue queueLength:vector:max -inf
scalar BgpNetwork.A.ppp[1].queue queueLength:vector:starttime nan
scalar BgpNetwork.A.ppp[1].queue queueLength:vector:endtime nan
scalar BgpNetwork.A.ppp[1].queue queueBitLength:vector:count 0
scalar BgpNetwork.A.ppp[1].queue queueBitLength:vector:sum 0
scalar BgpNetwork.A.ppp[1].queue queueBitLength:vector:sumweights 0
scalar BgpNetwork.A.ppp[1].queue queueBitLength:vector:mean -nan
scalar BgpNetwork.A.ppp[1].queue queueBitLength:vector:stddev nan
scalar BgpNetwork.A.ppp[1].queue queueBitLength:vector:min inf
scalar BgpNetwork.A.ppp[1].queue queueBitLength:vector:max -inf
scalar BgpNetwork.A.ppp[1].queue queueBitLength:vector:starttime nan
scalar BgpNetwork.A.ppp[1].queue queueBitLength:vector:endtime nan
scalar BgpNetwork.A.ppp[1].queue queueingTime:vector:count 0
scalar BgpNetwork.A.ppp[1].queue queueingTime:vector:sum 0
scalar BgpNetwork.A.ppp[1].queue queueingTime:vector:sumweights 0
scalar BgpNetwork.A.ppp[1].queue queueingTime:vector:mean -nan
scalar BgpNetwork.A.ppp[1].queue queueingTime:vector:stddev nan
scalar BgpNetwork.A.ppp[1].queue queueingTime:vector:min inf
scalar BgpNetwork.A.ppp[1].queue queueingTime:vector:max -inf
scalar BgpNetwork.A.ppp[1].queue queueingTime:vector:starttime nan
scalar BgpNetwork.A.ppp[1].queue queueingTime:vector:endtime nan
scalar BgpNetwork.A.ppp[1].queue incomingPacketLengths:vector:count 0
scalar BgpNetwork.A.ppp[1].queue incomingPacketLengths:vector:sum 0
scalar BgpNetwork.A.ppp[1].queue incomingPacketLengths:vector:sumweights 0
scalar BgpNetwork.A.ppp[1].queue incomingPacketLengths:vector:mean -nan
scalar BgpNetwork.A.ppp[1].queue incomingPacketLengths:vector:stddev nan
scalar BgpNetwork.A.ppp[1].queue incomingPacketLengths:vector:min inf
scalar BgpNetwork.A.ppp[1].queue incomingPacketLengths:vector:max -inf
scalar BgpNetwork.A.ppp[1].queue incomingPacketLengths:vector:starttime nan
scalar BgpNetwork.A.ppp[1].queue incomingPacketLengths:vector:endtime nan
scalar BgpNetwork.A.ppp[1].queue incomingDataRate:vector:count 0
scalar BgpNetwork.A.ppp[1].queue incomingDataRate:vector:sum 0
scalar BgpNetwork.A.ppp[1].queue incomingDataRate:vector:sumweights 0
scalar BgpNetwork.A.ppp[1].queue incomingDataRate:vector:mean -nan
scalar BgpNetwork.A.ppp[1].queue incomingDataRate:vector:stddev nan
scalar BgpNetwork.A.ppp[1].queue incomingDataRate:vector:min inf
scalar BgpNetwork.A.ppp[1].queue incomingDataRate:vector:max -inf
scalar BgpNetwork.A.ppp[1].queue incomingDataRate:vector:starttime nan
scalar BgpNetwork.A.ppp[1].queue incomingDataRate:vector:endtime nan
scalar BgpNetwork.A.ppp[1].queue outgoingPacketLengths:vector:count 0
scalar BgpNetwork.A.ppp[1].queue outgoingPacketLengths:vector:sum 0
scalar BgpNetwork.A.ppp[1].queue outgoingPacketLengths:vector:sumweights 0
scalar BgpNetwork.A.ppp[1].queue outgoingPacketLengths:vector:mean -nan
scalar BgpNetwork.A.ppp[1].queue outgoingPacketLengths:vector:stddev nan
scalar BgpNetwork.A.ppp[1].queue outgoingPacketLengths:vector:min inf
scalar BgpNetwork.A.ppp[1].queue outgoingPacketLengths:vector:max -inf
scalar BgpNetwork.A.ppp[1].queue outgoingPacketLengths:vector:starttime nan
scalar BgpNetwork.A.ppp[1].queue outgoingPacketLengths:vector:endtime nan
scalar BgpNetwork.A.ppp[1].queue outgoingDataRate:vector:count 0
scalar BgpNetwork.A.ppp[1].queue outgoingDataRate:vector:sum 0
scalar BgpNetwork.A.ppp[1].queue outgoingDataRate:vector:sumweights 0
scalar BgpNetwork.A.ppp[1].queue outgoingDataRate:vector:mean -nan
scalar BgpNetwork.A.ppp[1].queue outgoingDataRate:vector:stddev nan
scalar BgpNetwork.A.ppp[1].queue outgoingDataRate:vector:min inf
scalar BgpNetwork.A.ppp[1].queue outgoingDataRate:vector:max -inf
scalar BgpNetwork.A.ppp[1].queue outgoingDataRate:vector:starttime nan
scalar BgpNetwork.A.ppp[1].queue outgoingDataRate:vector:endtime nan
scalar BgpNetwork.A.ppp[1].queue droppedPacketLengthsQueueOverflow:vector:count 0
scalar BgpNetwork.A.ppp[1].queue droppedPacketLengthsQueueOverflow:vector:sum 0
scalar BgpNetwork.A.ppp[1].queue droppedPacketLengthsQueueOverflow:vector:sumweights 0
scalar BgpNetwork.A.ppp[1].queue droppedPacketLengthsQueueOverflow:vector:mean -nan
scalar BgpNetwork.A.ppp[1].queue droppedPacketLengthsQueueOverflow:vector:stddev nan
scalar BgpNetwork.A.ppp[1].queue droppedPacketLengthsQueueOverflow:vector:min inf
scalar BgpNetwork.A.ppp[1].queue droppedPacketLengthsQueueOverflow:vector:max -inf
scalar BgpNetwork.A.ppp[1].queue droppedPacketLengthsQueueOverflow:vector:starttime nan
scalar BgpNetwork.A.ppp[1].queue droppedPacketLengthsQueueOverflow:vector:endtime nan
scalar BgpNetwork.A.ppp[1].queue flowQueueingTime:vector:count 0
scalar BgpNetwork.A.ppp[1].queue flowQueueingTime:vector:sum 0
scalar BgpNetwork.A.ppp[1].queue flowQueueingTime:vector:sumweights 0
scalar BgpNetwork.A.ppp[1].queue flowQueueingTime:vector:mean -nan
scalar BgpNetwork.A.ppp[1].queue flowQueueingTime:vector:stddev nan
scalar BgpNetwork.A.ppp[1].queue flowQueueingTime:vector:min inf
scalar BgpNetwork.A.ppp[1].queue flowQueueingTime:vector:max -inf
scalar BgpNetwork.A.ppp[1].queue flowQueueingTime:vector:starttime nan
scalar BgpNetwork.A.ppp[1].queue flowQueueingTime:vector:endtime nan
scalar BgpNetwork.A.ppp[1].queue flowIncomingDataRate:vector:count 0
scalar BgpNetwork.A.ppp[1].queue flowIncomingDataRate:vector:sum 0
scalar BgpNetwork.A.ppp[1].queue flowIncomingDataRate:vector:sumweights 0
scalar BgpNetwork.A.ppp[1].queue flowIncomingDataRate:vector:mean -nan
scalar BgpNetwork.A.ppp[1].queue flowIncomingDataRate:vector:stddev nan
scalar BgpNetwork.A.ppp[1].queue flowIncomingDataRate:vector:min inf
scalar BgpNetwork.A.ppp[1].queue flowIncomingDataRate:vector:max -inf
scalar BgpNetwork.A.ppp[1].queue flowIncomingDataRate:vector:starttime nan
scalar BgpNetwork.A.ppp[1].queue flowIncomingDataRate:vector:endtime nan
scalar BgpNetwork.A.ppp[1].queue flowOutgoingDataRate:vector:count 0
scalar BgpNetwork.A.ppp[1].queue flowOutgoingDataRate:vector:sum 0
scalar BgpNetwork.A.ppp[1].queue flowOutgoingDataRate:vector:sumweights 0
scalar BgpNetwork.A.ppp[1].queue flowOutgoingDataRate:vector:mean -nan
scalar BgpNetwork.A.ppp[1].queue flowOutgoingDataRate:vector:stddev nan
scalar BgpNetwork.A.ppp[1].queue flowOutgoingDataRate:vector:min inf
scalar BgpNetwork.A.ppp[1].queue flowOutgoingDataRate:vector:max -inf
scalar BgpNetwork.A.ppp[1].queue flowOutgoingDataRate:vector:starttime nan
scalar BgpNetwork.A.ppp[1].queue flowOutgoingDataRate:vector:endtime nan
scalar BgpNetwork.A.ppp[1].ppp transmissionState:vector:count 0
scalar BgpNetwork.A.ppp[1].ppp transmissionState:vector:sum 0
scalar BgpNetwork.A.ppp[1].ppp transmissionState:vector:sumweights 0
scalar BgpNetwork.A.ppp[1].ppp transmissionState:vector:mean -nan
scalar BgpNetwork.A.ppp[1].ppp transmissionState:vector:stddev nan
scalar BgpNetwork.A.ppp[1].ppp transmissionState:vector:min inf
scalar BgpNetwork.A.ppp[1].ppp transmissionState:vector:max -inf
scalar BgpNetwork.A.ppp[1].ppp transmissionState:vector:starttime nan
scalar BgpNetwork.A.ppp[1].ppp transmissionState:vector:endtime nan
scalar BgpNetwork.A.ppp[1].ppp txPk:vector(packetBytes):count 0
scalar BgpNetwork.A.ppp[1].ppp txPk:vector(packetBytes):sum 0
scalar BgpNetwork.A.ppp[1].ppp txPk:vector(packetBytes):sumweights 0
scalar BgpNetwork.A.ppp[1].ppp txPk:vector(packetBytes):mean -nan
scalar BgpNetwork.A.ppp[1].ppp txPk:vector(packetBytes):stddev nan
scalar BgpNetwork.A.ppp[1].ppp txPk:vector(packetBytes):min inf
scalar BgpNetwork.A.ppp[1].ppp txPk:vector(packetBytes):max -inf
scalar BgpNetwork.A.ppp[1].ppp txPk:vector(packetBytes):starttime nan
scalar BgpNetwork.A.ppp[1].ppp txPk:vector(packetBytes):endtime nan
scalar BgpNetwork.A.ppp[1].ppp rxPkOk:vector(packetBytes):count 0
scalar BgpNetwork.A.ppp[1].ppp rxPkOk:vector(packetBytes):sum 0
scalar BgpNetwork.A.ppp[1].ppp rxPkOk:vector(packetBytes):sumweights 0
scalar BgpNetwork.A.ppp[1].ppp rxPkOk:vector(packetBytes):mean -nan
scalar BgpNetwork.A.ppp[1].ppp rxPkOk:vector(packetBytes):stddev nan
scalar BgpNetwork.A.ppp[1].ppp rxPkOk:vector(packetBytes):min inf
scalar BgpNetwork.A.ppp[1].ppp rxPkOk:vector(packetBytes):max -inf
scalar BgpNetwork.A.ppp[1].ppp rxPkOk:vector(packetBytes):starttime nan
scalar BgpNetwork.A.ppp[1].ppp rxPkOk:vector(packetBytes):endtime nan
scalar BgpNetwork.A.ppp[1].ppp packetDropIncorrectlyReceived:vector(packetBytes):count 0
scalar BgpNetwork.A.ppp[1].ppp packetDropIncorrectlyReceived:vector(packetBytes):sum 0
scalar BgpNetwork.A.ppp[1].ppp packetDropIncorrectlyReceived:vector(packetBytes):sumweights 0
scalar BgpNetwork.A.ppp[1].ppp packetDropIncorrectlyReceived:vector(packetBytes):mean -nan
scalar BgpNetwork.A.ppp[1].ppp packetDropIncorrectlyReceived:vector(packetBytes):stddev nan
scalar BgpNetwork.A.ppp[1].ppp packetDropIncorrectlyReceived:vector(packetBytes):min inf
scalar BgpNetwork.A.ppp[1].ppp packetDropIncorrectlyReceived:vector(packetBytes):max -inf
scalar BgpNetwork.A.ppp[1].ppp packetDropIncorrectlyReceived:vector(packetBytes):starttime nan
scalar BgpNetwork.A.ppp[1].ppp packetDropIncorrectlyReceived:vector(packetBytes):endtime nan
scalar BgpNetwork.A.ppp[1].ppp packetDropInterfaceDown:vector(packetBytes):count 0
scalar BgpNetwork.A.ppp[1].ppp packetDropInterfaceDown:vector(packetBytes):sum 0
scalar BgpNetwork.A.ppp[1].ppp packetDropInterfaceDown:vector(packetBytes):sumweights 0
scalar BgpNetwork.A.ppp[1].ppp packetDropInterfaceDown:vector(packetBytes):mean -nan
scalar BgpNetwork.A.ppp[1].ppp packetDropInterfaceDown:vector(packetBytes):stddev nan
scalar BgpNetwork.A.ppp[1].ppp packetDropInterfaceDown:vector(packetBytes):min inf
scalar BgpNetwork.A.ppp[1].ppp packetDropInterfaceDown:vector(packetBytes):max -inf
scalar BgpNetwork.A.ppp[1].ppp packetDropInterfaceDown:vector(packetBytes):starttime nan
scalar BgpNetwork.A.ppp[1].ppp packetDropInterfaceDown:vector(packetBytes):endtime nan
scalar BgpNetwork.A.ppp[1].ppp rcvdPkFromHl:vector(packetBytes):count 0
scalar BgpNetwork.A.ppp[1].ppp rcvdPkFromHl:vector(packetBytes):sum 0
scalar BgpNetwork.A.ppp[1].ppp rcvdPkFromHl:vector(packetBytes):sumweights 0
scalar BgpNetwork.A.ppp[1].ppp rcvdPkFromHl:vector(packetBytes):mean -nan
scalar BgpNetwork.A.ppp[1].ppp rcvdPkFromHl:vector(packetBytes):stddev nan
scalar BgpNetwork.A.ppp[1].ppp rcvdPkFromHl:vector(packetBytes):min inf
scalar BgpNetwork.A.ppp[1].ppp rcvdPkFromHl:vector(packetBytes):max -inf
scalar BgpNetwork.A.ppp[1].ppp rcvdPkFromHl:vector(packetBytes):starttime nan
scalar BgpNetwork.A.ppp[1].ppp rcvdPkFromHl:vector(packetBytes):endtime nan
scalar BgpNetwork.A.ppp[1].ppp passedUpPk:vector(packetBytes):count 0
scalar BgpNetwork.A.ppp[1].ppp passedUpPk:vector(packetBytes):sum 0
scalar BgpNetwork.A.ppp[1].ppp passedUpPk:vector(packetBytes):sumweights 0
scalar BgpNetwork.A.ppp[1].ppp passedUpPk:vector(packetBytes):mean -nan
scalar BgpNetwork.A.ppp[1].ppp passedUpPk:vector(packetBytes):stddev nan
scalar BgpNetwork.A.ppp[1].ppp passedUpPk:vector(packetBytes):min inf
scalar BgpNetwork.A.ppp[1].ppp passedUpPk:vector(packetBytes):max -inf
scalar BgpNetwork.A.ppp[1].ppp passedUpPk:vector(packetBytes):starttime nan
scalar BgpNetwork.A.ppp[1].ppp passedUpPk:vector(packetBytes):endtime nan
scalar BgpNetwork.A.ppp[1] packetDropInterfaceDown:vector(packetBytes):count 0
scalar BgpNetwork.A.ppp[1] packetDropInterfaceDown:vector(packetBytes):sum 0
scalar BgpNetwork.A.ppp[1] packetDropInterfaceDown:vector(packetBytes):sumweights 0
scalar BgpNetwork.A.ppp[1] packetDropInterfaceDown:vector(packetBytes):mean -nan
scalar BgpNetwork.A.ppp[1] packetDropInterfaceDown:vector(packetBytes):stddev nan
scalar BgpNetwork.A.ppp[1] packetDropInterfaceDown:vector(packetBytes):min inf
scalar BgpNetwork.A.ppp[1] packetDropInterfaceDown:vector(packetBytes):max -inf
scalar BgpNetwork.A.ppp[1] packetDropInterfaceDown:vector(packetBytes):starttime nan
scalar BgpNetwork.A.ppp[1] packetDropInterfaceDown:vector(packetBytes):endtime nan
scalar BgpNetwork.A.ppp[1] packetDropNoCarrier:vector(packetBytes):count 0
scalar BgpNetwork.A.ppp[1] packetDropNoCarrier:vector(packetBytes):sum 0
scalar BgpNetwork.A.ppp[1] packetDropNoCarrier:vector(packetBytes):sumweights 0
scalar BgpNetwork.A.ppp[1] packetDropNoCarrier:vector(packetBytes):mean -nan
scalar BgpNetwork.A.ppp[1] packetDropNoCarrier:vector(packetBytes):stddev nan
scalar BgpNetwork.A.ppp[1] packetDropNoCarrier:vector(packetBytes):min inf
scalar BgpNetwork.A.ppp[1] packetDropNoCarrier:vector(packetBytes):max -inf
scalar BgpNetwork.A.ppp[1] packetDropNoCarrier:vector(packetBytes):starttime nan
scalar BgpNetwork.A.ppp[1] packetDropNoCarrier:vector(packetBytes):endtime nan
scalar BgpNetwork.A.ipv4.ip packetDropAddressResolutionFailed:vector(packetBytes):count 0
scalar BgpNetwork.A.ipv4.ip packetDropAddressResolutionFailed:vector(packetBytes):sum 0
scalar BgpNetwork.A.ipv4.ip packetDropAddressResolutionFailed:vector(packetBytes):sumweights 0
scalar BgpNetwork.A.ipv4.ip packetDropAddressResolutionFailed:vector(packetBytes):mean -nan
scalar BgpNetwork.A.ipv4.ip packetDropAddressResolutionFailed:vector(packetBytes):stddev nan
scalar BgpNetwork.A.ipv4.ip packetDropAddressResolutionFailed:vector(packetBytes):min inf
scalar BgpNetwork.A.ipv4.ip packetDropAddressResolutionFailed:vector(packetBytes):max -inf
scalar BgpNetwork.A.ipv4.ip packetDropAddressResolutionFailed:vector(packetBytes):starttime nan
scalar BgpNetwork.A.ipv4.ip packetDropAddressResolutionFailed:vector(packetBytes):endtime nan
scalar BgpNetwork.A.ipv4.ip packetDropHopLimitReached:vector(packetBytes):count 0
scalar BgpNetwork.A.ipv4.ip packetDropHopLimitReached:vector(packetBytes):sum 0
scalar BgpNetwork.A.ipv4.ip packetDropHopLimitReached:vector(packetBytes):sumweights 0
scalar BgpNetwork.A.ipv4.ip packetDropHopLimitReached:vector(packetBytes):mean -nan
scalar BgpNetwork.A.ipv4.ip packetDropHopLimitReached:vector(packetBytes):stddev nan
scalar BgpNetwork.A.ipv4.ip packetDropHopLimitReached:vector(packetBytes):min inf
scalar BgpNetwork.A.ipv4.ip packetDropHopLimitReached:vector(packetBytes):max -inf
scalar BgpNetwork.A.ipv4.ip packetDropHopLimitReached:vector(packetBytes):starttime nan
scalar BgpNetwork.A.ipv4.ip packetDropHopLimitReached:vector(packetBytes):endtime nan
scalar BgpNetwork.A.ipv4.ip packetDropForwardingDisabled:vector(packetBytes):count 0
scalar BgpNetwork.A.ipv4.ip packetDropForwardingDisabled:vector(packetBytes):sum 0
scalar BgpNetwork.A.ipv4.ip packetDropForwardingDisabled:vector(packetBytes):sumweights 0
scalar BgpNetwork.A.ipv4.ip packetDropForwardingDisabled:vector(packetBytes):mean -nan
scalar BgpNetwork.A.ipv4.ip packetDropForwardingDisabled:vector(packetBytes):stddev nan
scalar BgpNetwork.A.ipv4.ip packetDropForwardingDisabled:vector(packetBytes):min inf
scalar BgpNetwork.A.ipv4.ip packetDropForwardingDisabled:vector(packetBytes):max -inf
scalar BgpNetwork.A.ipv4.ip packetDropForwardingDisabled:vector(packetBytes):starttime nan
scalar BgpNetwork.A.ipv4.ip packetDropForwardingDisabled:vector(packetBytes):endtime nan
scalar BgpNetwork.A.ipv4.ip packetDropLifetimeExpired:vector(packetBytes):count 0
scalar BgpNetwork.A.ipv4.ip packetDropLifetimeExpired:vector(packetBytes):sum 0
scalar BgpNetwork.A.ipv4.ip packetDropLifetimeExpired:vector(packetBytes):sumweights 0
scalar BgpNetwork.A.ipv4.ip packetDropLifetimeExpired:vector(packetBytes):mean -nan
scalar BgpNetwork.A.ipv4.ip packetDropLifetimeExpired:vector(packetBytes):stddev nan
scalar BgpNetwork.A.ipv4.ip packetDropLifetimeExpired:vector(packetBytes):min inf
scalar BgpNetwork.A.ipv4.ip packetDropLifetimeExpired:vector(packetBytes):max -inf
scalar BgpNetwork.A.ipv4.ip packetDropLifetimeExpired:vector(packetBytes):starttime nan
scalar BgpNetwork.A.ipv4.ip packetDropLifetimeExpired:vector(packetBytes):endtime nan
scalar BgpNetwork.A.ipv4.ip packetDropNoInterfaceFound:vector(packetBytes):count 0
scalar BgpNetwork.A.ipv4.ip packetDropNoInterfaceFound:vector(packetBytes):sum 0
scalar BgpNetwork.A.ipv4.ip packetDropNoInterfaceFound:vector(packetBytes):sumweights 0
scalar BgpNetwork.A.ipv4.ip packetDropNoInterfaceFound:vector(packetBytes):mean -nan
scalar BgpNetwork.A.ipv4.ip packetDropNoInterfaceFound:vector(packetBytes):stddev nan
scalar BgpNetwork.A.ipv4.ip packetDropNoInterfaceFound:vector(packetBytes):min inf
scalar BgpNetwork.A.ipv4.ip packetDropNoInterfaceFound:vector(packetBytes):max -inf
scalar BgpNetwork.A.ipv4.ip packetDropNoInterfaceFound:vector(packetBytes):starttime nan
scalar BgpNetwork.A.ipv4.ip packetDropNoInterfaceFound:vector(packetBytes):endtime nan
scalar BgpNetwork.A.ipv4.ip packetDropNoRouteFound:vector(packetBytes):count 0
scalar BgpNetwork.A.ipv4.ip packetDropNoRouteFound:vector(packetBytes):sum 0
scalar BgpNetwork.A.ipv4.ip packetDropNoRouteFound:vector(packetBytes):sumweights 0
scalar BgpNetwork.A.ipv4.ip packetDropNoRouteFound:vector(packetBytes):mean -nan
scalar BgpNetwork.A.ipv4.ip packetDropNoRouteFound:vector(packetBytes):stddev nan
scalar BgpNetwork.A.ipv4.ip packetDropNoRouteFound:vector(packetBytes):min inf
scalar BgpNetwork.A.ipv4.ip packetDropNoRouteFound:vector(packetBytes):max -inf
scalar BgpNetwork.A.ipv4.ip packetDropNoRouteFound:vector(packetBytes):starttime nan
scalar BgpNetwork.A.ipv4.ip packetDropNoRouteFound:vector(packetBytes):endtime nan
scalar BgpNetwork.A.ipv4.ip packetDropUndefined:vector(packetBytes):count 0
scalar BgpNetwork.A.ipv4.ip packetDropUndefined:vector(packetBytes):sum 0
scalar BgpNetwork.A.ipv4.ip packetDropUndefined:vector(packetBytes):sumweights 0
scalar BgpNetwork.A.ipv4.ip packetDropUndefined:vector(packetBytes):mean -nan
scalar BgpNetwork.A.ipv4.ip packetDropUndefined:vector(packetBytes):stddev nan
scalar BgpNetwork.A.ipv4.ip packetDropUndefined:vector(packetBytes):min inf
scalar BgpNetwork.A.ipv4.ip packetDropUndefined:vector(packetBytes):max -inf
scalar BgpNetwork.A.ipv4.ip packetDropUndefined:vector(packetBytes):starttime nan
scalar BgpNetwork.A.ipv4.ip packetDropUndefined:vector(packetBytes):endtime nan
scalar BgpNetwork.A.ipv4.arp arpRequestSent:vector(packetBytes):count 0
scalar BgpNetwork.A.ipv4.arp arpRequestSent:vector(packetBytes):sum 0
scalar BgpNetwork.A.ipv4.arp arpRequestSent:vector(packetBytes):sumweights 0
scalar BgpNetwork.A.ipv4.arp arpRequestSent:vector(packetBytes):mean -nan
scalar BgpNetwork.A.ipv4.arp arpRequestSent:vector(packetBytes):stddev nan
scalar BgpNetwork.A.ipv4.arp arpRequestSent:vector(packetBytes):min inf
scalar BgpNetwork.A.ipv4.arp arpRequestSent:vector(packetBytes):max -inf
scalar BgpNetwork.A.ipv4.arp arpRequestSent:vector(packetBytes):starttime nan
scalar BgpNetwork.A.ipv4.arp arpRequestSent:vector(packetBytes):endtime nan
scalar BgpNetwork.A.ipv4.arp arpReplySent:vector(packetBytes):count 0
scalar BgpNetwork.A.ipv4.arp arpReplySent:vector(packetBytes):sum 0
scalar BgpNetwork.A.ipv4.arp arpReplySent:vector(packetBytes):sumweights 0
scalar BgpNetwork.A.ipv4.arp arpReplySent:vector(packetBytes):mean -nan
scalar BgpNetwork.A.ipv4.arp arpReplySent:vector(packetBytes):stddev nan
scalar BgpNetwork.A.ipv4.arp arpReplySent:vector(packetBytes):min inf
scalar BgpNetwork.A.ipv4.arp arpReplySent:vector(packetBytes):max -inf
scalar BgpNetwork.A.ipv4.arp arpReplySent:vector(packetBytes):starttime nan
scalar BgpNetwork.A.ipv4.arp arpReplySent:vector(packetBytes):endtime nan
scalar BgpNetwork.B.lo[0].lo rcvdPkFromHl:vector(packetBytes):count 0
scalar BgpNetwork.B.lo[0].lo rcvdPkFromHl:vector(packetBytes):sum 0
scalar BgpNetwork.B.lo[0].lo rcvdPkFromHl:vector(packetBytes):sumweights 0
scalar BgpNetwork.B.lo[0].lo rcvdPkFromHl:vector(packetBytes):mean -nan
scalar BgpNetwork.B.lo[0].lo rcvdPkFromHl:vector(packetBytes):stddev nan
scalar BgpNetwork.B.lo[0].lo rcvdPkFromHl:vector(packetBytes):min inf
scalar BgpNetwork.B.lo[0].lo rcvdPkFromHl:vector(packetBytes):max -inf
scalar BgpNetwork.B.lo[0].lo rcvdPkFromHl:vector(packetBytes):starttime nan
scalar BgpNetwork.B.lo[0].lo rcvdPkFromHl:vector(packetBytes):endtime nan
scalar BgpNetwork.B.lo[0].lo passedUpPk:vector(packetBytes):count 0
scalar BgpNetwork.B.lo[0].lo passedUpPk:vector(packetBytes):sum 0
scalar BgpNetwork.B.lo[0].lo passedUpPk:vector(packetBytes):sumweights 0
scalar BgpNetwork.B.lo[0].lo passedUpPk:vector(packetBytes):mean -nan
scalar BgpNetwork.B.lo[0].lo passedUpPk:vector(packetBytes):stddev nan
scalar BgpNetwork.B.lo[0].lo passedUpPk:vector(packetBytes):min inf
scalar BgpNetwork.B.lo[0].lo passedUpPk:vector(packetBytes):max -inf
scalar BgpNetwork.B.lo[0].lo passedUpPk:vector(packetBytes):starttime nan
scalar BgpNetwork.B.lo[0].lo passedUpPk:vector(packetBytes):endtime nan
scalar BgpNetwork.B.lo[0] packetDropInterfaceDown:vector(packetBytes):count 0
scalar BgpNetwork.B.lo[0] packetDropInterfaceDown:vector(packetBytes):sum 0
scalar BgpNetwork.B.lo[0] packetDropInterfaceDown:vector(packetBytes):sumweights 0
scalar BgpNetwork.B.lo[0] packetDropInterfaceDown:vector(packetBytes):mean -nan
scalar BgpNetwork.B.lo[0] packetDropInterfaceDown:vector(packetBytes):stddev nan
scalar BgpNetwork.B.lo[0] packetDropInterfaceDown:vector(packetBytes):min inf
scalar BgpNetwork.B.lo[0] packetDropInterfaceDown:vector(packetBytes):max -inf
scalar BgpNetwork.B.lo[0] packetDropInterfaceDown:vector(packetBytes):starttime nan
scalar BgpNetwork.B.lo[0] packetDropInterfaceDown:vector(packetBytes):endtime nan
scalar BgpNetwork.B.lo[0] packetDropNoCarrier:vector(packetBytes):count 0
scalar BgpNetwork.B.lo[0] packetDropNoCarrier:vector(packetBytes):sum 0
scalar BgpNetwork.B.lo[0] packetDropNoCarrier:vector(packetBytes):sumweights 0
scalar BgpNetwork.B.lo[0] packetDropNoCarrier:vector(packetBytes):mean -nan
scalar BgpNetwork.B.lo[0] packetDropNoCarrier:vector(packetBytes):stddev nan
scalar BgpNetwork.B.lo[0] packetDropNoCarrier:vector(packetBytes):min inf
scalar BgpNetwork.B.lo[0] packetDropNoCarrier:vector(packetBytes):max -inf
scalar BgpNetwork.B.lo[0] packetDropNoCarrier:vector(packetBytes):starttime nan
scalar BgpNetwork.B.lo[0] packetDropNoCarrier:vector(packetBytes):endtime nan
scalar BgpNetwork.B.ppp[0].queue queueLength:vector:count 0
scalar BgpNetwork.B.ppp[0].queue queueLength:vector:sum 0
scalar BgpNetwork.B.ppp[0].queue queueLength:vector:sumweights 0
scalar BgpNetwork.B.ppp[0].queue queueLength:vector:mean -nan
scalar BgpNetwork.B.ppp[0].queue queueLength:vector:stddev nan
scalar BgpNetwork.B.ppp[0].queue queueLength:vector:min inf
scalar BgpNetwork.B.ppp[0].queue queueLength:vector:max -inf
scalar BgpNetwork.B.ppp[0].queue queueLength:vector:starttime nan
scalar BgpNetwork.B.ppp[0].queue queueLength:vector:endtime nan
scalar BgpNetwork.B.ppp[0].queue queueBitLength:vector:count 0
scalar BgpNetwork.B.ppp[0].queue queueBitLength:vector:sum 0
scalar BgpNetwork.B.ppp[0].queue queueBitLength:vector:sumweights 0
scalar BgpNetwork.B.ppp[0].queue queueBitLength:vector:mean -nan
scalar BgpNetwork.B.ppp[0].queue queueBitLength:vector:stddev nan
scalar BgpNetwork.B.ppp[0].queue queueBitLength:vector:min inf
scalar BgpNetwork.B.ppp[0].queue queueBitLength:vector:max -inf
scalar BgpNetwork.B.ppp[0].queue queueBitLength:vector:starttime nan
scalar BgpNetwork.B.ppp[0].queue queueBitLength:vector:endtime nan
scalar BgpNetwork.B.ppp[0].queue queueingTime:vector:count 0
scalar BgpNetwork.B.ppp[0].queue queueingTime:vector:sum 0
scalar BgpNetwork.B.ppp[0].queue queueingTime:vector:sumweights 0
scalar BgpNetwork.B.ppp[0].queue queueingTime:vector:mean -nan
scalar BgpNetwork.B.ppp[0].queue queueingTime:vector:stddev nan
scalar BgpNetwork.B.ppp[0].queue queueingTime:vector:min inf
scalar BgpNetwork.B.ppp[0].queue queueingTime:vector:max -inf
scalar BgpNetwork.B.ppp[0].queue queueingTime:vector:starttime nan
scalar BgpNetwork.B.ppp[0].queue queueingTime:vector:endtime nan
scalar BgpNetwork.B.ppp[0].queue incomingPacketLengths:vector:count 0
scalar BgpNetwork.B.ppp[0].queue incomingPacketLengths:vector:sum 0
scalar BgpNetwork.B.ppp[0].queue incomingPacketLengths:vector:sumweights 0
scalar BgpNetwork.B.ppp[0].queue incomingPacketLengths:vector:mean -nan
scalar BgpNetwork.B.ppp[0].queue incomingPacketLengths:vector:stddev nan
scalar BgpNetwork.B.ppp[0].queue incomingPacketLengths:vector:min inf
scalar BgpNetwork.B.ppp[0].queue incomingPacketLengths:vector:max -inf
scalar BgpNetwork.B.ppp[0].queue incomingPacketLengths:vector:starttime nan
scalar BgpNetwork.B.ppp[0].queue incomingPacketLengths:vector:endtime nan
scalar BgpNetwork.B.ppp[0].queue incomingDataRate:vector:count 0
scalar BgpNetwork.B.ppp[0].queue incomingDataRate:vector:sum 0
scalar BgpNetwork.B.ppp[0].queue incomingDataRate:vector:sumweights 0
scalar BgpNetwork.B.ppp[0].queue incomingDataRate:vector:mean -nan
scalar BgpNetwork.B.ppp[0].queue incomingDataRate:vector:stddev nan
scalar BgpNetwork.B.ppp[0].queue incomingDataRate:vector:min inf
scalar BgpNetwork.B.ppp[0].queue incomingDataRate:vector:max -inf
scalar BgpNetwork.B.ppp[0].queue incomingDataRate:vector:starttime nan
scalar BgpNetwork.B.ppp[0].queue incomingDataRate:vector:endtime nan
scalar BgpNetwork.B.ppp[0].queue outgoingPacketLengths:vector:count 0
scalar BgpNetwork.B.ppp[0].queue outgoingPacketLengths:vector:sum 0
scalar BgpNetwork.B.ppp[0].queue outgoingPacketLengths:vector:sumweights 0
scalar BgpNetwork.B.ppp[0].queue outgoingPacketLengths:vector:mean -nan
scalar BgpNetwork.B.ppp[0].queue outgoingPacketLengths:vector:stddev nan
scalar BgpNetwork.B.ppp[0].queue outgoingPacketLengths:vector:min inf
scalar BgpNetwork.B.ppp[0].queue outgoingPacketLengths:vector:max -inf
scalar BgpNetwork.B.ppp[0].queue outgoingPacketLengths:vector:starttime nan
scalar BgpNetwork.B.ppp[0].queue outgoingPacketLengths:vector:endtime nan
scalar BgpNetwork.B.ppp[0].queue outgoingDataRate:vector:count 0
scalar BgpNetwork.B.ppp[0].queue outgoingDataRate:vector:sum 0
scalar BgpNetwork.B.ppp[0].queue outgoingDataRate:vector:sumweights 0
scalar BgpNetwork.B.ppp[0].queue outgoingDataRate:vector:mean -nan
scalar BgpNetwork.B.ppp[0].queue outgoingDataRate:vector:stddev nan
scalar BgpNetwork.B.ppp[0].queue outgoingDataRate:vector:min inf
scalar BgpNetwork.B.ppp[0].queue outgoingDataRate:vector:max -inf
scalar BgpNetwork.B.ppp[0].queue outgoingDataRate:vector:starttime nan
scalar BgpNetwork.B.ppp[0].queue outgoingDataRate:vector:endtime nan
scalar BgpNetwork.B.ppp[0].queue droppedPacketLengthsQueueOverflow:vector:count 0
scalar BgpNetwork.B.ppp[0].queue droppedPacketLengthsQueueOverflow:vector:sum 0
scalar BgpNetwork.B.ppp[0].queue droppedPacketLengthsQueueOverflow:vector:sumweights 0
scalar BgpNetwork.B.ppp[0].queue droppedPacketLengthsQueueOverflow:vector:mean -nan
scalar BgpNetwork.B.ppp[0].queue droppedPacketLengthsQueueOverflow:vector:stddev nan
scalar BgpNetwork.B.ppp[0].queue droppedPacketLengthsQueueOverflow:vector:min inf
scalar BgpNetwork.B.ppp[0].queue droppedPacketLengthsQueueOverflow:vector:max -inf
scalar BgpNetwork.B.ppp[0].queue droppedPacketLengthsQueueOverflow:vector:starttime nan
scalar BgpNetwork.B.ppp[0].queue droppedPacketLengthsQueueOverflow:vector:endtime nan
scalar BgpNetwork.B.ppp[0].queue flowQueueingTime:vector:count 0
scalar BgpNetwork.B.ppp[0].queue flowQueueingTime:vector:sum 0
scalar BgpNetwork.B.ppp[0].queue flowQueueingTime:vector:sumweights 0
scalar BgpNetwork.B.ppp[0].queue flowQueueingTime:vector:mean -nan
scalar BgpNetwork.B.ppp[0].queue flowQueueingTime:vector:stddev nan
scalar BgpNetwork.B.ppp[0].queue flowQueueingTime:vector:min inf
scalar BgpNetwork.B.ppp[0].queue flowQueueingTime:vector:max -inf
scalar BgpNetwork.B.ppp[0].queue flowQueueingTime:vector:starttime nan
scalar BgpNetwork.B.ppp[0].queue flowQueueingTime:vector:endtime nan
scalar BgpNetwork.B.ppp[0].queue flowIncomingDataRate:vector:count 0
scalar BgpNetwork.B.ppp[0].queue flowIncomingDataRate:vector:sum 0
scalar BgpNetwork.B.ppp[0].queue flowIncomingDataRate:vector:sumweights 0
scalar BgpNetwork.B.ppp[0].queue flowIncomingDataRate:vector:mean -nan
scalar BgpNetwork.B.ppp[0].queue flowIncomingDataRate:vector:stddev nan
scalar BgpNetwork.B.ppp[0].queue flowIncomingDataRate:vector:min inf
scalar BgpNetwork.B.ppp[0].queue flowIncomingDataRate:vector:max -inf
scalar BgpNetwork.B.ppp[0].queue flowIncomingDataRate:vector:starttime nan
scalar BgpNetwork.B.ppp[0].queue flowIncomingDataRate:vector:endtime nan
scalar BgpNetwork.B.ppp[0].queue flowOutgoingDataRate:vector:count 0
scalar BgpNetwork.B.ppp[0].queue flowOutgoingDataRate:vector:sum 0
scalar BgpNetwork.B.ppp[0].queue flowOutgoingDataRate:vector:sumweights 0
scalar BgpNetwork.B.ppp[0].queue flowOutgoingDataRate:vector:mean -nan
scalar BgpNetwork.B.ppp[0].queue flowOutgoingDataRate:vector:stddev nan
scalar BgpNetwork.B.ppp[0].queue flowOutgoingDataRate:vector:min inf
scalar BgpNetwork.B.ppp[0].queue flowOutgoingDataRate:vector:max -inf
scalar BgpNetwork.B.ppp[0].queue flowOutgoingDataRate:vector:starttime nan
scalar BgpNetwork.B.ppp[0].queue flowOutgoingDataRate:vector:endtime nan
scalar BgpNetwork.B.ppp[0].ppp transmissionState:vector:count 0
scalar BgpNetwork.B.ppp[0].ppp transmissionState:vector:sum 0
scalar BgpNetwork.B.ppp[0].ppp transmissionState:vector:sumweights 0
scalar BgpNetwork.B.ppp[0].ppp transmissionState:vector:mean -nan
scalar BgpNetwork.B.ppp[0].ppp transmissionState:vector:stddev nan
scalar BgpNetwork.B.ppp[0].ppp transmissionState:vector:min inf
scalar BgpNetwork.B.ppp[0].ppp transmissionState:vector:max -inf
scalar BgpNetwork.B.ppp[0].ppp transmissionState:vector:starttime nan
scalar BgpNetwork.B.ppp[0].ppp transmissionState:vector:endtime nan
scalar BgpNetwork.B.ppp[0].ppp txPk:vector(packetBytes):count 0
scalar BgpNetwork.B.ppp[0].ppp txPk:vector(packetBytes):sum 0
scalar BgpNetwork.B.ppp[0].ppp txPk:vector(packetBytes):sumweights 0
scalar BgpNetwork.B.ppp[0].ppp txPk:vector(packetBytes):mean -nan
scalar BgpNetwork.B.ppp[0].ppp txPk:vector(packetBytes):stddev nan
scalar BgpNetwork.B.ppp[0].ppp txPk:vector(packetBytes):min inf
scalar BgpNetwork.B.ppp[0].ppp txPk:vector(packetBytes):max -inf
scalar BgpNetwork.B.ppp[0].ppp txPk:vector(packetBytes):starttime nan
scalar BgpNetwork.B.ppp[0].ppp txPk:vector(packetBytes):endtime nan
scalar BgpNetwork.B.ppp[0].ppp rxPkOk:vector(packetBytes):count 0
scalar BgpNetwork.B.ppp[0].ppp rxPkOk:vector(packetBytes):sum 0
scalar BgpNetwork.B.ppp[0].ppp rxPkOk:vector(packetBytes):sumweights 0
scalar BgpNetwork.B.ppp[0].ppp rxPkOk:vector(packetBytes):mean -nan
scalar BgpNetwork.B.ppp[0].ppp rxPkOk:vector(packetBytes):stddev nan
scalar BgpNetwork.B.ppp[0].ppp rxPkOk:vector(packetBytes):min inf
scalar BgpNetwork.B.ppp[0].ppp rxPkOk:vector(packetBytes):max -inf
scalar BgpNetwork.B.ppp[0].ppp rxPkOk:vector(packetBytes):starttime nan
scalar BgpNetwork.B.ppp[0].ppp rxPkOk:vector(packetBytes):endtime nan
scalar BgpNetwork.B.ppp[0].ppp packetDropIncorrectlyReceived:vector(packetBytes):count 0
scalar BgpNetwork.B.ppp[0].ppp packetDropIncorrectlyReceived:vector(packetBytes):sum 0
scalar BgpNetwork.B.ppp[0].ppp packetDropIncorrectlyReceived:vector(packetBytes):sumweights 0
scalar BgpNetwork.B.ppp[0].ppp packetDropIncorrectlyReceived:vector(packetBytes):mean -nan
scalar BgpNetwork.B.ppp[0].ppp packetDropIncorrectlyReceived:vector(packetBytes):stddev nan
scalar BgpNetwork.B.ppp[0].ppp packetDropIncorrectlyReceived:vector(packetBytes):min inf
scalar BgpNetwork.B.ppp[0].ppp packetDropIncorrectlyReceived:vector(packetBytes):max -inf
scalar BgpNetwork.B.ppp[0].ppp packetDropIncorrectlyReceived:vector(packetBytes):starttime nan
scalar BgpNetwork.B.ppp[0].ppp packetDropIncorrectlyReceived:vector(packetBytes):endtime nan
scalar BgpNetwork.B.ppp[0].ppp packetDropInterfaceDown:vector(packetBytes):count 0
scalar BgpNetwork.B.ppp[0].ppp packetDropInterfaceDown:vector(packetBytes):sum 0
scalar BgpNetwork.B.ppp[0].ppp packetDropInterfaceDown:vector(packetBytes):sumweights 0
scalar BgpNetwork.B.ppp[0].ppp packetDropInterfaceDown:vector(packetBytes):mean -nan
scalar BgpNetwork.B.ppp[0].ppp packetDropInterfaceDown:vector(packetBytes):stddev nan
scalar BgpNetwork.B.ppp[0].ppp packetDropInterfaceDown:vector(packetBytes):min inf
scalar BgpNetwork.B.ppp[0].ppp packetDropInterfaceDown:vector(packetBytes):max -inf
scalar BgpNetwork.B.ppp[0].ppp packetDropInterfaceDown:vector(packetBytes):starttime nan
scalar BgpNetwork.B.ppp[0].ppp packetDropInterfaceDown:vector(packetBytes):endtime nan
scalar BgpNetwork.B.ppp[0].ppp rcvdPkFromHl:vector(packetBytes):count 0
scalar BgpNetwork.B.ppp[0].ppp rcvdPkFromHl:vector(packetBytes):sum 0
scalar BgpNetwork.B.ppp[0].ppp rcvdPkFromHl:vector(packetBytes):sumweights 0
scalar BgpNetwork.B.ppp[0].ppp rcvdPkFromHl:vector(packetBytes):mean -nan
scalar BgpNetwork.B.ppp[0].ppp rcvdPkFromHl:vector(packetBytes):stddev nan
scalar BgpNetwork.B.ppp[0].ppp rcvdPkFromHl:vector(packetBytes):min inf
scalar BgpNetwork.B.ppp[0].ppp rcvdPkFromHl:vector(packetBytes):max -inf
scalar BgpNetwork.B.ppp[0].ppp rcvdPkFromHl:vector(packetBytes):starttime nan
scalar BgpNetwork.B.ppp[0].ppp rcvdPkFromHl:vector(packetBytes):endtime nan
scalar BgpNetwork.B.ppp[0].ppp passedUpPk:vector(packetBytes):count 0
scalar BgpNetwork.B.ppp[0].ppp passedUpPk:vector(packetBytes):sum 0
scalar BgpNetwork.B.ppp[0].ppp passedUpPk:vector(packetBytes):sumweights 0
scalar BgpNetwork.B.ppp[0].ppp passedUpPk:vector(packetBytes):mean -nan
scalar BgpNetwork.B.ppp[0].ppp passedUpPk:vector(packetBytes):stddev nan
scalar BgpNetwork.B.ppp[0].ppp passedUpPk:vector(packetBytes):min inf
scalar BgpNetwork.B.ppp[0].ppp passedUpPk:vector(packetBytes):max -inf
scalar BgpNetwork.B.ppp[0].ppp passedUpPk:vector(packetBytes):starttime nan
scalar BgpNetwork.B.ppp[0].ppp passedUpPk:vector(packetBytes):endtime nan
scalar BgpNetwork.B.ppp[0] packetDropInterfaceDown:vector(packetBytes):count 0
scalar BgpNetwork.B.ppp[0] packetDropInterfaceDown:vector(packetBytes):sum 0
scalar BgpNetwork.B.ppp[0] packetDropInterfaceDown:vector(packetBytes):sumweights 0
scalar BgpNetwork.B.ppp[0] packetDropInterfaceDown:vector(packetBytes):mean -nan
scalar BgpNetwork.B.ppp[0] packetDropInterfaceDown:vector(packetBytes):stddev nan
scalar BgpNetwork.B.ppp[0] packetDropInterfaceDown:vector(packetBytes):min inf
scalar BgpNetwork.B.ppp[0] packetDropInterfaceDown:vector(packetBytes):max -inf
scalar BgpNetwork.B.ppp[0] packetDropInterfaceDown:vector(packetBytes):starttime nan
scalar BgpNetwork.B.ppp[0] packetDropInterfaceDown:vector(packetBytes):endtime nan
scalar BgpNetwork.B.ppp[0] packetDropNoCarrier:vector(packetBytes):count 0
scalar BgpNetwork.B.ppp[0] packetDropNoCarrier:vector(packetBytes):sum 0
scalar BgpNetwork.B.ppp[0] packetDropNoCarrier:vector(packetBytes):sumweights 0
scalar BgpNetwork.B.ppp[0] packetDropNoCarrier:vector(packetBytes):mean -nan
scalar BgpNetwork.B.ppp[0] packetDropNoCarrier:vector(packetBytes):stddev nan
scalar BgpNetwork.B.ppp[0] packetDropNoCarrier:vector(packetBytes):min inf
scalar BgpNetwork.B.ppp[0] packetDropNoCarrier:vector(packetBytes):max -inf
scalar BgpNetwork.B.ppp[0] packetDropNoCarrier:vector(packetBytes):starttime nan
scalar BgpNetwork.B.ppp[0] packetDropNoCarrier:vector(packetBytes):endtime nan
scalar BgpNetwork.B.ppp[1].queue queueLength:vector:count 0
scalar BgpNetwork.B.ppp[1].queue queueLength:vector:sum 0
scalar BgpNetwork.B.ppp[1].queue queueLength:vector:sumweights 0
scalar BgpNetwork.B.ppp[1].queue queueLength:vector:mean -nan
scalar BgpNetwork.B.ppp[1].queue queueLength:vector:stddev nan
scalar BgpNetwork.B.ppp[1].queue queueLength:vector:min inf
scalar BgpNetwork.B.ppp[1].queue queueLength:vector:max -inf
scalar BgpNetwork.B.ppp[1].queue queueLength:vector:starttime nan
scalar BgpNetwork.B.ppp[1].queue queueLength:vector:endtime nan
scalar BgpNetwork.B.ppp[1].queue queueBitLength:vector:count 0
scalar BgpNetwork.B.ppp[1].queue queueBitLength:vector:sum 0
scalar BgpNetwork.B.ppp[1].queue queueBitLength:vector:sumweights 0
scalar BgpNetwork.B.ppp[1].queue queueBitLength:vector:mean -nan
scalar BgpNetwork.B.ppp[1].queue queueBitLength:vector:stddev nan
scalar BgpNetwork.B.ppp[1].queue queueBitLength:vector:min inf
scalar BgpNetwork.B.ppp[1].queue queueBitLength:vector:max -inf
scalar BgpNetwork.B.ppp[1].queue queueBitLength:vector:starttime nan
scalar BgpNetwork.B.ppp[1].queue queueBitLength:vector:endtime nan
scalar BgpNetwork.B.ppp[1].queue queueingTime:vector:count 0
scalar BgpNetwork.B.ppp[1].queue queueingTime:vector:sum 0
scalar BgpNetwork.B.ppp[1].queue queueingTime:vector:sumweights 0
scalar BgpNetwork.B.ppp[1].queue queueingTime:vector:mean -nan
scalar BgpNetwork.B.ppp[1].queue queueingTime:vector:stddev nan
scalar BgpNetwork.B.ppp[1].queue queueingTime:vector:min inf
scalar BgpNetwork.B.ppp[1].queue queueingTime:vector:max -inf
scalar BgpNetwork.B.ppp[1].queue queueingTime:vector:starttime nan
scalar BgpNetwork.B.ppp[1].queue queueingTime:vector:endtime nan
scalar BgpNetwork.B.ppp[1].queue incomingPacketLengths:vector:count 0
scalar BgpNetwork.B.ppp[1].queue incomingPacketLengths:vector:sum 0
scalar BgpNetwork.B.ppp[1].queue incomingPacketLengths:vector:sumweights 0
scalar BgpNetwork.B.ppp[1].queue incomingPacketLengths:vector:mean -nan
scalar BgpNetwork.B.ppp[1].queue incomingPacketLengths:vector:stddev nan
scalar BgpNetwork.B.ppp[1].queue incomingPacketLengths:vector:min inf
scalar BgpNetwork.B.ppp[1].queue incomingPacketLengths:vector:max -inf
scalar BgpNetwork.B.ppp[1].queue incomingPacketLengths:vector:starttime nan
scalar BgpNetwork.B.ppp[1].queue incomingPacketLengths:vector:endtime nan
scalar BgpNetwork.B.ppp[1].queue incomingDataRate:vector:count 0
scalar BgpNetwork.B.ppp[1].queue incomingDataRate:vector:sum 0
scalar BgpNetwork.B.ppp[1].queue incomingDataRate:vector:sumweights 0
scalar BgpNetwork.B.ppp[1].queue incomingDataRate:vector:mean -nan
scalar BgpNetwork.B.ppp[1].queue incomingDataRate:vector:stddev nan
scalar BgpNetwork.B.ppp[1].queue incomingDataRate:vector:min inf
scalar BgpNetwork.B.ppp[1].queue incomingDataRate:vector:max -inf
scalar BgpNetwork.B.ppp[1].queue incomingDataRate:vector:starttime nan
scalar BgpNetwork.B.ppp[1].queue incomingDataRate:vector:endtime nan
scalar BgpNetwork.B.ppp[1].queue outgoingPacketLengths:vector:count 0
scalar BgpNetwork.B.ppp[1].queue outgoingPacketLengths:vector:sum 0
scalar BgpNetwork.B.ppp[1].queue outgoingPacketLengths:vector:sumweights 0
scalar BgpNetwork.B.ppp[1].queue outgoingPacketLengths:vector:mean -nan
scalar BgpNetwork.B.ppp[1].queue outgoingPacketLengths:vector:stddev nan
scalar BgpNetwork.B.ppp[1].queue outgoingPacketLengths:vector:min inf
scalar BgpNetwork.B.ppp[1].queue outgoingPacketLengths:vector:max -inf
scalar BgpNetwork.B.ppp[1].queue outgoingPacketLengths:vector:starttime nan
scalar BgpNetwork.B.ppp[1].queue outgoingPacketLengths:vector:endtime nan
scalar BgpNetwork.B.ppp[1].queue outgoingDataRate:vector:count 0
scalar BgpNetwork.B.ppp[1].queue outgoingDataRate:vector:sum 0
scalar BgpNetwork.B.ppp[1].queue outgoingDataRate:vector:sumweights 0
scalar BgpNetwork.B.ppp[1].queue outgoingDataRate:vector:mean -nan
scalar BgpNetwork.B.ppp[1].queue outgoingDataRate:vector:stddev nan
scalar BgpNetwork.B.ppp[1].queue outgoingDataRate:vector:min inf
scalar BgpNetwork.B.ppp[1].queue outgoingDataRate:vector:max -inf
scalar BgpNetwork.B.ppp[1].queue outgoingDataRate:vector:starttime nan
scalar BgpNetwork.B.ppp[1].queue outgoingDataRate:vector:endtime nan
scalar BgpNetwork.B.ppp[1].queue droppedPacketLengthsQueueOverflow:vector:count 0
scalar BgpNetwork.B.ppp[1].queue droppedPacketLengthsQueueOverflow:vector:sum 0
scalar BgpNetwork.B.ppp[1].queue droppedPacketLengthsQueueOverflow:vector:sumweights 0
scalar BgpNetwork.B.ppp[1].queue droppedPacketLengthsQueueOverflow:vector:mean -nan
scalar BgpNetwork.B.ppp[1].queue droppedPacketLengthsQueueOverflow:vector:stddev nan
scalar BgpNetwork.B.ppp[1].queue droppedPacketLengthsQueueOverflow:vector:min inf
scalar BgpNetwork.B.ppp[1].queue droppedPacketLengthsQueueOverflow:vector:max -inf
scalar BgpNetwork.B.ppp[1].queue droppedPacketLengthsQueueOverflow:vector:starttime nan
scalar BgpNetwork.B.ppp[1].queue droppedPacketLengthsQueueOverflow:vector:endtime nan
scalar BgpNetwork.B.ppp[1].queue flowQueueingTime:vector:count 0
scalar BgpNetwork.B.ppp[1].queue flowQueueingTime:vector:sum 0
scalar BgpNetwork.B.ppp[1].queue flowQueueingTime:vector:sumweights 0
scalar BgpNetwork.B.ppp[1].queue flowQueueingTime:vector:mean -nan
scalar BgpNetwork.B.ppp[1].queue flowQueueingTime:vector:stddev nan
scalar BgpNetwork.B.ppp[1].queue flowQueueingTime:vector:min inf
scalar BgpNetwork.B.ppp[1].queue flowQueueingTime:vector:max -inf
scalar BgpNetwork.B.ppp[1].queue flowQueueingTime:vector:starttime nan
scalar BgpNetwork.B.ppp[1].queue flowQueueingTime:vector:endtime nan
scalar BgpNetwork.B.ppp[1].queue flowIncomingDataRate:vector:count 0
scalar BgpNetwork.B.ppp[1].queue flowIncomingDataRate:vector:sum 0
scalar BgpNetwork.B.ppp[1].queue flowIncomingDataRate:vector:sumweights 0
scalar BgpNetwork.B.ppp[1].queue flowIncomingDataRate:vector:mean -nan
scalar BgpNetwork.B.ppp[1].queue flowIncomingDataRate:vector:stddev nan
scalar BgpNetwork.B.ppp[1].queue flowIncomingDataRate:vector:min inf
scalar BgpNetwork.B.ppp[1].queue flowIncomingDataRate:vector:max -inf
scalar BgpNetwork.B.ppp[1].queue flowIncomingDataRate:vector:starttime nan
scalar BgpNetwork.B.ppp[1].queue flowIncomingDataRate:vector:endtime nan
scalar BgpNetwork.B.ppp[1].queue flowOutgoingDataRate:vector:count 0
scalar BgpNetwork.B.ppp[1].queue flowOutgoingDataRate:vector:sum 0
scalar BgpNetwork.B.ppp[1].queue flowOutgoingDataRate:vector:sumweights 0
scalar BgpNetwork.B.ppp[1].queue flowOutgoingDataRate:vector:mean -nan
scalar BgpNetwork.B.ppp[1].queue flowOutgoingDataRate:vector:stddev nan
scalar BgpNetwork.B.ppp[1].queue flowOutgoingDataRate:vector:min inf
scalar BgpNetwork.B.ppp[1].queue flowOutgoingDataRate:vector:max -inf
scalar BgpNetwork.B.ppp[1].queue flowOutgoingDataRate:vector:starttime nan
scalar BgpNetwork.B.ppp[1].queue flowOutgoingDataRate:vector:endtime nan
scalar BgpNetwork.B.ppp[1].ppp transmissionState:vector:count 0
scalar BgpNetwork.B.ppp[1].ppp transmissionState:vector:sum 0
scalar BgpNetwork.B.ppp[1].ppp transmissionState:vector:sumweights 0
scalar BgpNetwork.B.ppp[1].ppp transmissionState:vector:mean -nan
scalar BgpNetwork.B.ppp[1].ppp transmissionState:vector:stddev nan
scalar BgpNetwork.B.ppp[1].ppp transmissionState:vector:min inf
scalar BgpNetwork.B.ppp[1].ppp transmissionState:vector:max -inf
scalar BgpNetwork.B.ppp[1].ppp transmissionState:vector:starttime nan
scalar BgpNetwork.B.ppp[1].ppp transmissionState:vector:endtime nan
scalar BgpNetwork.B.ppp[1].ppp txPk:vector(packetBytes):count 0
scalar BgpNetwork.B.ppp[1].ppp txPk:vector(packetBytes):sum 0
scalar BgpNetwork.B.ppp[1].ppp txPk:vector(packetBytes):sumweights 0
scalar BgpNetwork.B.ppp[1].ppp txPk:vector(packetBytes):mean -nan
scalar BgpNetwork.B.ppp[1].ppp txPk:vector(packetBytes):stddev nan
scalar BgpNetwork.B.ppp[1].ppp txPk:vector(packetBytes):min inf
scalar BgpNetwork.B.ppp[1].ppp txPk:vector(packetBytes):max -inf
scalar BgpNetwork.B.ppp[1].ppp txPk:vector(packetBytes):starttime nan
scalar BgpNetwork.B.ppp[1].ppp txPk:vector(packetBytes):endtime nan
scalar BgpNetwork.B.ppp[1].ppp rxPkOk:vector(packetBytes):count 0
scalar BgpNetwork.B.ppp[1].ppp rxPkOk:vector(packetBytes):sum 0
scalar BgpNetwork.B.ppp[1].ppp rxPkOk:vector(packetBytes):sumweights 0
scalar BgpNetwork.B.ppp[1].ppp rxPkOk:vector(packetBytes):mean -nan
scalar BgpNetwork.B.ppp[1].ppp rxPkOk:vector(packetBytes):stddev nan
scalar BgpNetwork.B.ppp[1].ppp rxPkOk:vector(packetBytes):min inf
scalar BgpNetwork.B.ppp[1].ppp rxPkOk:vector(packetBytes):max -inf
scalar BgpNetwork.B.ppp[1].ppp rxPkOk:vector(packetBytes):starttime nan
scalar BgpNetwork.B.ppp[1].ppp rxPkOk:vector(packetBytes):endtime nan
scalar BgpNetwork.B.ppp[1].ppp packetDropIncorrectlyReceived:vector(packetBytes):count 0
scalar BgpNetwork.B.ppp[1].ppp packetDropIncorrectlyReceived:vector(packetBytes):sum 0
scalar BgpNetwork.B.ppp[1].ppp packetDropIncorrectlyReceived:vector(packetBytes):sumweights 0
scalar BgpNetwork.B.ppp[1].ppp packetDropIncorrectlyReceived:vector(packetBytes):mean -nan
scalar BgpNetwork.B.ppp[1].ppp packetDropIncorrectlyReceived:vector(packetBytes):stddev nan
scalar BgpNetwork.B.ppp[1].ppp packetDropIncorrectlyReceived:vector(packetBytes):min inf
scalar BgpNetwork.B.ppp[1].ppp packetDropIncorrectlyReceived:vector(packetBytes):max -inf
scalar BgpNetwork.B.ppp[1].ppp packetDropIncorrectlyReceived:vector(packetBytes):starttime nan
scalar BgpNetwork.B.ppp[1].ppp packetDropIncorrectlyReceived:vector(packetBytes):endtime nan
scalar BgpNetwork.B.ppp[1].ppp packetDropInterfaceDown:vector(packetBytes):count 0
scalar BgpNetwork.B.ppp[1].ppp packetDropInterfaceDown:vector(packetBytes):sum 0
scalar BgpNetwork.B.ppp[1].ppp packetDropInterfaceDown:vector(packetBytes):sumweights 0
scalar BgpNetwork.B.ppp[1].ppp packetDropInterfaceDown:vector(packetBytes):mean -nan
scalar BgpNetwork.B.ppp[1].ppp packetDropInterfaceDown:vector(packetBytes):stddev nan
scalar BgpNetwork.B.ppp[1].ppp packetDropInterfaceDown:vector(packetBytes):min inf
scalar BgpNetwork.B.ppp[1].ppp packetDropInterfaceDown:vector(packetBytes):max -inf
scalar BgpNetwork.B.ppp[1].ppp packetDropInterfaceDown:vector(packetBytes):starttime nan
scalar BgpNetwork.B.ppp[1].ppp packetDropInterfaceDown:vector(packetBytes):endtime nan
scalar BgpNetwork.B.ppp[1].ppp rcvdPkFromHl:vector(packetBytes):count 0
scalar BgpNetwork.B.ppp[1].ppp rcvdPkFromHl:vector(packetBytes):sum 0
scalar BgpNetwork.B.ppp[1].ppp rcvdPkFromHl:vector(packetBytes):sumweights 0
scalar BgpNetwork.B.ppp[1].ppp rcvdPkFromHl:vector(packetBytes):mean -nan
scalar BgpNetwork.B.ppp[1].ppp rcvdPkFromHl:vector(packetBytes):stddev nan
scalar BgpNetwork.B.ppp[1].ppp rcvdPkFromHl:vector(packetBytes):min inf
scalar BgpNetwork.B.ppp[1].ppp rcvdPkFromHl:vector(packetBytes):max -inf
scalar BgpNetwork.B.ppp[1].ppp rcvdPkFromHl:vector(packetBytes):starttime nan
scalar BgpNetwork.B.ppp[1].ppp rcvdPkFromHl:vector(packetBytes):endtime nan
scalar BgpNetwork.B.ppp[1].ppp passedUpPk:vector(packetBytes):count 0
scalar BgpNetwork.B.ppp[1].ppp passedUpPk:vector(packetBytes):sum 0
scalar BgpNetwork.B.ppp[1].ppp passedUpPk:vector(packetBytes):sumweights 0
scalar BgpNetwork.B.ppp[1].ppp passedUpPk:vector(packetBytes):mean -nan
scalar BgpNetwork.B.ppp[1].ppp passedUpPk:vector(packetBytes):stddev nan
scalar BgpNetwork.B.ppp[1].ppp passedUpPk:vector(packetBytes):min inf
scalar BgpNetwork.B.ppp[1].ppp passedUpPk:vector(packetBytes):max -inf
scalar BgpNetwork.B.ppp[1].ppp passedUpPk:vector(packetBytes):starttime nan
scalar BgpNetwork.B.ppp[1].ppp passedUpPk:vector(packetBytes):endtime nan
scalar BgpNetwork.B.ppp[1] packetDropInterfaceDown:vector(packetBytes):count 0
scalar BgpNetwork.B.ppp[1] packetDropInterfaceDown:vector(packetBytes):sum 0
scalar BgpNetwork.B.ppp[1] packetDropInterfaceDown:vector(packetBytes):sumweights 0
scalar BgpNetwork.B.ppp[1] packetDropInterfaceDown:vector(packetBytes):mean -nan
scalar BgpNetwork.B.ppp[1] packetDropInterfaceDown:vector(packetBytes):stddev nan
scalar BgpNetwork.B.ppp[1] packetDropInterfaceDown:vector(packetBytes):min inf
scalar BgpNetwork.B.ppp[1] packetDropInterfaceDown:vector(packetBytes):max -inf
scalar BgpNetwork.B.ppp[1] packetDropInterfaceDown:vector(packetBytes):starttime nan
scalar BgpNetwork.B.ppp[1] packetDropInterfaceDown:vector(packetBytes):endtime nan
scalar BgpNetwork.B.ppp[1] packetDropNoCarrier:vector(packetBytes):count 0
scalar BgpNetwork.B.ppp[1] packetDropNoCarrier:vector(packetBytes):sum 0
scalar BgpNetwork.B.ppp[1] packetDropNoCarrier:vector(packetBytes):sumweights 0
scalar BgpNetwork.B.ppp[1] packetDropNoCarrier:vector(packetBytes):mean -nan
scalar BgpNetwork.B.ppp[1] packetDropNoCarrier:vector(packetBytes):stddev nan
scalar BgpNetwork.B.ppp[1] packetDropNoCarrier:vector(packetBytes):min inf
scalar BgpNetwork.B.ppp[1] packetDropNoCarrier:vector(packetBytes):max -inf
scalar BgpNetwork.B.ppp[1] packetDropNoCarrier:vector(packetBytes):starttime nan
scalar BgpNetwork.B.ppp[1] packetDropNoCarrier:vector(packetBytes):endtime nan
scalar BgpNetwork.B.ipv4.ip packetDropAddressResolutionFailed:vector(packetBytes):count 0
scalar BgpNetwork.B.ipv4.ip packetDropAddressResolutionFailed:vector(packetBytes):sum 0
scalar BgpNetwork.B.ipv4.ip packetDropAddressResolutionFailed:vector(packetBytes):sumweights 0
scalar BgpNetwork.B.ipv4.ip packetDropAddressResolutionFailed:vector(packetBytes):mean -nan
scalar BgpNetwork.B.ipv4.ip packetDropAddressResolutionFailed:vector(packetBytes):stddev nan
scalar BgpNetwork.B.ipv4.ip packetDropAddressResolutionFailed:vector(packetBytes):min inf
scalar BgpNetwork.B.ipv4.ip packetDropAddressResolutionFailed:vector(packetBytes):max -inf
scalar BgpNetwork.B.ipv4.ip packetDropAddressResolutionFailed:vector(packetBytes):starttime nan
scalar BgpNetwork.B.ipv4.ip packetDropAddressResolutionFailed:vector(packetBytes):endtime nan
scalar BgpNetwork.B.ipv4.ip packetDropHopLimitReached:vector(packetBytes):count 0
scalar BgpNetwork.B.ipv4.ip packetDropHopLimitReached:vector(packetBytes):sum 0
scalar BgpNetwork.B.ipv4.ip packetDropHopLimitReached:vector(packetBytes):sumweights 0
scalar BgpNetwork.B.ipv4.ip packetDropHopLimitReached:vector(packetBytes):mean -nan
scalar BgpNetwork.B.ipv4.ip packetDropHopLimitReached:vector(packetBytes):stddev nan
scalar BgpNetwork.B.ipv4.ip packetDropHopLimitReached:vector(packetBytes):min inf
scalar BgpNetwork.B.ipv4.ip packetDropHopLimitReached:vector(packetBytes):max -inf
scalar BgpNetwork.B.ipv4.ip packetDropHopLimitReached:vector(packetBytes):starttime nan
scalar BgpNetwork.B.ipv4.ip packetDropHopLimitReached:vector(packetBytes):endtime nan
scalar BgpNetwork.B.ipv4.ip packetDropForwardingDisabled:vector(packetBytes):count 0
scalar BgpNetwork.B.ipv4.ip packetDropForwardingDisabled:vector(packetBytes):sum 0
scalar BgpNetwork.B.ipv4.ip packetDropForwardingDisabled:vector(packetBytes):sumweights 0
scalar BgpNetwork.B.ipv4.ip packetDropForwardingDisabled:vector(packetBytes):mean -nan
scalar BgpNetwork.B.ipv4.ip packetDropForwardingDisabled:vector(packetBytes):stddev nan
scalar BgpNetwork.B.ipv4.ip packetDropForwardingDisabled:vector(packetBytes):min inf
scalar BgpNetwork.B.ipv4.ip packetDropForwardingDisabled:vector(packetBytes):max -inf
scalar BgpNetwork.B.ipv4.ip packetDropForwardingDisabled:vector(packetBytes):starttime nan
scalar BgpNetwork.B.ipv4.ip packetDropForwardingDisabled:vector(packetBytes):endtime nan
scalar BgpNetwork.B.ipv4.ip packetDropLifetimeExpired:vector(packetBytes):count 0
scalar BgpNetwork.B.ipv4.ip packetDropLifetimeExpired:vector(packetBytes):sum 0
scalar BgpNetwork.B.ipv4.ip packetDropLifetimeExpired:vector(packetBytes):sumweights 0
scalar BgpNetwork.B.ipv4.ip packetDropLifetimeExpired:vector(packetBytes):mean -nan
scalar BgpNetwork.B.ipv4.ip packetDropLifetimeExpired:vector(packetBytes):stddev nan
scalar BgpNetwork.B.ipv4.ip packetDropLifetimeExpired:vector(packetBytes):min inf
scalar BgpNetwork.B.ipv4.ip packetDropLifetimeExpired:vector(packetBytes):max -inf
scalar BgpNetwork.B.ipv4.ip packetDropLifetimeExpired:vector(packetBytes):starttime nan
scalar BgpNetwork.B.ipv4.ip packetDropLifetimeExpired:vector(packetBytes):endtime nan
scalar BgpNetwork.B.ipv4.ip packetDropNoInterfaceFound:vector(packetBytes):count 0
scalar BgpNetwork.B.ipv4.ip packetDropNoInterfaceFound:vector(packetBytes):sum 0
scalar BgpNetwork.B.ipv4.ip packetDropNoInterfaceFound:vector(packetBytes):sumweights 0
scalar BgpNetwork.B.ipv4.ip packetDropNoInterfaceFound:vector(packetBytes):mean -nan
scalar BgpNetwork.B.ipv4.ip packetDropNoInterfaceFound:vector(packetBytes):stddev nan
scalar BgpNetwork.B.ipv4.ip packetDropNoInterfaceFound:vector(packetBytes):min inf
scalar BgpNetwork.B.ipv4.ip packetDropNoInterfaceFound:vector(packetBytes):max -inf
scalar BgpNetwork.B.ipv4.ip packetDropNoInterfaceFound:vector(packetBytes):starttime nan
scalar BgpNetwork.B.ipv4.ip packetDropNoInterfaceFound:vector(packetBytes):endtime nan
scalar BgpNetwork.B.ipv4.ip packetDropNoRouteFound:vector(packetBytes):count 0
scalar BgpNetwork.B.ipv4.ip packetDropNoRouteFound:vector(packetBytes):sum 0
scalar BgpNetwork.B.ipv4.ip packetDropNoRouteFound:vector(packetBytes):sumweights 0
scalar BgpNetwork.B.ipv4.ip packetDropNoRouteFound:vector(packetBytes):mean -nan
scalar BgpNetwork.B.ipv4.ip packetDropNoRouteFound:vector(packetBytes):stddev nan
scalar BgpNetwork.B.ipv4.ip packetDropNoRouteFound:vector(packetBytes):min inf
scalar BgpNetwork.B.ipv4.ip packetDropNoRouteFound:vector(packetBytes):max -inf
scalar BgpNetwork.B.ipv4.ip packetDropNoRouteFound:vector(packetBytes):starttime nan
scalar BgpNetwork.B.ipv4.ip packetDropNoRouteFound:vector(packetBytes):endtime nan
scalar BgpNetwork.B.ipv4.ip packetDropUndefined:vector(packetBytes):count 0
scalar BgpNetwork.B.ipv4.ip packetDropUndefined:vector(packetBytes):sum 0
scalar BgpNetwork.B.ipv4.ip packetDropUndefined:vector(packetBytes):sumweights 0
scalar BgpNetwork.B.ipv4.ip packetDropUndefined:vector(packetBytes):mean -nan
scalar BgpNetwork.B.ipv4.ip packetDropUndefined:vector(packetBytes):stddev nan
scalar BgpNetwork.B.ipv4.ip packetDropUndefined:vector(packetBytes):min inf
scalar BgpNetwork.B.ipv4.ip packetDropUndefined:vector(packetBytes):max -inf
scalar BgpNetwork.B.ipv4.ip packetDropUndefined:vector(packetBytes):starttime nan
scalar BgpNetwork.B.ipv4.ip packetDropUndefined:vector(packetBytes):endtime nan
scalar BgpNetwork.B.ipv4.arp arpRequestSent:vector(packetBytes):count 0
scalar BgpNetwork.B.ipv4.arp arpRequestSent:vector(packetBytes):sum 0
scalar BgpNetwork.B.ipv4.arp arpRequestSent:vector(packetBytes):sumweights 0
scalar BgpNetwork.B.ipv4.arp arpRequestSent:vector(packetBytes):mean -nan
scalar BgpNetwork.B.ipv4.arp arpRequestSent:vector(packetBytes):stddev nan
scalar BgpNetwork.B.ipv4.arp arpRequestSent:vector(packetBytes):min inf
scalar BgpNetwork.B.ipv4.arp arpRequestSent:vector(packetBytes):max -inf
scalar BgpNetwork.B.ipv4.arp arpRequestSent:vector(packetBytes):starttime nan
scalar BgpNetwork.B.ipv4.arp arpRequestSent:vector(packetBytes):endtime nan
scalar BgpNetwork.B.ipv4.arp arpReplySent:vector(packetBytes):count 0
scalar BgpNetwork.B.ipv4.arp arpReplySent:vector(packetBytes):sum 0
scalar BgpNetwork.B.ipv4.arp arpReplySent:vector(packetBytes):sumweights 0
scalar BgpNetwork.B.ipv4.arp arpReplySent:vector(packetBytes):mean -nan
scalar BgpNetwork.B.ipv4.arp arpReplySent:vector(packetBytes):stddev nan
scalar BgpNetwork.B.ipv4.arp arpReplySent:vector(packetBytes):min inf
scalar BgpNetwork.B.ipv4.arp arpReplySent:vector(packetBytes):max -inf
scalar BgpNetwork.B.ipv4.arp arpReplySent:vector(packetBytes):starttime nan
scalar BgpNetwork.B.ipv4.arp arpReplySent:vector(packetBytes):endtime nan
scalar BgpNetwork.RA1.ethernet encapPk:vector(packetBytes):count 0
scalar BgpNetwork.RA1.ethernet encapPk:vector(packetBytes):sum 0
scalar BgpNetwork.RA1.ethernet encapPk:vector(packetBytes):sumweights 0
scalar BgpNetwork.RA1.ethernet encapPk:vector(packetBytes):mean -nan
scalar BgpNetwork.RA1.ethernet encapPk:vector(packetBytes):stddev nan
scalar BgpNetwork.RA1.ethernet encapPk:vector(packetBytes):min inf
scalar BgpNetwork.RA1.ethernet encapPk:vector(packetBytes):max -inf
scalar BgpNetwork.RA1.ethernet encapPk:vector(packetBytes):starttime nan
scalar BgpNetwork.RA1.ethernet encapPk:vector(packetBytes):endtime nan
scalar BgpNetwork.RA1.ethernet decapPk:vector(packetBytes):count 0
scalar BgpNetwork.RA1.ethernet decapPk:vector(packetBytes):sum 0
scalar BgpNetwork.RA1.ethernet decapPk:vector(packetBytes):sumweights 0
scalar BgpNetwork.RA1.ethernet decapPk:vector(packetBytes):mean -nan
scalar BgpNetwork.RA1.ethernet decapPk:vector(packetBytes):stddev nan
scalar BgpNetwork.RA1.ethernet decapPk:vector(packetBytes):min inf
scalar BgpNetwork.RA1.ethernet decapPk:vector(packetBytes):max -inf
scalar BgpNetwork.RA1.ethernet decapPk:vector(packetBytes):starttime nan
scalar BgpNetwork.RA1.ethernet decapPk:vector(packetBytes):endtime nan
scalar BgpNetwork.RA1.ethernet pauseSent:vector:count 0
scalar BgpNetwork.RA1.ethernet pauseSent:vector:sum 0
scalar BgpNetwork.RA1.ethernet pauseSent:vector:sumweights 0
scalar BgpNetwork.RA1.ethernet pauseSent:vector:mean -nan
scalar BgpNetwork.RA1.ethernet pauseSent:vector:stddev nan
scalar BgpNetwork.RA1.ethernet pauseSent:vector:min inf
scalar BgpNetwork.RA1.ethernet pauseSent:vector:max -inf
scalar BgpNetwork.RA1.ethernet pauseSent:vector:starttime nan
scalar BgpNetwork.RA1.ethernet pauseSent:vector:endtime nan
scalar BgpNetwork.RA1.lo[0].lo rcvdPkFromHl:vector(packetBytes):count 0
scalar BgpNetwork.RA1.lo[0].lo rcvdPkFromHl:vector(packetBytes):sum 0
scalar BgpNetwork.RA1.lo[0].lo rcvdPkFromHl:vector(packetBytes):sumweights 0
scalar BgpNetwork.RA1.lo[0].lo rcvdPkFromHl:vector(packetBytes):mean -nan
scalar BgpNetwork.RA1.lo[0].lo rcvdPkFromHl:vector(packetBytes):stddev nan
scalar BgpNetwork.RA1.lo[0].lo rcvdPkFromHl:vector(packetBytes):min inf
scalar BgpNetwork.RA1.lo[0].lo rcvdPkFromHl:vector(packetBytes):max -inf
scalar BgpNetwork.RA1.lo[0].lo rcvdPkFromHl:vector(packetBytes):starttime nan
scalar BgpNetwork.RA1.lo[0].lo rcvdPkFromHl:vector(packetBytes):endtime nan
scalar BgpNetwork.RA1.lo[0].lo passedUpPk:vector(packetBytes):count 0
scalar BgpNetwork.RA1.lo[0].lo passedUpPk:vector(packetBytes):sum 0
scalar BgpNetwork.RA1.lo[0].lo passedUpPk:vector(packetBytes):sumweights 0
scalar BgpNetwork.RA1.lo[0].lo passedUpPk:vector(packetBytes):mean -nan
scalar BgpNetwork.RA1.lo[0].lo passedUpPk:vector(packetBytes):stddev nan
scalar BgpNetwork.RA1.lo[0].lo passedUpPk:vector(packetBytes):min inf
scalar BgpNetwork.RA1.lo[0].lo passedUpPk:vector(packetBytes):max -inf
[...]
scalar BgpNetwork.A.tcp.conn-8 cwnd:vector:count 0
scalar BgpNetwork.A.tcp.conn-8 cwnd:vector:sum 0
scalar BgpNetwork.A.tcp.conn-8 cwnd:vector:sumweights 0
scalar BgpNetwork.A.tcp.conn-8 cwnd:vector:mean -nan
scalar BgpNetwork.A.tcp.conn-8 cwnd:vector:stddev nan
scalar BgpNetwork.A.tcp.conn-8 cwnd:vector:min inf
scalar BgpNetwork.A.tcp.conn-8 cwnd:vector:max -inf
scalar BgpNetwork.A.tcp.conn-8 cwnd:vector:starttime nan
scalar BgpNetwork.A.tcp.conn-8 cwnd:vector:endtime nan
scalar BgpNetwork.A.tcp.conn-8 ssthresh:vector:count 0
scalar BgpNetwork.A.tcp.conn-8 ssthresh:vector:sum 0
scalar BgpNetwork.A.tcp.conn-8 ssthresh:vector:sumweights 0
scalar BgpNetwork.A.tcp.conn-8 ssthresh:vector:mean -nan
scalar BgpNetwork.A.tcp.conn-8 ssthresh:vector:stddev nan
scalar BgpNetwork.A.tcp.conn-8 ssthresh:vector:min inf
scalar BgpNetwork.A.tcp.conn-8 ssthresh:vector:max -inf
scalar BgpNetwork.A.tcp.conn-8 ssthresh:vector:starttime nan
scalar BgpNetwork.A.tcp.conn-8 ssthresh:vector:endtime nan
scalar BgpNetwork.A.tcp.conn-8 rtt:vector:count 0
scalar BgpNetwork.A.tcp.conn-8 rtt:vector:sum 0
scalar BgpNetwork.A.tcp.conn-8 rtt:vector:sumweights 0
scalar BgpNetwork.A.tcp.conn-8 rtt:vector:mean -nan
scalar BgpNetwork.A.tcp.conn-8 rtt:vector:stddev nan
scalar BgpNetwork.A.tcp.conn-8 rtt:vector:min inf
scalar BgpNetwork.A.tcp.conn-8 rtt:vector:max -inf
scalar BgpNetwork.A.tcp.conn-8 rtt:vector:starttime nan
scalar BgpNetwork.A.tcp.conn-8 rtt:vector:endtime nan
scalar BgpNetwork.A.tcp.conn-8 srtt:vector:count 0
scalar BgpNetwork.A.tcp.conn-8 srtt:vector:sum 0
scalar BgpNetwork.A.tcp.conn-8 srtt:vector:sumweights 0
scalar BgpNetwork.A.tcp.conn-8 srtt:vector:mean -nan
scalar BgpNetwork.A.tcp.conn-8 srtt:vector:stddev nan
scalar BgpNetwork.A.tcp.conn-8 srtt:vector:min inf
scalar BgpNetwork.A.tcp.conn-8 srtt:vector:max -inf
scalar BgpNetwork.A.tcp.conn-8 srtt:vector:starttime nan
scalar BgpNetwork.A.tcp.conn-8 srtt:vector:endtime nan
scalar BgpNetwork.A.tcp.conn-8 rttvar:vector:count 0
scalar BgpNetwork.A.tcp.conn-8 rttvar:vector:sum 0
scalar BgpNetwork.A.tcp.conn-8 rttvar:vector:sumweights 0
scalar BgpNetwork.A.tcp.conn-8 rttvar:vector:mean -nan
scalar BgpNetwork.A.tcp.conn-8 rttvar:vector:stddev nan
scalar BgpNetwork.A.tcp.conn-8 rttvar:vector:min inf
scalar BgpNetwork.A.tcp.conn-8 rttvar:vector:max -inf
scalar BgpNetwork.A.tcp.conn-8 rttvar:vector:starttime nan
scalar BgpNetwork.A.tcp.conn-8 rttvar:vector:endtime nan
scalar BgpNetwork.A.tcp.conn-8 rto:vector:count 0
scalar BgpNetwork.A.tcp.conn-8 rto:vector:sum 0
scalar BgpNetwork.A.tcp.conn-8 rto:vector:sumweights 0
scalar BgpNetwork.A.tcp.conn-8 rto:vector:mean -nan
scalar BgpNetwork.A.tcp.conn-8 rto:vector:stddev nan
scalar BgpNetwork.A.tcp.conn-8 rto:vector:min inf
scalar BgpNetwork.A.tcp.conn-8 rto:vector:max -inf
scalar BgpNetwork.A.tcp.conn-8 rto:vector:starttime nan
scalar BgpNetwork.A.tcp.conn-8 rto:vector:endtime nan
scalar BgpNetwork.A.tcp.conn-8 numRtos:vector:count 0
scalar BgpNetwork.A.tcp.conn-8 numRtos:vector:sum 0
scalar BgpNetwork.A.tcp.conn-8 numRtos:vector:sumweights 0
scalar BgpNetwork.A.tcp.conn-8 numRtos:vector:mean -nan
scalar BgpNetwork.A.tcp.conn-8 numRtos:vector:stddev nan
scalar BgpNetwork.A.tcp.conn-8 numRtos:vector:min inf
scalar BgpNetwork.A.tcp.conn-8 numRtos:vector:max -inf
scalar BgpNetwork.A.tcp.conn-8 numRtos:vector:starttime nan
scalar BgpNetwork.A.tcp.conn-8 numRtos:vector:endtime nan
scalar BgpNetwork.A.tcp.conn-8 load:vector:count 0
scalar BgpNetwork.A.tcp.conn-8 load:vector:sum 0
scalar BgpNetwork.A.tcp.conn-8 load:vector:sumweights 0
scalar BgpNetwork.A.tcp.conn-8 load:vector:mean -nan
scalar BgpNetwork.A.tcp.conn-8 load:vector:stddev nan
scalar BgpNetwork.A.tcp.conn-8 load:vector:min inf
scalar BgpNetwork.A.tcp.conn-8 load:vector:max -inf
scalar BgpNetwork.A.tcp.conn-8 load:vector:starttime nan
scalar BgpNetwork.A.tcp.conn-8 load:vector:endtime nan
scalar BgpNetwork.A.tcp.conn-8 calcLoad:vector:count 0
scalar BgpNetwork.A.tcp.conn-8 calcLoad:vector:sum 0
scalar BgpNetwork.A.tcp.conn-8 calcLoad:vector:sumweights 0
scalar BgpNetwork.A.tcp.conn-8 calcLoad:vector:mean -nan
scalar BgpNetwork.A.tcp.conn-8 calcLoad:vector:stddev nan
scalar BgpNetwork.A.tcp.conn-8 calcLoad:vector:min inf
scalar BgpNetwork.A.tcp.conn-8 calcLoad:vector:max -inf
scalar BgpNetwork.A.tcp.conn-8 calcLoad:vector:starttime nan
scalar BgpNetwork.A.tcp.conn-8 calcLoad:vector:endtime nan
scalar BgpNetwork.A.tcp.conn-8 markingProb:vector:count 0
scalar BgpNetwork.A.tcp.conn-8 markingProb:vector:sum 0
scalar BgpNetwork.A.tcp.conn-8 markingProb:vector:sumweights 0
scalar BgpNetwork.A.tcp.conn-8 markingProb:vector:mean -nan
scalar BgpNetwork.A.tcp.conn-8 markingProb:vector:stddev nan
scalar BgpNetwork.A.tcp.conn-8 markingProb:vector:min inf
scalar BgpNetwork.A.tcp.conn-8 markingProb:vector:max -inf
scalar BgpNetwork.A.tcp.conn-8 markingProb:vector:starttime nan
scalar BgpNetwork.A.tcp.conn-8 markingProb:vector:endtime nan
scalar BgpNetwork.B.tcp.conn-12 state:vector:count 0
scalar BgpNetwork.B.tcp.conn-12 state:vector:sum 0
scalar BgpNetwork.B.tcp.conn-12 state:vector:sumweights 0
scalar BgpNetwork.B.tcp.conn-12 state:vector:mean -nan
scalar BgpNetwork.B.tcp.conn-12 state:vector:stddev nan
scalar BgpNetwork.B.tcp.conn-12 state:vector:min inf
scalar BgpNetwork.B.tcp.conn-12 state:vector:max -inf
scalar BgpNetwork.B.tcp.conn-12 state:vector:starttime nan
scalar BgpNetwork.B.tcp.conn-12 state:vector:endtime nan
scalar BgpNetwork.B.tcp.conn-12 sndWnd:vector:count 0
scalar BgpNetwork.B.tcp.conn-12 sndWnd:vector:sum 0
scalar BgpNetwork.B.tcp.conn-12 sndWnd:vector:sumweights 0
scalar BgpNetwork.B.tcp.conn-12 sndWnd:vector:mean -nan
scalar BgpNetwork.B.tcp.conn-12 sndWnd:vector:stddev nan
scalar BgpNetwork.B.tcp.conn-12 sndWnd:vector:min inf
scalar BgpNetwork.B.tcp.conn-12 sndWnd:vector:max -inf
scalar BgpNetwork.B.tcp.conn-12 sndWnd:vector:starttime nan
scalar BgpNetwork.B.tcp.conn-12 sndWnd:vector:endtime nan
scalar BgpNetwork.B.tcp.conn-12 rcvWnd:vector:count 0
scalar BgpNetwork.B.tcp.conn-12 rcvWnd:vector:sum 0
scalar BgpNetwork.B.tcp.conn-12 rcvWnd:vector:sumweights 0
scalar BgpNetwork.B.tcp.conn-12 rcvWnd:vector:mean -nan
scalar BgpNetwork.B.tcp.conn-12 rcvWnd:vector:stddev nan
scalar BgpNetwork.B.tcp.conn-12 rcvWnd:vector:min inf
scalar BgpNetwork.B.tcp.conn-12 rcvWnd:vector:max -inf
scalar BgpNetwork.B.tcp.conn-12 rcvWnd:vector:starttime nan
scalar BgpNetwork.B.tcp.conn-12 rcvWnd:vector:endtime nan
scalar BgpNetwork.B.tcp.conn-12 rcvAdv:vector:count 0
scalar BgpNetwork.B.tcp.conn-12 rcvAdv:vector:sum 0
scalar BgpNetwork.B.tcp.conn-12 rcvAdv:vector:sumweights 0
scalar BgpNetwork.B.tcp.conn-12 rcvAdv:vector:mean -nan
scalar BgpNetwork.B.tcp.conn-12 rcvAdv:vector:stddev nan
scalar BgpNetwork.B.tcp.conn-12 rcvAdv:vector:min inf
scalar BgpNetwork.B.tcp.conn-12 rcvAdv:vector:max -inf
scalar BgpNetwork.B.tcp.conn-12 rcvAdv:vector:starttime nan
scalar BgpNetwork.B.tcp.conn-12 rcvAdv:vector:endtime nan
scalar BgpNetwork.B.tcp.conn-12 sndNxt:vector:count 0
scalar BgpNetwork.B.tcp.conn-12 sndNxt:vector:sum 0
scalar BgpNetwork.B.tcp.conn-12 sndNxt:vector:sumweights 0
scalar BgpNetwork.B.tcp.conn-12 sndNxt:vector:mean -nan
scalar BgpNetwork.B.tcp.conn-12 sndNxt:vector:stddev nan
scalar BgpNetwork.B.tcp.conn-12 sndNxt:vector:min inf
scalar BgpNetwork.B.tcp.conn-12 sndNxt:vector:max -inf
scalar BgpNetwork.B.tcp.conn-12 sndNxt:vector:starttime nan
scalar BgpNetwork.B.tcp.conn-12 sndNxt:vector:endtime nan
scalar BgpNetwork.B.tcp.conn-12 sndAck:vector:count 0
scalar BgpNetwork.B.tcp.conn-12 sndAck:vector:sum 0
scalar BgpNetwork.B.tcp.conn-12 sndAck:vector:sumweights 0
scalar BgpNetwork.B.tcp.conn-12 sndAck:vector:mean -nan
scalar BgpNetwork.B.tcp.conn-12 sndAck:vector:stddev nan
scalar BgpNetwork.B.tcp.conn-12 sndAck:vector:min inf
scalar BgpNetwork.B.tcp.conn-12 sndAck:vector:max -inf
scalar BgpNetwork.B.tcp.conn-12 sndAck:vector:starttime nan
scalar BgpNetwork.B.tcp.conn-12 sndAck:vector:endtime nan
scalar BgpNetwork.B.tcp.conn-12 rcvSeq:vector:count 0
scalar BgpNetwork.B.tcp.conn-12 rcvSeq:vector:sum 0
scalar BgpNetwork.B.tcp.conn-12 rcvSeq:vector:sumweights 0
scalar BgpNetwork.B.tcp.conn-12 rcvSeq:vector:mean -nan
scalar BgpNetwork.B.tcp.conn-12 rcvSeq:vector:stddev nan
scalar BgpNetwork.B.tcp.conn-12 rcvSeq:vector:min inf
scalar BgpNetwork.B.tcp.conn-12 rcvSeq:vector:max -inf
scalar BgpNetwork.B.tcp.conn-12 rcvSeq:vector:starttime nan
scalar BgpNetwork.B.tcp.conn-12 rcvSeq:vector:endtime nan
scalar BgpNetwork.B.tcp.conn-12 rcvAck:vector:count 0
scalar BgpNetwork.B.tcp.conn-12 rcvAck:vector:sum 0
scalar BgpNetwork.B.tcp.conn-12 rcvAck:vector:sumweights 0
scalar BgpNetwork.B.tcp.conn-12 rcvAck:vector:mean -nan
scalar BgpNetwork.B.tcp.conn-12 rcvAck:vector:stddev nan
scalar BgpNetwork.B.tcp.conn-12 rcvAck:vector:min inf
scalar BgpNetwork.B.tcp.conn-12 rcvAck:vector:max -inf
scalar BgpNetwork.B.tcp.conn-12 rcvAck:vector:starttime nan
scalar BgpNetwork.B.tcp.conn-12 rcvAck:vector:endtime nan
scalar BgpNetwork.B.tcp.conn-12 unacked:vector:count 0
scalar BgpNetwork.B.tcp.conn-12 unacked:vector:sum 0
scalar BgpNetwork.B.tcp.conn-12 unacked:vector:sumweights 0
scalar BgpNetwork.B.tcp.conn-12 unacked:vector:mean -nan
scalar BgpNetwork.B.tcp.conn-12 unacked:vector:stddev nan
scalar BgpNetwork.B.tcp.conn-12 unacked:vector:min inf
scalar BgpNetwork.B.tcp.conn-12 unacked:vector:max -inf
scalar BgpNetwork.B.tcp.conn-12 unacked:vector:starttime nan
scalar BgpNetwork.B.tcp.conn-12 unacked:vector:endtime nan
scalar BgpNetwork.B.tcp.conn-12 dupAcks:vector:count 0
scalar BgpNetwork.B.tcp.conn-12 dupAcks:vector:sum 0
scalar BgpNetwork.B.tcp.conn-12 dupAcks:vector:sumweights 0
scalar BgpNetwork.B.tcp.conn-12 dupAcks:vector:mean -nan
scalar BgpNetwork.B.tcp.conn-12 dupAcks:vector:stddev nan
scalar BgpNetwork.B.tcp.conn-12 dupAcks:vector:min inf
scalar BgpNetwork.B.tcp.conn-12 dupAcks:vector:max -inf
scalar BgpNetwork.B.tcp.conn-12 dupAcks:vector:starttime nan
scalar BgpNetwork.B.tcp.conn-12 dupAcks:vector:endtime nan
scalar BgpNetwork.B.tcp.conn-12 pipe:vector:count 0
scalar BgpNetwork.B.tcp.conn-12 pipe:vector:sum 0
scalar BgpNetwork.B.tcp.conn-12 pipe:vector:sumweights 0
scalar BgpNetwork.B.tcp.conn-12 pipe:vector:mean -nan
scalar BgpNetwork.B.tcp.conn-12 pipe:vector:stddev nan
scalar BgpNetwork.B.tcp.conn-12 pipe:vector:min inf
scalar BgpNetwork.B.tcp.conn-12 pipe:vector:max -inf
scalar BgpNetwork.B.tcp.conn-12 pipe:vector:starttime nan
scalar BgpNetwork.B.tcp.conn-12 pipe:vector:endtime nan
scalar BgpNetwork.B.tcp.conn-12 sndSacks:vector:count 0
scalar BgpNetwork.B.tcp.conn-12 sndSacks:vector:sum 0
scalar BgpNetwork.B.tcp.conn-12 sndSacks:vector:sumweights 0
scalar BgpNetwork.B.tcp.conn-12 sndSacks:vector:mean -nan
scalar BgpNetwork.B.tcp.conn-12 sndSacks:vector:stddev nan
scalar BgpNetwork.B.tcp.conn-12 sndSacks:vector:min inf
scalar BgpNetwork.B.tcp.conn-12 sndSacks:vector:max -inf
scalar BgpNetwork.B.tcp.conn-12 sndSacks:vector:starttime nan
scalar BgpNetwork.B.tcp.conn-12 sndSacks:vector:endtime nan
scalar BgpNetwork.B.tcp.conn-12 rcvSacks:vector:count 0
scalar BgpNetwork.B.tcp.conn-12 rcvSacks:vector:sum 0
scalar BgpNetwork.B.tcp.conn-12 rcvSacks:vector:sumweights 0
scalar BgpNetwork.B.tcp.conn-12 rcvSacks:vector:mean -nan
scalar BgpNetwork.B.tcp.conn-12 rcvSacks:vector:stddev nan
scalar BgpNetwork.B.tcp.conn-12 rcvSacks:vector:min inf
scalar BgpNetwork.B.tcp.conn-12 rcvSacks:vector:max -inf
scalar BgpNetwork.B.tcp.conn-12 rcvSacks:vector:starttime nan
scalar BgpNetwork.B.tcp.conn-12 rcvSacks:vector:endtime nan
scalar BgpNetwork.B.tcp.conn-12 rcvOooSeg:vector:count 0
scalar BgpNetwork.B.tcp.conn-12 rcvOooSeg:vector:sum 0
scalar BgpNetwork.B.tcp.conn-12 rcvOooSeg:vector:sumweights 0
scalar BgpNetwork.B.tcp.conn-12 rcvOooSeg:vector:mean -nan
scalar BgpNetwork.B.tcp.conn-12 rcvOooSeg:vector:stddev nan
scalar BgpNetwork.B.tcp.conn-12 rcvOooSeg:vector:min inf
scalar BgpNetwork.B.tcp.conn-12 rcvOooSeg:vector:max -inf
scalar BgpNetwork.B.tcp.conn-12 rcvOooSeg:vector:starttime nan
scalar BgpNetwork.B.tcp.conn-12 rcvOooSeg:vector:endtime nan
scalar BgpNetwork.B.tcp.conn-12 rcvNASeg:vector:count 0
scalar BgpNetwork.B.tcp.conn-12 rcvNASeg:vector:sum 0
scalar BgpNetwork.B.tcp.conn-12 rcvNASeg:vector:sumweights 0
scalar BgpNetwork.B.tcp.conn-12 rcvNASeg:vector:mean -nan
scalar BgpNetwork.B.tcp.conn-12 rcvNASeg:vector:stddev nan
scalar BgpNetwork.B.tcp.conn-12 rcvNASeg:vector:min inf
scalar BgpNetwork.B.tcp.conn-12 rcvNASeg:vector:max -inf
scalar BgpNetwork.B.tcp.conn-12 rcvNASeg:vector:starttime nan
scalar BgpNetwork.B.tcp.conn-12 rcvNASeg:vector:endtime nan
scalar BgpNetwork.B.tcp.conn-12 sackedBytes:vector:count 0
scalar BgpNetwork.B.tcp.conn-12 sackedBytes:vector:sum 0
scalar BgpNetwork.B.tcp.conn-12 sackedBytes:vector:sumweights 0
scalar BgpNetwork.B.tcp.conn-12 sackedBytes:vector:mean -nan
scalar BgpNetwork.B.tcp.conn-12 sackedBytes:vector:stddev nan
scalar BgpNetwork.B.tcp.conn-12 sackedBytes:vector:min inf
scalar BgpNetwork.B.tcp.conn-12 sackedBytes:vector:max -inf
scalar BgpNetwork.B.tcp.conn-12 sackedBytes:vector:starttime nan
scalar BgpNetwork.B.tcp.conn-12 sackedBytes:vector:endtime nan
scalar BgpNetwork.B.tcp.conn-12 tcpRcvQueueBytes:vector:count 0
scalar BgpNetwork.B.tcp.conn-12 tcpRcvQueueBytes:vector:sum 0
scalar BgpNetwork.B.tcp.conn-12 tcpRcvQueueBytes:vector:sumweights 0
scalar BgpNetwork.B.tcp.conn-12 tcpRcvQueueBytes:vector:mean -nan
scalar BgpNetwork.B.tcp.conn-12 tcpRcvQueueBytes:vector:stddev nan
scalar BgpNetwork.B.tcp.conn-12 tcpRcvQueueBytes:vector:min inf
scalar BgpNetwork.B.tcp.conn-12 tcpRcvQueueBytes:vector:max -inf
scalar BgpNetwork.B.tcp.conn-12 tcpRcvQueueBytes:vector:starttime nan
scalar BgpNetwork.B.tcp.conn-12 tcpRcvQueueBytes:vector:endtime nan
scalar BgpNetwork.B.tcp.conn-12 tcpRcvQueueDrops:vector:count 0
scalar BgpNetwork.B.tcp.conn-12 tcpRcvQueueDrops:vector:sum 0
scalar BgpNetwork.B.tcp.conn-12 tcpRcvQueueDrops:vector:sumweights 0
scalar BgpNetwork.B.tcp.conn-12 tcpRcvQueueDrops:vector:mean -nan
scalar BgpNetwork.B.tcp.conn-12 tcpRcvQueueDrops:vector:stddev nan
scalar BgpNetwork.B.tcp.conn-12 tcpRcvQueueDrops:vector:min inf
scalar BgpNetwork.B.tcp.conn-12 tcpRcvQueueDrops:vector:max -inf
scalar BgpNetwork.B.tcp.conn-12 tcpRcvQueueDrops:vector:starttime nan
scalar BgpNetwork.B.tcp.conn-12 tcpRcvQueueDrops:vector:endtime nan
scalar BgpNetwork.B.tcp.conn-12 tcpRcvPayloadBytes:vector:count 0
scalar BgpNetwork.B.tcp.conn-12 tcpRcvPayloadBytes:vector:sum 0
scalar BgpNetwork.B.tcp.conn-12 tcpRcvPayloadBytes:vector:sumweights 0
scalar BgpNetwork.B.tcp.conn-12 tcpRcvPayloadBytes:vector:mean -nan
scalar BgpNetwork.B.tcp.conn-12 tcpRcvPayloadBytes:vector:stddev nan
scalar BgpNetwork.B.tcp.conn-12 tcpRcvPayloadBytes:vector:min inf
scalar BgpNetwork.B.tcp.conn-12 tcpRcvPayloadBytes:vector:max -inf
scalar BgpNetwork.B.tcp.conn-12 tcpRcvPayloadBytes:vector:starttime nan
scalar BgpNetwork.B.tcp.conn-12 tcpRcvPayloadBytes:vector:endtime nan
scalar BgpNetwork.B.tcp.conn-12 cwnd:vector:count 0
scalar BgpNetwork.B.tcp.conn-12 cwnd:vector:sum 0
scalar BgpNetwork.B.tcp.conn-12 cwnd:vector:sumweights 0
scalar BgpNetwork.B.tcp.conn-12 cwnd:vector:mean -nan
scalar BgpNetwork.B.tcp.conn-12 cwnd:vector:stddev nan
scalar BgpNetwork.B.tcp.conn-12 cwnd:vector:min inf
scalar BgpNetwork.B.tcp.conn-12 cwnd:vector:max -inf
scalar BgpNetwork.B.tcp.conn-12 cwnd:vector:starttime nan
scalar BgpNetwork.B.tcp.conn-12 cwnd:vector:endtime nan
scalar BgpNetwork.B.tcp.conn-12 ssthresh:vector:count 0
scalar BgpNetwork.B.tcp.conn-12 ssthresh:vector:sum 0
scalar BgpNetwork.B.tcp.conn-12 ssthresh:vector:sumweights 0
scalar BgpNetwork.B.tcp.conn-12 ssthresh:vector:mean -nan
scalar BgpNetwork.B.tcp.conn-12 ssthresh:vector:stddev nan
scalar BgpNetwork.B.tcp.conn-12 ssthresh:vector:min inf
scalar BgpNetwork.B.tcp.conn-12 ssthresh:vector:max -inf
scalar BgpNetwork.B.tcp.conn-12 ssthresh:vector:starttime nan
scalar BgpNetwork.B.tcp.conn-12 ssthresh:vector:endtime nan
scalar BgpNetwork.B.tcp.conn-12 rtt:vector:count 0
scalar BgpNetwork.B.tcp.conn-12 rtt:vector:sum 0
scalar BgpNetwork.B.tcp.conn-12 rtt:vector:sumweights 0
scalar BgpNetwork.B.tcp.conn-12 rtt:vector:mean -nan
scalar BgpNetwork.B.tcp.conn-12 rtt:vector:stddev nan
scalar BgpNetwork.B.tcp.conn-12 rtt:vector:min inf
scalar BgpNetwork.B.tcp.conn-12 rtt:vector:max -inf
scalar BgpNetwork.B.tcp.conn-12 rtt:vector:starttime nan
scalar BgpNetwork.B.tcp.conn-12 rtt:vector:endtime nan
scalar BgpNetwork.B.tcp.conn-12 srtt:vector:count 0
scalar BgpNetwork.B.tcp.conn-12 srtt:vector:sum 0
scalar BgpNetwork.B.tcp.conn-12 srtt:vector:sumweights 0
scalar BgpNetwork.B.tcp.conn-12 srtt:vector:mean -nan
scalar BgpNetwork.B.tcp.conn-12 srtt:vector:stddev nan
scalar BgpNetwork.B.tcp.conn-12 srtt:vector:min inf
scalar BgpNetwork.B.tcp.conn-12 srtt:vector:max -inf
scalar BgpNetwork.B.tcp.conn-12 srtt:vector:starttime nan
scalar BgpNetwork.B.tcp.conn-12 srtt:vector:endtime nan
scalar BgpNetwork.B.tcp.conn-12 rttvar:vector:count 0
scalar BgpNetwork.B.tcp.conn-12 rttvar:vector:sum 0
scalar BgpNetwork.B.tcp.conn-12 rttvar:vector:sumweights 0
scalar BgpNetwork.B.tcp.conn-12 rttvar:vector:mean -nan
scalar BgpNetwork.B.tcp.conn-12 rttvar:vector:stddev nan
scalar BgpNetwork.B.tcp.conn-12 rttvar:vector:min inf
scalar BgpNetwork.B.tcp.conn-12 rttvar:vector:max -inf
scalar BgpNetwork.B.tcp.conn-12 rttvar:vector:starttime nan
scalar BgpNetwork.B.tcp.conn-12 rttvar:vector:endtime nan
scalar BgpNetwork.B.tcp.conn-12 rto:vector:count 0
scalar BgpNetwork.B.tcp.conn-12 rto:vector:sum 0
scalar BgpNetwork.B.tcp.conn-12 rto:vector:sumweights 0
scalar BgpNetwork.B.tcp.conn-12 rto:vector:mean -nan
scalar BgpNetwork.B.tcp.conn-12 rto:vector:stddev nan
scalar BgpNetwork.B.tcp.conn-12 rto:vector:min inf
scalar BgpNetwork.B.tcp.conn-12 rto:vector:max -inf
scalar BgpNetwork.B.tcp.conn-12 rto:vector:starttime nan
scalar BgpNetwork.B.tcp.conn-12 rto:vector:endtime nan
scalar BgpNetwork.B.tcp.conn-12 numRtos:vector:count 0
scalar BgpNetwork.B.tcp.conn-12 numRtos:vector:sum 0
scalar BgpNetwork.B.tcp.conn-12 numRtos:vector:sumweights 0
scalar BgpNetwork.B.tcp.conn-12 numRtos:vector:mean -nan
scalar BgpNetwork.B.tcp.conn-12 numRtos:vector:stddev nan
scalar BgpNetwork.B.tcp.conn-12 numRtos:vector:min inf
scalar BgpNetwork.B.tcp.conn-12 numRtos:vector:max -inf
scalar BgpNetwork.B.tcp.conn-12 numRtos:vector:starttime nan
scalar BgpNetwork.B.tcp.conn-12 numRtos:vector:endtime nan
scalar BgpNetwork.B.tcp.conn-12 load:vector:count 0
scalar BgpNetwork.B.tcp.conn-12 load:vector:sum 0
scalar BgpNetwork.B.tcp.conn-12 load:vector:sumweights 0
scalar BgpNetwork.B.tcp.conn-12 load:vector:mean -nan
scalar BgpNetwork.B.tcp.conn-12 load:vector:stddev nan
scalar BgpNetwork.B.tcp.conn-12 load:vector:min inf
scalar BgpNetwork.B.tcp.conn-12 load:vector:max -inf
scalar BgpNetwork.B.tcp.conn-12 load:vector:starttime nan
scalar BgpNetwork.B.tcp.conn-12 load:vector:endtime nan
scalar BgpNetwork.B.tcp.conn-12 calcLoad:vector:count 0
scalar BgpNetwork.B.tcp.conn-12 calcLoad:vector:sum 0
scalar BgpNetwork.B.tcp.conn-12 calcLoad:vector:sumweights 0
scalar BgpNetwork.B.tcp.conn-12 calcLoad:vector:mean -nan
scalar BgpNetwork.B.tcp.conn-12 calcLoad:vector:stddev nan
scalar BgpNetwork.B.tcp.conn-12 calcLoad:vector:min inf
scalar BgpNetwork.B.tcp.conn-12 calcLoad:vector:max -inf
scalar BgpNetwork.B.tcp.conn-12 calcLoad:vector:starttime nan
scalar BgpNetwork.B.tcp.conn-12 calcLoad:vector:endtime nan
scalar BgpNetwork.B.tcp.conn-12 markingProb:vector:count 0
scalar BgpNetwork.B.tcp.conn-12 markingProb:vector:sum 0
scalar BgpNetwork.B.tcp.conn-12 markingProb:vector:sumweights 0
scalar BgpNetwork.B.tcp.conn-12 markingProb:vector:mean -nan
scalar BgpNetwork.B.tcp.conn-12 markingProb:vector:stddev nan
scalar BgpNetwork.B.tcp.conn-12 markingProb:vector:min inf
scalar BgpNetwork.B.tcp.conn-12 markingProb:vector:max -inf
scalar BgpNetwork.B.tcp.conn-12 markingProb:vector:starttime nan
scalar BgpNetwork.B.tcp.conn-12 markingProb:vector:endtime nan

