version 3
run Throughput1-0-20251118-11:55:07-112682
attr configname Throughput1
attr datetime 20251118-11:55:07
attr datetimef 20251118-115507
attr experiment Throughput1
attr inifile omnetpp.ini
attr iterationvars ""
attr iterationvarsd ""
attr iterationvarsf ""
attr measurement ""
attr network Throughput
attr processid 112682
attr repetition 0
attr replication #0
attr resultdir results
attr runnumber 0
attr seedset 0
config **.param-recording false
config image-path /home/zoli/Projects/OMNET/inet/images
config output-scalar-file results/omnetpp.ini-Throughput1-#0.sca
config output-scalar-precision 17
config output-vector-file results/omnetpp.ini-Throughput1-#0.vec
config output-vector-precision 17
config record-eventlog false
config sim-time-limit 5s
config sim-time-limit 5s
config description "6 hosts over AP"
config Throughput.numCli 6
config network Throughput
config **.constraintAreaMinX 0m
config **.constraintAreaMinY 0m
config **.constraintAreaMinZ 0m
config **.constraintAreaMaxX 400m
config **.constraintAreaMaxY 400m
config **.constraintAreaMaxZ 0m
config **.mobility.cx 200m
config **.mobility.cy 200m
config **.mobility.r 100m
config **.mobility.speed 1mps
config **.mobility.updateInterval 100ms
config **.cliHost[0].mobility.startAngle 0deg
config **.cliHost[1].mobility.startAngle 60deg
config **.cliHost[2].mobility.startAngle 120deg
config **.cliHost[3].mobility.startAngle 180deg
config **.cliHost[4].mobility.startAngle 240deg
config **.cliHost[5].mobility.startAngle 300deg
config *.radioMedium.sameTransmissionStartTimeCheck "\"ignore\""
config **.ap.wlan[*].address "\"10:00:00:00:00:00\""
config **.srvHost.wlan.address "\"20:00:00:00:00:00\""
config **.mgmt.accessPointAddress "\"10:00:00:00:00:00\""
config **.wlan*.bitrate 11Mbps
config **.cli.reqLength 1000B
config **.cli.respLength 0B
config **.cli.destAddress "\"20:00:00:00:00:00\""
config **.cli.sendInterval 0.5ms

scalar Throughput.radioMedium.propagation "Arrival computation count" 55167
scalar Throughput.radioMedium "transmission count" 7881
scalar Throughput.radioMedium "signal send count" 55167
scalar Throughput.radioMedium "reception computation count" 55167
scalar Throughput.radioMedium "interference computation count" 168846
scalar Throughput.radioMedium "reception decision computation count" 51607
scalar Throughput.radioMedium "listening decision computation count" 63064
scalar Throughput.radioMedium "reception cache hit" 85.533192599682693
scalar Throughput.radioMedium "interference cache hit" 66.666666666666671
scalar Throughput.radioMedium "noise cache hit" 0
scalar Throughput.radioMedium "snir cache hit" 50
scalar Throughput.radioMedium "reception decision cache hit" 50
scalar Throughput.radioMedium "reception result cache hit" 0
scalar Throughput.cliHost[0].cli packetReceived:count 0
scalar Throughput.cliHost[0].cli packetReceived:sum(packetBytes) 0
scalar Throughput.cliHost[0].cli packetSent:count 10000
scalar Throughput.cliHost[0].cli packetSent:sum(packetBytes) 10000000
scalar Throughput.cliHost[0].wlan.mac.dcf.channelAccess.pendingQueue queueLength:last 100
scalar Throughput.cliHost[0].wlan.mac.dcf.channelAccess.pendingQueue queueLength:max 100
scalar Throughput.cliHost[0].wlan.mac.dcf.channelAccess.pendingQueue queueLength:timeavg 99.455127867164109
scalar Throughput.cliHost[0].wlan.mac.dcf.channelAccess.pendingQueue queueBitLength:last 824800
scalar Throughput.cliHost[0].wlan.mac.dcf.channelAccess.pendingQueue queueBitLength:max 824800
scalar Throughput.cliHost[0].wlan.mac.dcf.channelAccess.pendingQueue queueBitLength:timeavg 820305.8946481233
scalar Throughput.cliHost[0].wlan.mac.dcf.channelAccess.pendingQueue outgoingPackets:count 465
scalar Throughput.cliHost[0].wlan.mac.dcf.channelAccess.pendingQueue outgoingPacketLengths:sum 3835320
scalar Throughput.cliHost[0].wlan.mac.dcf.channelAccess.pendingQueue incomingPackets:count 10000
scalar Throughput.cliHost[0].wlan.mac.dcf.channelAccess.pendingQueue incomingPacketLengths:sum 82480000
scalar Throughput.cliHost[0].wlan.mac.dcf.channelAccess.pendingQueue droppedPacketsQueueOverflow:count 9435
scalar Throughput.cliHost[0].wlan.mac.dcf.channelAccess.pendingQueue droppedPacketLengthsQueueOverflow:sum 77819880
scalar Throughput.cliHost[0].wlan.mac.dcf.channelAccess.inProgressFrames queueLength:max 2
scalar Throughput.cliHost[0].wlan.mac.dcf.channelAccess.inProgressFrames queueLength:timeavg 1.5086892109194132
scalar Throughput.cliHost[0].wlan.mac.dcf.channelAccess.contention channelAccessGranted:count 597
scalar Throughput.cliHost[0].wlan.mac.dcf.channelAccess.contention stateChanged:count 30814
scalar Throughput.cliHost[0].wlan.mac.dcf.channelAccess channelOwnershipChanged:count 1193
scalar Throughput.cliHost[0].wlan.mac.dcf.originatorMacDataService packetAggregated:count 0
scalar Throughput.cliHost[0].wlan.mac.dcf.originatorMacDataService packetFragmented:count 0
scalar Throughput.cliHost[0].wlan.mac.dcf.recipientMacDataService packetDeaggregated:count 0
scalar Throughput.cliHost[0].wlan.mac.dcf.recipientMacDataService packetDefragmented:count 0
scalar Throughput.cliHost[0].wlan.mac.dcf.recipientMacDataService packetDropDuplicateDetected:count 0
scalar Throughput.cliHost[0].wlan.mac.dcf.recipientMacDataService packetDropDuplicateDetected:sum(packetBytes) 0
scalar Throughput.cliHost[0].wlan.mac.dcf.recoveryProcedure retryLimitReached:count 1
scalar Throughput.cliHost[0].wlan.mac.dcf frameSequenceFinished:count 596
scalar Throughput.cliHost[0].wlan.mac.dcf packetReceivedFromPeer:count 462
scalar Throughput.cliHost[0].wlan.mac.dcf packetReceivedFromPeer:sum(packetBytes) 6468
scalar Throughput.cliHost[0].wlan.mac.dcf packetReceivedFromPeerUnicast:count 462
scalar Throughput.cliHost[0].wlan.mac.dcf packetReceivedFromPeerUnicast:sum(packetBytes) 6468
scalar Throughput.cliHost[0].wlan.mac.dcf packetReceivedFromPeerMulticast:count 0
scalar Throughput.cliHost[0].wlan.mac.dcf packetReceivedFromPeerMulticast:sum(packetBytes) 0
scalar Throughput.cliHost[0].wlan.mac.dcf packetReceivedFromPeerBroadcast:count 0
scalar Throughput.cliHost[0].wlan.mac.dcf packetReceivedFromPeerBroadcast:sum(packetBytes) 0
scalar Throughput.cliHost[0].wlan.mac.dcf packetReceivedFromPeerWithRetry:count 0
scalar Throughput.cliHost[0].wlan.mac.dcf packetReceivedFromPeerWithRetry:sum(packetBytes) 0
scalar Throughput.cliHost[0].wlan.mac.dcf packetReceivedFromPeerWithoutRetry:count 462
scalar Throughput.cliHost[0].wlan.mac.dcf packetReceivedFromPeerWithoutRetry:sum(packetBytes) 6468
scalar Throughput.cliHost[0].wlan.mac.dcf packetSentToPeer:count 597
scalar Throughput.cliHost[0].wlan.mac.dcf packetSentToPeer:sum(packetBytes) 615507
scalar Throughput.cliHost[0].wlan.mac.dcf packetSentToPeerUnicast:count 597
scalar Throughput.cliHost[0].wlan.mac.dcf packetSentToPeerUnicast:sum(packetBytes) 615507
scalar Throughput.cliHost[0].wlan.mac.dcf packetSentToPeerMulticast:count 0
scalar Throughput.cliHost[0].wlan.mac.dcf packetSentToPeerMulticast:sum(packetBytes) 0
scalar Throughput.cliHost[0].wlan.mac.dcf packetSentToPeerBroadcast:count 0
scalar Throughput.cliHost[0].wlan.mac.dcf packetSentToPeerBroadcast:sum(packetBytes) 0
scalar Throughput.cliHost[0].wlan.mac.dcf packetSentToPeerWithRetry:count 133
scalar Throughput.cliHost[0].wlan.mac.dcf packetSentToPeerWithRetry:sum(packetBytes) 137123
scalar Throughput.cliHost[0].wlan.mac.dcf packetSentToPeerWithoutRetry:count 464
scalar Throughput.cliHost[0].wlan.mac.dcf packetSentToPeerWithoutRetry:sum(packetBytes) 478384
scalar Throughput.cliHost[0].wlan.mac.dcf packetDrop:count 15548
scalar Throughput.cliHost[0].wlan.mac.dcf packetDrop:sum(packetBytes) 12922036
scalar Throughput.cliHost[0].wlan.mac.dcf packetDropNotAddressedToUs:count 6112
scalar Throughput.cliHost[0].wlan.mac.dcf packetDropNotAddressedToUs:sum(packetBytes) 3193520
scalar Throughput.cliHost[0].wlan.mac.dcf packetDropQueueOverflow:count 9435
scalar Throughput.cliHost[0].wlan.mac.dcf packetDropQueueOverflow:sum(packetBytes) 9727485
scalar Throughput.cliHost[0].wlan.mac.dcf packetDropRetryLimitReached:count 1
scalar Throughput.cliHost[0].wlan.mac.dcf packetDropRetryLimitReached:sum(packetBytes) 1031
scalar Throughput.cliHost[0].wlan.mac.dcf linkBroken:count 1
scalar Throughput.cliHost[0].wlan.mac packetReceivedFromLower:count 6839
scalar Throughput.cliHost[0].wlan.mac packetReceivedFromLower:sum(packetBytes) 3473203
scalar Throughput.cliHost[0].wlan.mac packetSentToLower:count 597
scalar Throughput.cliHost[0].wlan.mac packetSentToLower:sum(packetBytes) 615507
scalar Throughput.cliHost[0].wlan.mac packetReceivedFromUpper:count 10000
scalar Throughput.cliHost[0].wlan.mac packetReceivedFromUpper:sum(packetBytes) 10030000
scalar Throughput.cliHost[0].wlan.mac packetSentToUpper:count 0
scalar Throughput.cliHost[0].wlan.mac packetSentToUpper:sum(packetBytes) 0
scalar Throughput.cliHost[0].wlan.mac packetDrop:count 15813
scalar Throughput.cliHost[0].wlan.mac packetDrop:sum(packetBytes) 13195251
scalar Throughput.cliHost[0].wlan.mac packetDropIncorrectlyReceived:count 265
scalar Throughput.cliHost[0].wlan.mac packetDropIncorrectlyReceived:sum(packetBytes) 273215
scalar Throughput.cliHost[0].wlan.mac packetDropNotAddressedToUs:count 6112
scalar Throughput.cliHost[0].wlan.mac packetDropNotAddressedToUs:sum(packetBytes) 3193520
scalar Throughput.cliHost[0].wlan.mac packetDropQueueOverflow:count 9435
scalar Throughput.cliHost[0].wlan.mac packetDropQueueOverflow:sum(packetBytes) 9727485
scalar Throughput.cliHost[0].wlan.mac packetDropRetryLimitReached:count 1
scalar Throughput.cliHost[0].wlan.mac packetDropRetryLimitReached:sum(packetBytes) 1031
scalar Throughput.cliHost[0].wlan.mac packetDropDuplicateDetected:count 0
scalar Throughput.cliHost[0].wlan.mac packetDropDuplicateDetected:sum(packetBytes) 0
scalar Throughput.cliHost[0].wlan.mac packetDropOther:count 0
scalar Throughput.cliHost[0].wlan.mac packetDropOther:sum(packetBytes) 0
scalar Throughput.cliHost[0].wlan.mac linkBroken:count 1
scalar Throughput.cliHost[0].wlan.radio radioMode:count 1197
scalar Throughput.cliHost[0].wlan.radio receptionState:count 15237
scalar Throughput.cliHost[0].wlan.radio transmissionState:count 2388
scalar Throughput.cliHost[0].wlan packetDropInterfaceDown:count 0
scalar Throughput.cliHost[0].wlan packetDropInterfaceDown:sum(packetBytes) 0
scalar Throughput.cliHost[0].wlan packetDropNoCarrier:count 0
scalar Throughput.cliHost[0].wlan packetDropNoCarrier:sum(packetBytes) 0
scalar Throughput.cliHost[1].cli packetReceived:count 0
scalar Throughput.cliHost[1].cli packetReceived:sum(packetBytes) 0
scalar Throughput.cliHost[1].cli packetSent:count 10000
scalar Throughput.cliHost[1].cli packetSent:sum(packetBytes) 10000000
scalar Throughput.cliHost[1].wlan.mac.dcf.channelAccess.pendingQueue queueLength:last 100
scalar Throughput.cliHost[1].wlan.mac.dcf.channelAccess.pendingQueue queueLength:max 100
scalar Throughput.cliHost[1].wlan.mac.dcf.channelAccess.pendingQueue queueLength:timeavg 99.437789934928887
scalar Throughput.cliHost[1].wlan.mac.dcf.channelAccess.pendingQueue queueBitLength:last 824800
scalar Throughput.cliHost[1].wlan.mac.dcf.channelAccess.pendingQueue queueBitLength:max 824800
scalar Throughput.cliHost[1].wlan.mac.dcf.channelAccess.pendingQueue queueBitLength:timeavg 820162.89138304675
scalar Throughput.cliHost[1].wlan.mac.dcf.channelAccess.pendingQueue outgoingPackets:count 415
scalar Throughput.cliHost[1].wlan.mac.dcf.channelAccess.pendingQueue outgoingPacketLengths:sum 3422920
scalar Throughput.cliHost[1].wlan.mac.dcf.channelAccess.pendingQueue incomingPackets:count 10000
scalar Throughput.cliHost[1].wlan.mac.dcf.channelAccess.pendingQueue incomingPacketLengths:sum 82480000
scalar Throughput.cliHost[1].wlan.mac.dcf.channelAccess.pendingQueue droppedPacketsQueueOverflow:count 9485
scalar Throughput.cliHost[1].wlan.mac.dcf.channelAccess.pendingQueue droppedPacketLengthsQueueOverflow:sum 78232280
scalar Throughput.cliHost[1].wlan.mac.dcf.channelAccess.inProgressFrames queueLength:max 2
scalar Throughput.cliHost[1].wlan.mac.dcf.channelAccess.inProgressFrames queueLength:timeavg 1.5209356725786103
scalar Throughput.cliHost[1].wlan.mac.dcf.channelAccess.contention channelAccessGranted:count 544
scalar Throughput.cliHost[1].wlan.mac.dcf.channelAccess.contention stateChanged:count 30810
scalar Throughput.cliHost[1].wlan.mac.dcf.channelAccess channelOwnershipChanged:count 1088
scalar Throughput.cliHost[1].wlan.mac.dcf.originatorMacDataService packetAggregated:count 0
scalar Throughput.cliHost[1].wlan.mac.dcf.originatorMacDataService packetFragmented:count 0
scalar Throughput.cliHost[1].wlan.mac.dcf.recipientMacDataService packetDeaggregated:count 0
scalar Throughput.cliHost[1].wlan.mac.dcf.recipientMacDataService packetDefragmented:count 0
scalar Throughput.cliHost[1].wlan.mac.dcf.recipientMacDataService packetDropDuplicateDetected:count 0
scalar Throughput.cliHost[1].wlan.mac.dcf.recipientMacDataService packetDropDuplicateDetected:sum(packetBytes) 0
scalar Throughput.cliHost[1].wlan.mac.dcf.recoveryProcedure retryLimitReached:count 0
scalar Throughput.cliHost[1].wlan.mac.dcf frameSequenceFinished:count 544
scalar Throughput.cliHost[1].wlan.mac.dcf packetReceivedFromPeer:count 413
scalar Throughput.cliHost[1].wlan.mac.dcf packetReceivedFromPeer:sum(packetBytes) 5782
scalar Throughput.cliHost[1].wlan.mac.dcf packetReceivedFromPeerUnicast:count 413
scalar Throughput.cliHost[1].wlan.mac.dcf packetReceivedFromPeerUnicast:sum(packetBytes) 5782
scalar Throughput.cliHost[1].wlan.mac.dcf packetReceivedFromPeerMulticast:count 0
scalar Throughput.cliHost[1].wlan.mac.dcf packetReceivedFromPeerMulticast:sum(packetBytes) 0
scalar Throughput.cliHost[1].wlan.mac.dcf packetReceivedFromPeerBroadcast:count 0
scalar Throughput.cliHost[1].wlan.mac.dcf packetReceivedFromPeerBroadcast:sum(packetBytes) 0
scalar Throughput.cliHost[1].wlan.mac.dcf packetReceivedFromPeerWithRetry:count 0
scalar Throughput.cliHost[1].wlan.mac.dcf packetReceivedFromPeerWithRetry:sum(packetBytes) 0
scalar Throughput.cliHost[1].wlan.mac.dcf packetReceivedFromPeerWithoutRetry:count 413
scalar Throughput.cliHost[1].wlan.mac.dcf packetReceivedFromPeerWithoutRetry:sum(packetBytes) 5782
scalar Throughput.cliHost[1].wlan.mac.dcf packetSentToPeer:count 544
scalar Throughput.cliHost[1].wlan.mac.dcf packetSentToPeer:sum(packetBytes) 560864
scalar Throughput.cliHost[1].wlan.mac.dcf packetSentToPeerUnicast:count 544
scalar Throughput.cliHost[1].wlan.mac.dcf packetSentToPeerUnicast:sum(packetBytes) 560864
scalar Throughput.cliHost[1].wlan.mac.dcf packetSentToPeerMulticast:count 0
scalar Throughput.cliHost[1].wlan.mac.dcf packetSentToPeerMulticast:sum(packetBytes) 0
scalar Throughput.cliHost[1].wlan.mac.dcf packetSentToPeerBroadcast:count 0
scalar Throughput.cliHost[1].wlan.mac.dcf packetSentToPeerBroadcast:sum(packetBytes) 0
scalar Throughput.cliHost[1].wlan.mac.dcf packetSentToPeerWithRetry:count 130
scalar Throughput.cliHost[1].wlan.mac.dcf packetSentToPeerWithRetry:sum(packetBytes) 134030
scalar Throughput.cliHost[1].wlan.mac.dcf packetSentToPeerWithoutRetry:count 414
scalar Throughput.cliHost[1].wlan.mac.dcf packetSentToPeerWithoutRetry:sum(packetBytes) 426834
scalar Throughput.cliHost[1].wlan.mac.dcf packetDrop:count 15695
scalar Throughput.cliHost[1].wlan.mac.dcf packetDrop:sum(packetBytes) 13023760
scalar Throughput.cliHost[1].wlan.mac.dcf packetDropNotAddressedToUs:count 6210
scalar Throughput.cliHost[1].wlan.mac.dcf packetDropNotAddressedToUs:sum(packetBytes) 3244725
scalar Throughput.cliHost[1].wlan.mac.dcf packetDropQueueOverflow:count 9485
scalar Throughput.cliHost[1].wlan.mac.dcf packetDropQueueOverflow:sum(packetBytes) 9779035
scalar Throughput.cliHost[1].wlan.mac.dcf packetDropRetryLimitReached:count 0
scalar Throughput.cliHost[1].wlan.mac.dcf packetDropRetryLimitReached:sum(packetBytes) 0
scalar Throughput.cliHost[1].wlan.mac.dcf linkBroken:count 0
scalar Throughput.cliHost[1].wlan.mac packetReceivedFromLower:count 6892
scalar Throughput.cliHost[1].wlan.mac packetReceivedFromLower:sum(packetBytes) 3527846
scalar Throughput.cliHost[1].wlan.mac packetSentToLower:count 544
scalar Throughput.cliHost[1].wlan.mac packetSentToLower:sum(packetBytes) 560864
scalar Throughput.cliHost[1].wlan.mac packetReceivedFromUpper:count 10000
scalar Throughput.cliHost[1].wlan.mac packetReceivedFromUpper:sum(packetBytes) 10030000
scalar Throughput.cliHost[1].wlan.mac packetSentToUpper:count 0
scalar Throughput.cliHost[1].wlan.mac packetSentToUpper:sum(packetBytes) 0
scalar Throughput.cliHost[1].wlan.mac packetDrop:count 15964
scalar Throughput.cliHost[1].wlan.mac packetDrop:sum(packetBytes) 13301099
scalar Throughput.cliHost[1].wlan.mac packetDropIncorrectlyReceived:count 269
scalar Throughput.cliHost[1].wlan.mac packetDropIncorrectlyReceived:sum(packetBytes) 277339
scalar Throughput.cliHost[1].wlan.mac packetDropNotAddressedToUs:count 6210
scalar Throughput.cliHost[1].wlan.mac packetDropNotAddressedToUs:sum(packetBytes) 3244725
scalar Throughput.cliHost[1].wlan.mac packetDropQueueOverflow:count 9485
scalar Throughput.cliHost[1].wlan.mac packetDropQueueOverflow:sum(packetBytes) 9779035
scalar Throughput.cliHost[1].wlan.mac packetDropRetryLimitReached:count 0
scalar Throughput.cliHost[1].wlan.mac packetDropRetryLimitReached:sum(packetBytes) 0
scalar Throughput.cliHost[1].wlan.mac packetDropDuplicateDetected:count 0
scalar Throughput.cliHost[1].wlan.mac packetDropDuplicateDetected:sum(packetBytes) 0
scalar Throughput.cliHost[1].wlan.mac packetDropOther:count 0
scalar Throughput.cliHost[1].wlan.mac packetDropOther:sum(packetBytes) 0
scalar Throughput.cliHost[1].wlan.mac linkBroken:count 0
scalar Throughput.cliHost[1].wlan.radio radioMode:count 1091
scalar Throughput.cliHost[1].wlan.radio receptionState:count 15242
scalar Throughput.cliHost[1].wlan.radio transmissionState:count 2176
scalar Throughput.cliHost[1].wlan packetDropInterfaceDown:count 0
scalar Throughput.cliHost[1].wlan packetDropInterfaceDown:sum(packetBytes) 0
scalar Throughput.cliHost[1].wlan packetDropNoCarrier:count 0
scalar Throughput.cliHost[1].wlan packetDropNoCarrier:sum(packetBytes) 0
scalar Throughput.cliHost[2].cli packetReceived:count 0
scalar Throughput.cliHost[2].cli packetReceived:sum(packetBytes) 0
scalar Throughput.cliHost[2].cli packetSent:count 10000
scalar Throughput.cliHost[2].cli packetSent:sum(packetBytes) 10000000
scalar Throughput.cliHost[2].wlan.mac.dcf.channelAccess.pendingQueue queueLength:last 100
scalar Throughput.cliHost[2].wlan.mac.dcf.channelAccess.pendingQueue queueLength:max 100
scalar Throughput.cliHost[2].wlan.mac.dcf.channelAccess.pendingQueue queueLength:timeavg 99.40834076190157
scalar Throughput.cliHost[2].wlan.mac.dcf.channelAccess.pendingQueue queueBitLength:last 824800
scalar Throughput.cliHost[2].wlan.mac.dcf.channelAccess.pendingQueue queueBitLength:max 824800
scalar Throughput.cliHost[2].wlan.mac.dcf.channelAccess.pendingQueue queueBitLength:timeavg 819919.99460391852
scalar Throughput.cliHost[2].wlan.mac.dcf.channelAccess.pendingQueue outgoingPackets:count 491
scalar Throughput.cliHost[2].wlan.mac.dcf.channelAccess.pendingQueue outgoingPacketLengths:sum 4049768
scalar Throughput.cliHost[2].wlan.mac.dcf.channelAccess.pendingQueue incomingPackets:count 10000
scalar Throughput.cliHost[2].wlan.mac.dcf.channelAccess.pendingQueue incomingPacketLengths:sum 82480000
scalar Throughput.cliHost[2].wlan.mac.dcf.channelAccess.pendingQueue droppedPacketsQueueOverflow:count 9409
scalar Throughput.cliHost[2].wlan.mac.dcf.channelAccess.pendingQueue droppedPacketLengthsQueueOverflow:sum 77605432
scalar Throughput.cliHost[2].wlan.mac.dcf.channelAccess.inProgressFrames queueLength:max 2
scalar Throughput.cliHost[2].wlan.mac.dcf.channelAccess.inProgressFrames queueLength:timeavg 1.4841257414856091
scalar Throughput.cliHost[2].wlan.mac.dcf.channelAccess.contention channelAccessGranted:count 626
scalar Throughput.cliHost[2].wlan.mac.dcf.channelAccess.contention stateChanged:count 30820
scalar Throughput.cliHost[2].wlan.mac.dcf.channelAccess channelOwnershipChanged:count 1252
scalar Throughput.cliHost[2].wlan.mac.dcf.originatorMacDataService packetAggregated:count 0
scalar Throughput.cliHost[2].wlan.mac.dcf.originatorMacDataService packetFragmented:count 0
scalar Throughput.cliHost[2].wlan.mac.dcf.recipientMacDataService packetDeaggregated:count 0
scalar Throughput.cliHost[2].wlan.mac.dcf.recipientMacDataService packetDefragmented:count 0
scalar Throughput.cliHost[2].wlan.mac.dcf.recipientMacDataService packetDropDuplicateDetected:count 0
scalar Throughput.cliHost[2].wlan.mac.dcf.recipientMacDataService packetDropDuplicateDetected:sum(packetBytes) 0
scalar Throughput.cliHost[2].wlan.mac.dcf.recoveryProcedure retryLimitReached:count 0
scalar Throughput.cliHost[2].wlan.mac.dcf frameSequenceFinished:count 626
scalar Throughput.cliHost[2].wlan.mac.dcf packetReceivedFromPeer:count 490
scalar Throughput.cliHost[2].wlan.mac.dcf packetReceivedFromPeer:sum(packetBytes) 6860
scalar Throughput.cliHost[2].wlan.mac.dcf packetReceivedFromPeerUnicast:count 490
scalar Throughput.cliHost[2].wlan.mac.dcf packetReceivedFromPeerUnicast:sum(packetBytes) 6860
scalar Throughput.cliHost[2].wlan.mac.dcf packetReceivedFromPeerMulticast:count 0
scalar Throughput.cliHost[2].wlan.mac.dcf packetReceivedFromPeerMulticast:sum(packetBytes) 0
scalar Throughput.cliHost[2].wlan.mac.dcf packetReceivedFromPeerBroadcast:count 0
scalar Throughput.cliHost[2].wlan.mac.dcf packetReceivedFromPeerBroadcast:sum(packetBytes) 0
scalar Throughput.cliHost[2].wlan.mac.dcf packetReceivedFromPeerWithRetry:count 0
scalar Throughput.cliHost[2].wlan.mac.dcf packetReceivedFromPeerWithRetry:sum(packetBytes) 0
scalar Throughput.cliHost[2].wlan.mac.dcf packetReceivedFromPeerWithoutRetry:count 490
scalar Throughput.cliHost[2].wlan.mac.dcf packetReceivedFromPeerWithoutRetry:sum(packetBytes) 6860
scalar Throughput.cliHost[2].wlan.mac.dcf packetSentToPeer:count 626
scalar Throughput.cliHost[2].wlan.mac.dcf packetSentToPeer:sum(packetBytes) 645406
scalar Throughput.cliHost[2].wlan.mac.dcf packetSentToPeerUnicast:count 626
scalar Throughput.cliHost[2].wlan.mac.dcf packetSentToPeerUnicast:sum(packetBytes) 645406
scalar Throughput.cliHost[2].wlan.mac.dcf packetSentToPeerMulticast:count 0
scalar Throughput.cliHost[2].wlan.mac.dcf packetSentToPeerMulticast:sum(packetBytes) 0
scalar Throughput.cliHost[2].wlan.mac.dcf packetSentToPeerBroadcast:count 0
scalar Throughput.cliHost[2].wlan.mac.dcf packetSentToPeerBroadcast:sum(packetBytes) 0
scalar Throughput.cliHost[2].wlan.mac.dcf packetSentToPeerWithRetry:count 136
scalar Throughput.cliHost[2].wlan.mac.dcf packetSentToPeerWithRetry:sum(packetBytes) 140216
scalar Throughput.cliHost[2].wlan.mac.dcf packetSentToPeerWithoutRetry:count 490
scalar Throughput.cliHost[2].wlan.mac.dcf packetSentToPeerWithoutRetry:sum(packetBytes) 505190
scalar Throughput.cliHost[2].wlan.mac.dcf packetDrop:count 15465
scalar Throughput.cliHost[2].wlan.mac.dcf packetDrop:sum(packetBytes) 12864939
scalar Throughput.cliHost[2].wlan.mac.dcf packetDropNotAddressedToUs:count 6056
scalar Throughput.cliHost[2].wlan.mac.dcf packetDropNotAddressedToUs:sum(packetBytes) 3164260
scalar Throughput.cliHost[2].wlan.mac.dcf packetDropQueueOverflow:count 9409
scalar Throughput.cliHost[2].wlan.mac.dcf packetDropQueueOverflow:sum(packetBytes) 9700679
scalar Throughput.cliHost[2].wlan.mac.dcf packetDropRetryLimitReached:count 0
scalar Throughput.cliHost[2].wlan.mac.dcf packetDropRetryLimitReached:sum(packetBytes) 0
scalar Throughput.cliHost[2].wlan.mac.dcf linkBroken:count 0
scalar Throughput.cliHost[2].wlan.mac packetReceivedFromLower:count 6810
scalar Throughput.cliHost[2].wlan.mac packetReceivedFromLower:sum(packetBytes) 3443304
scalar Throughput.cliHost[2].wlan.mac packetSentToLower:count 626
scalar Throughput.cliHost[2].wlan.mac packetSentToLower:sum(packetBytes) 645406
scalar Throughput.cliHost[2].wlan.mac packetReceivedFromUpper:count 10000
scalar Throughput.cliHost[2].wlan.mac packetReceivedFromUpper:sum(packetBytes) 10030000
scalar Throughput.cliHost[2].wlan.mac packetSentToUpper:count 0
scalar Throughput.cliHost[2].wlan.mac packetSentToUpper:sum(packetBytes) 0
scalar Throughput.cliHost[2].wlan.mac packetDrop:count 15729
scalar Throughput.cliHost[2].wlan.mac packetDrop:sum(packetBytes) 13137123
scalar Throughput.cliHost[2].wlan.mac packetDropIncorrectlyReceived:count 264
scalar Throughput.cliHost[2].wlan.mac packetDropIncorrectlyReceived:sum(packetBytes) 272184
scalar Throughput.cliHost[2].wlan.mac packetDropNotAddressedToUs:count 6056
scalar Throughput.cliHost[2].wlan.mac packetDropNotAddressedToUs:sum(packetBytes) 3164260
scalar Throughput.cliHost[2].wlan.mac packetDropQueueOverflow:count 9409
scalar Throughput.cliHost[2].wlan.mac packetDropQueueOverflow:sum(packetBytes) 9700679
scalar Throughput.cliHost[2].wlan.mac packetDropRetryLimitReached:count 0
scalar Throughput.cliHost[2].wlan.mac packetDropRetryLimitReached:sum(packetBytes) 0
scalar Throughput.cliHost[2].wlan.mac packetDropDuplicateDetected:count 0
scalar Throughput.cliHost[2].wlan.mac packetDropDuplicateDetected:sum(packetBytes) 0
scalar Throughput.cliHost[2].wlan.mac packetDropOther:count 0
scalar Throughput.cliHost[2].wlan.mac packetDropOther:sum(packetBytes) 0
scalar Throughput.cliHost[2].wlan.mac linkBroken:count 0
scalar Throughput.cliHost[2].wlan.radio radioMode:count 1255
scalar Throughput.cliHost[2].wlan.radio receptionState:count 15247
scalar Throughput.cliHost[2].wlan.radio transmissionState:count 2504
scalar Throughput.cliHost[2].wlan packetDropInterfaceDown:count 0
scalar Throughput.cliHost[2].wlan packetDropInterfaceDown:sum(packetBytes) 0
scalar Throughput.cliHost[2].wlan packetDropNoCarrier:count 0
scalar Throughput.cliHost[2].wlan packetDropNoCarrier:sum(packetBytes) 0
scalar Throughput.cliHost[3].cli packetReceived:count 0
scalar Throughput.cliHost[3].cli packetReceived:sum(packetBytes) 0
scalar Throughput.cliHost[3].cli packetSent:count 10000
scalar Throughput.cliHost[3].cli packetSent:sum(packetBytes) 10000000
scalar Throughput.cliHost[3].wlan.mac.dcf.channelAccess.pendingQueue queueLength:last 100
scalar Throughput.cliHost[3].wlan.mac.dcf.channelAccess.pendingQueue queueLength:max 100
scalar Throughput.cliHost[3].wlan.mac.dcf.channelAccess.pendingQueue queueLength:timeavg 99.451097493522724
scalar Throughput.cliHost[3].wlan.mac.dcf.channelAccess.pendingQueue queueBitLength:last 824800
scalar Throughput.cliHost[3].wlan.mac.dcf.channelAccess.pendingQueue queueBitLength:max 824800
scalar Throughput.cliHost[3].wlan.mac.dcf.channelAccess.pendingQueue queueBitLength:timeavg 820272.65212632902
scalar Throughput.cliHost[3].wlan.mac.dcf.channelAccess.pendingQueue outgoingPackets:count 483
scalar Throughput.cliHost[3].wlan.mac.dcf.channelAccess.pendingQueue outgoingPacketLengths:sum 3983784
scalar Throughput.cliHost[3].wlan.mac.dcf.channelAccess.pendingQueue incomingPackets:count 10000
scalar Throughput.cliHost[3].wlan.mac.dcf.channelAccess.pendingQueue incomingPacketLengths:sum 82480000
scalar Throughput.cliHost[3].wlan.mac.dcf.channelAccess.pendingQueue droppedPacketsQueueOverflow:count 9417
scalar Throughput.cliHost[3].wlan.mac.dcf.channelAccess.pendingQueue droppedPacketLengthsQueueOverflow:sum 77671416
scalar Throughput.cliHost[3].wlan.mac.dcf.channelAccess.inProgressFrames queueLength:max 2
scalar Throughput.cliHost[3].wlan.mac.dcf.channelAccess.inProgressFrames queueLength:timeavg 1.4673042589496117
scalar Throughput.cliHost[3].wlan.mac.dcf.channelAccess.contention channelAccessGranted:count 625
scalar Throughput.cliHost[3].wlan.mac.dcf.channelAccess.contention stateChanged:count 30832
scalar Throughput.cliHost[3].wlan.mac.dcf.channelAccess channelOwnershipChanged:count 1249
scalar Throughput.cliHost[3].wlan.mac.dcf.originatorMacDataService packetAggregated:count 0
scalar Throughput.cliHost[3].wlan.mac.dcf.originatorMacDataService packetFragmented:count 0
scalar Throughput.cliHost[3].wlan.mac.dcf.recipientMacDataService packetDeaggregated:count 0
scalar Throughput.cliHost[3].wlan.mac.dcf.recipientMacDataService packetDefragmented:count 0
scalar Throughput.cliHost[3].wlan.mac.dcf.recipientMacDataService packetDropDuplicateDetected:count 0
scalar Throughput.cliHost[3].wlan.mac.dcf.recipientMacDataService packetDropDuplicateDetected:sum(packetBytes) 0
scalar Throughput.cliHost[3].wlan.mac.dcf.recoveryProcedure retryLimitReached:count 0
scalar Throughput.cliHost[3].wlan.mac.dcf frameSequenceFinished:count 624
scalar Throughput.cliHost[3].wlan.mac.dcf packetReceivedFromPeer:count 481
scalar Throughput.cliHost[3].wlan.mac.dcf packetReceivedFromPeer:sum(packetBytes) 6734
scalar Throughput.cliHost[3].wlan.mac.dcf packetReceivedFromPeerUnicast:count 481
scalar Throughput.cliHost[3].wlan.mac.dcf packetReceivedFromPeerUnicast:sum(packetBytes) 6734
scalar Throughput.cliHost[3].wlan.mac.dcf packetReceivedFromPeerMulticast:count 0
scalar Throughput.cliHost[3].wlan.mac.dcf packetReceivedFromPeerMulticast:sum(packetBytes) 0
scalar Throughput.cliHost[3].wlan.mac.dcf packetReceivedFromPeerBroadcast:count 0
scalar Throughput.cliHost[3].wlan.mac.dcf packetReceivedFromPeerBroadcast:sum(packetBytes) 0
scalar Throughput.cliHost[3].wlan.mac.dcf packetReceivedFromPeerWithRetry:count 0
scalar Throughput.cliHost[3].wlan.mac.dcf packetReceivedFromPeerWithRetry:sum(packetBytes) 0
scalar Throughput.cliHost[3].wlan.mac.dcf packetReceivedFromPeerWithoutRetry:count 481
scalar Throughput.cliHost[3].wlan.mac.dcf packetReceivedFromPeerWithoutRetry:sum(packetBytes) 6734
scalar Throughput.cliHost[3].wlan.mac.dcf packetSentToPeer:count 625
scalar Throughput.cliHost[3].wlan.mac.dcf packetSentToPeer:sum(packetBytes) 644375
scalar Throughput.cliHost[3].wlan.mac.dcf packetSentToPeerUnicast:count 625
scalar Throughput.cliHost[3].wlan.mac.dcf packetSentToPeerUnicast:sum(packetBytes) 644375
scalar Throughput.cliHost[3].wlan.mac.dcf packetSentToPeerMulticast:count 0
scalar Throughput.cliHost[3].wlan.mac.dcf packetSentToPeerMulticast:sum(packetBytes) 0
scalar Throughput.cliHost[3].wlan.mac.dcf packetSentToPeerBroadcast:count 0
scalar Throughput.cliHost[3].wlan.mac.dcf packetSentToPeerBroadcast:sum(packetBytes) 0
scalar Throughput.cliHost[3].wlan.mac.dcf packetSentToPeerWithRetry:count 143
scalar Throughput.cliHost[3].wlan.mac.dcf packetSentToPeerWithRetry:sum(packetBytes) 147433
scalar Throughput.cliHost[3].wlan.mac.dcf packetSentToPeerWithoutRetry:count 482
scalar Throughput.cliHost[3].wlan.mac.dcf packetSentToPeerWithoutRetry:sum(packetBytes) 496942
scalar Throughput.cliHost[3].wlan.mac.dcf packetDrop:count 15491
scalar Throughput.cliHost[3].wlan.mac.dcf packetDrop:sum(packetBytes) 12882592
scalar Throughput.cliHost[3].wlan.mac.dcf packetDropNotAddressedToUs:count 6074
scalar Throughput.cliHost[3].wlan.mac.dcf packetDropNotAddressedToUs:sum(packetBytes) 3173665
scalar Throughput.cliHost[3].wlan.mac.dcf packetDropQueueOverflow:count 9417
scalar Throughput.cliHost[3].wlan.mac.dcf packetDropQueueOverflow:sum(packetBytes) 9708927
scalar Throughput.cliHost[3].wlan.mac.dcf packetDropRetryLimitReached:count 0
scalar Throughput.cliHost[3].wlan.mac.dcf packetDropRetryLimitReached:sum(packetBytes) 0
scalar Throughput.cliHost[3].wlan.mac.dcf linkBroken:count 0
scalar Throughput.cliHost[3].wlan.mac packetReceivedFromLower:count 6811
scalar Throughput.cliHost[3].wlan.mac packetReceivedFromLower:sum(packetBytes) 3444335
scalar Throughput.cliHost[3].wlan.mac packetSentToLower:count 625
scalar Throughput.cliHost[3].wlan.mac packetSentToLower:sum(packetBytes) 644375
scalar Throughput.cliHost[3].wlan.mac packetReceivedFromUpper:count 10000
scalar Throughput.cliHost[3].wlan.mac packetReceivedFromUpper:sum(packetBytes) 10030000
scalar Throughput.cliHost[3].wlan.mac packetSentToUpper:count 0
scalar Throughput.cliHost[3].wlan.mac packetSentToUpper:sum(packetBytes) 0
scalar Throughput.cliHost[3].wlan.mac packetDrop:count 15747
scalar Throughput.cliHost[3].wlan.mac packetDrop:sum(packetBytes) 13146528
scalar Throughput.cliHost[3].wlan.mac packetDropIncorrectlyReceived:count 256
scalar Throughput.cliHost[3].wlan.mac packetDropIncorrectlyReceived:sum(packetBytes) 263936
scalar Throughput.cliHost[3].wlan.mac packetDropNotAddressedToUs:count 6074
scalar Throughput.cliHost[3].wlan.mac packetDropNotAddressedToUs:sum(packetBytes) 3173665
scalar Throughput.cliHost[3].wlan.mac packetDropQueueOverflow:count 9417
scalar Throughput.cliHost[3].wlan.mac packetDropQueueOverflow:sum(packetBytes) 9708927
scalar Throughput.cliHost[3].wlan.mac packetDropRetryLimitReached:count 0
scalar Throughput.cliHost[3].wlan.mac packetDropRetryLimitReached:sum(packetBytes) 0
scalar Throughput.cliHost[3].wlan.mac packetDropDuplicateDetected:count 0
scalar Throughput.cliHost[3].wlan.mac packetDropDuplicateDetected:sum(packetBytes) 0
scalar Throughput.cliHost[3].wlan.mac packetDropOther:count 0
scalar Throughput.cliHost[3].wlan.mac packetDropOther:sum(packetBytes) 0
scalar Throughput.cliHost[3].wlan.mac linkBroken:count 0
scalar Throughput.cliHost[3].wlan.radio radioMode:count 1253
scalar Throughput.cliHost[3].wlan.radio receptionState:count 15237
scalar Throughput.cliHost[3].wlan.radio transmissionState:count 2500
scalar Throughput.cliHost[3].wlan packetDropInterfaceDown:count 0
scalar Throughput.cliHost[3].wlan packetDropInterfaceDown:sum(packetBytes) 0
scalar Throughput.cliHost[3].wlan packetDropNoCarrier:count 0
scalar Throughput.cliHost[3].wlan packetDropNoCarrier:sum(packetBytes) 0
scalar Throughput.cliHost[4].cli packetReceived:count 0
scalar Throughput.cliHost[4].cli packetReceived:sum(packetBytes) 0
scalar Throughput.cliHost[4].cli packetSent:count 10000
scalar Throughput.cliHost[4].cli packetSent:sum(packetBytes) 10000000
scalar Throughput.cliHost[4].wlan.mac.dcf.channelAccess.pendingQueue queueLength:last 100
scalar Throughput.cliHost[4].wlan.mac.dcf.channelAccess.pendingQueue queueLength:max 100
scalar Throughput.cliHost[4].wlan.mac.dcf.channelAccess.pendingQueue queueLength:timeavg 99.443886241694798
scalar Throughput.cliHost[4].wlan.mac.dcf.channelAccess.pendingQueue queueBitLength:last 824800
scalar Throughput.cliHost[4].wlan.mac.dcf.channelAccess.pendingQueue queueBitLength:max 824800
scalar Throughput.cliHost[4].wlan.mac.dcf.channelAccess.pendingQueue queueBitLength:timeavg 820213.17372125201
scalar Throughput.cliHost[4].wlan.mac.dcf.channelAccess.pendingQueue outgoingPackets:count 459
scalar Throughput.cliHost[4].wlan.mac.dcf.channelAccess.pendingQueue outgoingPacketLengths:sum 3785832
scalar Throughput.cliHost[4].wlan.mac.dcf.channelAccess.pendingQueue incomingPackets:count 10000
scalar Throughput.cliHost[4].wlan.mac.dcf.channelAccess.pendingQueue incomingPacketLengths:sum 82480000
scalar Throughput.cliHost[4].wlan.mac.dcf.channelAccess.pendingQueue droppedPacketsQueueOverflow:count 9441
scalar Throughput.cliHost[4].wlan.mac.dcf.channelAccess.pendingQueue droppedPacketLengthsQueueOverflow:sum 77869368
scalar Throughput.cliHost[4].wlan.mac.dcf.channelAccess.inProgressFrames queueLength:max 2
scalar Throughput.cliHost[4].wlan.mac.dcf.channelAccess.inProgressFrames queueLength:timeavg 1.4831657488170129
scalar Throughput.cliHost[4].wlan.mac.dcf.channelAccess.contention channelAccessGranted:count 583
scalar Throughput.cliHost[4].wlan.mac.dcf.channelAccess.contention stateChanged:count 30800
scalar Throughput.cliHost[4].wlan.mac.dcf.channelAccess channelOwnershipChanged:count 1166
scalar Throughput.cliHost[4].wlan.mac.dcf.originatorMacDataService packetAggregated:count 0
scalar Throughput.cliHost[4].wlan.mac.dcf.originatorMacDataService packetFragmented:count 0
scalar Throughput.cliHost[4].wlan.mac.dcf.recipientMacDataService packetDeaggregated:count 0
scalar Throughput.cliHost[4].wlan.mac.dcf.recipientMacDataService packetDefragmented:count 0
scalar Throughput.cliHost[4].wlan.mac.dcf.recipientMacDataService packetDropDuplicateDetected:count 0
scalar Throughput.cliHost[4].wlan.mac.dcf.recipientMacDataService packetDropDuplicateDetected:sum(packetBytes) 0
scalar Throughput.cliHost[4].wlan.mac.dcf.recoveryProcedure retryLimitReached:count 0
scalar Throughput.cliHost[4].wlan.mac.dcf frameSequenceFinished:count 583
scalar Throughput.cliHost[4].wlan.mac.dcf packetReceivedFromPeer:count 457
scalar Throughput.cliHost[4].wlan.mac.dcf packetReceivedFromPeer:sum(packetBytes) 6398
scalar Throughput.cliHost[4].wlan.mac.dcf packetReceivedFromPeerUnicast:count 457
scalar Throughput.cliHost[4].wlan.mac.dcf packetReceivedFromPeerUnicast:sum(packetBytes) 6398
scalar Throughput.cliHost[4].wlan.mac.dcf packetReceivedFromPeerMulticast:count 0
scalar Throughput.cliHost[4].wlan.mac.dcf packetReceivedFromPeerMulticast:sum(packetBytes) 0
scalar Throughput.cliHost[4].wlan.mac.dcf packetReceivedFromPeerBroadcast:count 0
scalar Throughput.cliHost[4].wlan.mac.dcf packetReceivedFromPeerBroadcast:sum(packetBytes) 0
scalar Throughput.cliHost[4].wlan.mac.dcf packetReceivedFromPeerWithRetry:count 0
scalar Throughput.cliHost[4].wlan.mac.dcf packetReceivedFromPeerWithRetry:sum(packetBytes) 0
scalar Throughput.cliHost[4].wlan.mac.dcf packetReceivedFromPeerWithoutRetry:count 457
scalar Throughput.cliHost[4].wlan.mac.dcf packetReceivedFromPeerWithoutRetry:sum(packetBytes) 6398
scalar Throughput.cliHost[4].wlan.mac.dcf packetSentToPeer:count 583
scalar Throughput.cliHost[4].wlan.mac.dcf packetSentToPeer:sum(packetBytes) 601073
scalar Throughput.cliHost[4].wlan.mac.dcf packetSentToPeerUnicast:count 583
scalar Throughput.cliHost[4].wlan.mac.dcf packetSentToPeerUnicast:sum(packetBytes) 601073
scalar Throughput.cliHost[4].wlan.mac.dcf packetSentToPeerMulticast:count 0
scalar Throughput.cliHost[4].wlan.mac.dcf packetSentToPeerMulticast:sum(packetBytes) 0
scalar Throughput.cliHost[4].wlan.mac.dcf packetSentToPeerBroadcast:count 0
scalar Throughput.cliHost[4].wlan.mac.dcf packetSentToPeerBroadcast:sum(packetBytes) 0
scalar Throughput.cliHost[4].wlan.mac.dcf packetSentToPeerWithRetry:count 125
scalar Throughput.cliHost[4].wlan.mac.dcf packetSentToPeerWithRetry:sum(packetBytes) 128875
scalar Throughput.cliHost[4].wlan.mac.dcf packetSentToPeerWithoutRetry:count 458
scalar Throughput.cliHost[4].wlan.mac.dcf packetSentToPeerWithoutRetry:sum(packetBytes) 472198
scalar Throughput.cliHost[4].wlan.mac.dcf packetDrop:count 15563
scalar Throughput.cliHost[4].wlan.mac.dcf packetDrop:sum(packetBytes) 12932416
scalar Throughput.cliHost[4].wlan.mac.dcf packetDropNotAddressedToUs:count 6122
scalar Throughput.cliHost[4].wlan.mac.dcf packetDropNotAddressedToUs:sum(packetBytes) 3198745
scalar Throughput.cliHost[4].wlan.mac.dcf packetDropQueueOverflow:count 9441
scalar Throughput.cliHost[4].wlan.mac.dcf packetDropQueueOverflow:sum(packetBytes) 9733671
scalar Throughput.cliHost[4].wlan.mac.dcf packetDropRetryLimitReached:count 0
scalar Throughput.cliHost[4].wlan.mac.dcf packetDropRetryLimitReached:sum(packetBytes) 0
scalar Throughput.cliHost[4].wlan.mac.dcf linkBroken:count 0
scalar Throughput.cliHost[4].wlan.mac packetReceivedFromLower:count 6853
scalar Throughput.cliHost[4].wlan.mac packetReceivedFromLower:sum(packetBytes) 3487637
scalar Throughput.cliHost[4].wlan.mac packetSentToLower:count 583
scalar Throughput.cliHost[4].wlan.mac packetSentToLower:sum(packetBytes) 601073
scalar Throughput.cliHost[4].wlan.mac packetReceivedFromUpper:count 10000
scalar Throughput.cliHost[4].wlan.mac packetReceivedFromUpper:sum(packetBytes) 10030000
scalar Throughput.cliHost[4].wlan.mac packetSentToUpper:count 0
scalar Throughput.cliHost[4].wlan.mac packetSentToUpper:sum(packetBytes) 0
scalar Throughput.cliHost[4].wlan.mac packetDrop:count 15837
scalar Throughput.cliHost[4].wlan.mac packetDrop:sum(packetBytes) 13214910
scalar Throughput.cliHost[4].wlan.mac packetDropIncorrectlyReceived:count 274
scalar Throughput.cliHost[4].wlan.mac packetDropIncorrectlyReceived:sum(packetBytes) 282494
scalar Throughput.cliHost[4].wlan.mac packetDropNotAddressedToUs:count 6122
scalar Throughput.cliHost[4].wlan.mac packetDropNotAddressedToUs:sum(packetBytes) 3198745
scalar Throughput.cliHost[4].wlan.mac packetDropQueueOverflow:count 9441
scalar Throughput.cliHost[4].wlan.mac packetDropQueueOverflow:sum(packetBytes) 9733671
scalar Throughput.cliHost[4].wlan.mac packetDropRetryLimitReached:count 0
scalar Throughput.cliHost[4].wlan.mac packetDropRetryLimitReached:sum(packetBytes) 0
scalar Throughput.cliHost[4].wlan.mac packetDropDuplicateDetected:count 0
scalar Throughput.cliHost[4].wlan.mac packetDropDuplicateDetected:sum(packetBytes) 0
scalar Throughput.cliHost[4].wlan.mac packetDropOther:count 0
scalar Throughput.cliHost[4].wlan.mac packetDropOther:sum(packetBytes) 0
scalar Throughput.cliHost[4].wlan.mac linkBroken:count 0
scalar Throughput.cliHost[4].wlan.radio radioMode:count 1169
scalar Throughput.cliHost[4].wlan.radio receptionState:count 15240
scalar Throughput.cliHost[4].wlan.radio transmissionState:count 2332
scalar Throughput.cliHost[4].wlan packetDropInterfaceDown:count 0
scalar Throughput.cliHost[4].wlan packetDropInterfaceDown:sum(packetBytes) 0
scalar Throughput.cliHost[4].wlan packetDropNoCarrier:count 0
scalar Throughput.cliHost[4].wlan packetDropNoCarrier:sum(packetBytes) 0
scalar Throughput.cliHost[5].cli packetReceived:count 0
scalar Throughput.cliHost[5].cli packetReceived:sum(packetBytes) 0
scalar Throughput.cliHost[5].cli packetSent:count 10000
scalar Throughput.cliHost[5].cli packetSent:sum(packetBytes) 10000000
scalar Throughput.cliHost[5].wlan.mac.dcf.channelAccess.pendingQueue queueLength:last 100
scalar Throughput.cliHost[5].wlan.mac.dcf.channelAccess.pendingQueue queueLength:max 100
scalar Throughput.cliHost[5].wlan.mac.dcf.channelAccess.pendingQueue queueLength:timeavg 99.408428264616603
scalar Throughput.cliHost[5].wlan.mac.dcf.channelAccess.pendingQueue queueBitLength:last 824800
scalar Throughput.cliHost[5].wlan.mac.dcf.channelAccess.pendingQueue queueBitLength:max 824800
scalar Throughput.cliHost[5].wlan.mac.dcf.channelAccess.pendingQueue queueBitLength:timeavg 819920.71632631053
scalar Throughput.cliHost[5].wlan.mac.dcf.channelAccess.pendingQueue outgoingPackets:count 488
scalar Throughput.cliHost[5].wlan.mac.dcf.channelAccess.pendingQueue outgoingPacketLengths:sum 4025024
scalar Throughput.cliHost[5].wlan.mac.dcf.channelAccess.pendingQueue incomingPackets:count 10000
scalar Throughput.cliHost[5].wlan.mac.dcf.channelAccess.pendingQueue incomingPacketLengths:sum 82480000
scalar Throughput.cliHost[5].wlan.mac.dcf.channelAccess.pendingQueue droppedPacketsQueueOverflow:count 9412
scalar Throughput.cliHost[5].wlan.mac.dcf.channelAccess.pendingQueue droppedPacketLengthsQueueOverflow:sum 77630176
scalar Throughput.cliHost[5].wlan.mac.dcf.channelAccess.inProgressFrames queueLength:max 2
scalar Throughput.cliHost[5].wlan.mac.dcf.channelAccess.inProgressFrames queueLength:timeavg 1.4660704618544107
scalar Throughput.cliHost[5].wlan.mac.dcf.channelAccess.contention channelAccessGranted:count 628
scalar Throughput.cliHost[5].wlan.mac.dcf.channelAccess.contention stateChanged:count 30830
scalar Throughput.cliHost[5].wlan.mac.dcf.channelAccess channelOwnershipChanged:count 1256
scalar Throughput.cliHost[5].wlan.mac.dcf.originatorMacDataService packetAggregated:count 0
scalar Throughput.cliHost[5].wlan.mac.dcf.originatorMacDataService packetFragmented:count 0
scalar Throughput.cliHost[5].wlan.mac.dcf.recipientMacDataService packetDeaggregated:count 0
scalar Throughput.cliHost[5].wlan.mac.dcf.recipientMacDataService packetDefragmented:count 0
scalar Throughput.cliHost[5].wlan.mac.dcf.recipientMacDataService packetDropDuplicateDetected:count 0
scalar Throughput.cliHost[5].wlan.mac.dcf.recipientMacDataService packetDropDuplicateDetected:sum(packetBytes) 0
scalar Throughput.cliHost[5].wlan.mac.dcf.recoveryProcedure retryLimitReached:count 0
scalar Throughput.cliHost[5].wlan.mac.dcf frameSequenceFinished:count 628
scalar Throughput.cliHost[5].wlan.mac.dcf packetReceivedFromPeer:count 487
scalar Throughput.cliHost[5].wlan.mac.dcf packetReceivedFromPeer:sum(packetBytes) 6818
scalar Throughput.cliHost[5].wlan.mac.dcf packetReceivedFromPeerUnicast:count 487
scalar Throughput.cliHost[5].wlan.mac.dcf packetReceivedFromPeerUnicast:sum(packetBytes) 6818
scalar Throughput.cliHost[5].wlan.mac.dcf packetReceivedFromPeerMulticast:count 0
scalar Throughput.cliHost[5].wlan.mac.dcf packetReceivedFromPeerMulticast:sum(packetBytes) 0
scalar Throughput.cliHost[5].wlan.mac.dcf packetReceivedFromPeerBroadcast:count 0
scalar Throughput.cliHost[5].wlan.mac.dcf packetReceivedFromPeerBroadcast:sum(packetBytes) 0
scalar Throughput.cliHost[5].wlan.mac.dcf packetReceivedFromPeerWithRetry:count 0
scalar Throughput.cliHost[5].wlan.mac.dcf packetReceivedFromPeerWithRetry:sum(packetBytes) 0
scalar Throughput.cliHost[5].wlan.mac.dcf packetReceivedFromPeerWithoutRetry:count 487
scalar Throughput.cliHost[5].wlan.mac.dcf packetReceivedFromPeerWithoutRetry:sum(packetBytes) 6818
scalar Throughput.cliHost[5].wlan.mac.dcf packetSentToPeer:count 628
scalar Throughput.cliHost[5].wlan.mac.dcf packetSentToPeer:sum(packetBytes) 647468
scalar Throughput.cliHost[5].wlan.mac.dcf packetSentToPeerUnicast:count 628
scalar Throughput.cliHost[5].wlan.mac.dcf packetSentToPeerUnicast:sum(packetBytes) 647468
scalar Throughput.cliHost[5].wlan.mac.dcf packetSentToPeerMulticast:count 0
scalar Throughput.cliHost[5].wlan.mac.dcf packetSentToPeerMulticast:sum(packetBytes) 0
scalar Throughput.cliHost[5].wlan.mac.dcf packetSentToPeerBroadcast:count 0
scalar Throughput.cliHost[5].wlan.mac.dcf packetSentToPeerBroadcast:sum(packetBytes) 0
scalar Throughput.cliHost[5].wlan.mac.dcf packetSentToPeerWithRetry:count 141
scalar Throughput.cliHost[5].wlan.mac.dcf packetSentToPeerWithRetry:sum(packetBytes) 145371
scalar Throughput.cliHost[5].wlan.mac.dcf packetSentToPeerWithoutRetry:count 487
scalar Throughput.cliHost[5].wlan.mac.dcf packetSentToPeerWithoutRetry:sum(packetBytes) 502097
scalar Throughput.cliHost[5].wlan.mac.dcf packetDrop:count 15474
scalar Throughput.cliHost[5].wlan.mac.dcf packetDrop:sum(packetBytes) 12871167
scalar Throughput.cliHost[5].wlan.mac.dcf packetDropNotAddressedToUs:count 6062
scalar Throughput.cliHost[5].wlan.mac.dcf packetDropNotAddressedToUs:sum(packetBytes) 3167395
scalar Throughput.cliHost[5].wlan.mac.dcf packetDropQueueOverflow:count 9412
scalar Throughput.cliHost[5].wlan.mac.dcf packetDropQueueOverflow:sum(packetBytes) 9703772
scalar Throughput.cliHost[5].wlan.mac.dcf packetDropRetryLimitReached:count 0
scalar Throughput.cliHost[5].wlan.mac.dcf packetDropRetryLimitReached:sum(packetBytes) 0
scalar Throughput.cliHost[5].wlan.mac.dcf linkBroken:count 0
scalar Throughput.cliHost[5].wlan.mac packetReceivedFromLower:count 6808
scalar Throughput.cliHost[5].wlan.mac packetReceivedFromLower:sum(packetBytes) 3441242
scalar Throughput.cliHost[5].wlan.mac packetSentToLower:count 628
scalar Throughput.cliHost[5].wlan.mac packetSentToLower:sum(packetBytes) 647468
scalar Throughput.cliHost[5].wlan.mac packetReceivedFromUpper:count 10000
scalar Throughput.cliHost[5].wlan.mac packetReceivedFromUpper:sum(packetBytes) 10030000
scalar Throughput.cliHost[5].wlan.mac packetSentToUpper:count 0
scalar Throughput.cliHost[5].wlan.mac packetSentToUpper:sum(packetBytes) 0
scalar Throughput.cliHost[5].wlan.mac packetDrop:count 15733
scalar Throughput.cliHost[5].wlan.mac packetDrop:sum(packetBytes) 13138196
scalar Throughput.cliHost[5].wlan.mac packetDropIncorrectlyReceived:count 259
scalar Throughput.cliHost[5].wlan.mac packetDropIncorrectlyReceived:sum(packetBytes) 267029
scalar Throughput.cliHost[5].wlan.mac packetDropNotAddressedToUs:count 6062
scalar Throughput.cliHost[5].wlan.mac packetDropNotAddressedToUs:sum(packetBytes) 3167395
scalar Throughput.cliHost[5].wlan.mac packetDropQueueOverflow:count 9412
scalar Throughput.cliHost[5].wlan.mac packetDropQueueOverflow:sum(packetBytes) 9703772
scalar Throughput.cliHost[5].wlan.mac packetDropRetryLimitReached:count 0
scalar Throughput.cliHost[5].wlan.mac packetDropRetryLimitReached:sum(packetBytes) 0
scalar Throughput.cliHost[5].wlan.mac packetDropDuplicateDetected:count 0
scalar Throughput.cliHost[5].wlan.mac packetDropDuplicateDetected:sum(packetBytes) 0
scalar Throughput.cliHost[5].wlan.mac packetDropOther:count 0
scalar Throughput.cliHost[5].wlan.mac packetDropOther:sum(packetBytes) 0
scalar Throughput.cliHost[5].wlan.mac linkBroken:count 0
scalar Throughput.cliHost[5].wlan.radio radioMode:count 1259
scalar Throughput.cliHost[5].wlan.radio receptionState:count 15246
scalar Throughput.cliHost[5].wlan.radio transmissionState:count 2512
scalar Throughput.cliHost[5].wlan packetDropInterfaceDown:count 0
scalar Throughput.cliHost[5].wlan packetDropInterfaceDown:sum(packetBytes) 0
scalar Throughput.cliHost[5].wlan packetDropNoCarrier:count 0
scalar Throughput.cliHost[5].wlan packetDropNoCarrier:sum(packetBytes) 0
scalar Throughput.srvHost.sink packetReceived:count 728
scalar Throughput.srvHost.sink packetReceived:sum(packetBytes) 728000
scalar Throughput.srvHost.sink packetSent:count 0
scalar Throughput.srvHost.sink packetSent:sum(packetBytes) 0
scalar Throughput.srvHost.wlan.mac.dcf.channelAccess.pendingQueue queueLength:last 0
scalar Throughput.srvHost.wlan.mac.dcf.channelAccess.pendingQueue queueLength:max 0
scalar Throughput.srvHost.wlan.mac.dcf.channelAccess.pendingQueue queueLength:timeavg 0
scalar Throughput.srvHost.wlan.mac.dcf.channelAccess.pendingQueue queueBitLength:last 0
scalar Throughput.srvHost.wlan.mac.dcf.channelAccess.pendingQueue queueBitLength:max 0
scalar Throughput.srvHost.wlan.mac.dcf.channelAccess.pendingQueue queueBitLength:timeavg 0
scalar Throughput.srvHost.wlan.mac.dcf.channelAccess.pendingQueue outgoingPackets:count 0
scalar Throughput.srvHost.wlan.mac.dcf.channelAccess.pendingQueue outgoingPacketLengths:sum 0
scalar Throughput.srvHost.wlan.mac.dcf.channelAccess.pendingQueue incomingPackets:count 0
scalar Throughput.srvHost.wlan.mac.dcf.channelAccess.pendingQueue incomingPacketLengths:sum 0
scalar Throughput.srvHost.wlan.mac.dcf.channelAccess.pendingQueue droppedPacketsQueueOverflow:count 0
scalar Throughput.srvHost.wlan.mac.dcf.channelAccess.pendingQueue droppedPacketLengthsQueueOverflow:sum 0
scalar Throughput.srvHost.wlan.mac.dcf.channelAccess.inProgressFrames queueLength:max 0
scalar Throughput.srvHost.wlan.mac.dcf.channelAccess.inProgressFrames queueLength:timeavg 0
scalar Throughput.srvHost.wlan.mac.dcf.channelAccess.contention channelAccessGranted:count 0
scalar Throughput.srvHost.wlan.mac.dcf.channelAccess.contention stateChanged:count 30546
scalar Throughput.srvHost.wlan.mac.dcf.channelAccess channelOwnershipChanged:count 0
scalar Throughput.srvHost.wlan.mac.dcf.originatorMacDataService packetAggregated:count 0
scalar Throughput.srvHost.wlan.mac.dcf.originatorMacDataService packetFragmented:count 0
scalar Throughput.srvHost.wlan.mac.dcf.recipientMacDataService packetDeaggregated:count 0
scalar Throughput.srvHost.wlan.mac.dcf.recipientMacDataService packetDefragmented:count 728
scalar Throughput.srvHost.wlan.mac.dcf.recipientMacDataService packetDropDuplicateDetected:count 0
scalar Throughput.srvHost.wlan.mac.dcf.recipientMacDataService packetDropDuplicateDetected:sum(packetBytes) 0
scalar Throughput.srvHost.wlan.mac.dcf.recoveryProcedure retryLimitReached:count 0
scalar Throughput.srvHost.wlan.mac.dcf frameSequenceFinished:count 0
scalar Throughput.srvHost.wlan.mac.dcf packetReceivedFromPeer:count 728
scalar Throughput.srvHost.wlan.mac.dcf packetReceivedFromPeer:sum(packetBytes) 750568
scalar Throughput.srvHost.wlan.mac.dcf packetReceivedFromPeerUnicast:count 728
scalar Throughput.srvHost.wlan.mac.dcf packetReceivedFromPeerUnicast:sum(packetBytes) 750568
scalar Throughput.srvHost.wlan.mac.dcf packetReceivedFromPeerMulticast:count 0
scalar Throughput.srvHost.wlan.mac.dcf packetReceivedFromPeerMulticast:sum(packetBytes) 0
scalar Throughput.srvHost.wlan.mac.dcf packetReceivedFromPeerBroadcast:count 0
scalar Throughput.srvHost.wlan.mac.dcf packetReceivedFromPeerBroadcast:sum(packetBytes) 0
scalar Throughput.srvHost.wlan.mac.dcf packetReceivedFromPeerWithRetry:count 217
scalar Throughput.srvHost.wlan.mac.dcf packetReceivedFromPeerWithRetry:sum(packetBytes) 223727
scalar Throughput.srvHost.wlan.mac.dcf packetReceivedFromPeerWithoutRetry:count 511
scalar Throughput.srvHost.wlan.mac.dcf packetReceivedFromPeerWithoutRetry:sum(packetBytes) 526841
scalar Throughput.srvHost.wlan.mac.dcf packetSentToPeer:count 728
scalar Throughput.srvHost.wlan.mac.dcf packetSentToPeer:sum(packetBytes) 10192
scalar Throughput.srvHost.wlan.mac.dcf packetSentToPeerUnicast:count 728
scalar Throughput.srvHost.wlan.mac.dcf packetSentToPeerUnicast:sum(packetBytes) 10192
scalar Throughput.srvHost.wlan.mac.dcf packetSentToPeerMulticast:count 0
scalar Throughput.srvHost.wlan.mac.dcf packetSentToPeerMulticast:sum(packetBytes) 0
scalar Throughput.srvHost.wlan.mac.dcf packetSentToPeerBroadcast:count 0
scalar Throughput.srvHost.wlan.mac.dcf packetSentToPeerBroadcast:sum(packetBytes) 0
scalar Throughput.srvHost.wlan.mac.dcf packetSentToPeerWithRetry:count 0
scalar Throughput.srvHost.wlan.mac.dcf packetSentToPeerWithRetry:sum(packetBytes) 0
scalar Throughput.srvHost.wlan.mac.dcf packetSentToPeerWithoutRetry:count 728
scalar Throughput.srvHost.wlan.mac.dcf packetSentToPeerWithoutRetry:sum(packetBytes) 10192
scalar Throughput.srvHost.wlan.mac.dcf packetDrop:count 5580
scalar Throughput.srvHost.wlan.mac.dcf packetDrop:sum(packetBytes) 2915550
scalar Throughput.srvHost.wlan.mac.dcf packetDropNotAddressedToUs:count 5580
scalar Throughput.srvHost.wlan.mac.dcf packetDropNotAddressedToUs:sum(packetBytes) 2915550
scalar Throughput.srvHost.wlan.mac.dcf packetDropQueueOverflow:count 0
scalar Throughput.srvHost.wlan.mac.dcf packetDropQueueOverflow:sum(packetBytes) 0
scalar Throughput.srvHost.wlan.mac.dcf packetDropRetryLimitReached:count 0
scalar Throughput.srvHost.wlan.mac.dcf packetDropRetryLimitReached:sum(packetBytes) 0
scalar Throughput.srvHost.wlan.mac.dcf linkBroken:count 0
scalar Throughput.srvHost.wlan.mac packetReceivedFromLower:count 6708
scalar Throughput.srvHost.wlan.mac packetReceivedFromLower:sum(packetBytes) 4078518
scalar Throughput.srvHost.wlan.mac packetSentToLower:count 728
scalar Throughput.srvHost.wlan.mac packetSentToLower:sum(packetBytes) 10192
scalar Throughput.srvHost.wlan.mac packetReceivedFromUpper:count 0
scalar Throughput.srvHost.wlan.mac packetReceivedFromUpper:sum(packetBytes) 0
scalar Throughput.srvHost.wlan.mac packetSentToUpper:count 728
scalar Throughput.srvHost.wlan.mac packetSentToUpper:sum(packetBytes) 730184
scalar Throughput.srvHost.wlan.mac packetDrop:count 5980
scalar Throughput.srvHost.wlan.mac packetDrop:sum(packetBytes) 3327950
scalar Throughput.srvHost.wlan.mac packetDropIncorrectlyReceived:count 400
scalar Throughput.srvHost.wlan.mac packetDropIncorrectlyReceived:sum(packetBytes) 412400
scalar Throughput.srvHost.wlan.mac packetDropNotAddressedToUs:count 5580
scalar Throughput.srvHost.wlan.mac packetDropNotAddressedToUs:sum(packetBytes) 2915550
scalar Throughput.srvHost.wlan.mac packetDropQueueOverflow:count 0
scalar Throughput.srvHost.wlan.mac packetDropQueueOverflow:sum(packetBytes) 0
scalar Throughput.srvHost.wlan.mac packetDropRetryLimitReached:count 0
scalar Throughput.srvHost.wlan.mac packetDropRetryLimitReached:sum(packetBytes) 0
scalar Throughput.srvHost.wlan.mac packetDropDuplicateDetected:count 0
scalar Throughput.srvHost.wlan.mac packetDropDuplicateDetected:sum(packetBytes) 0
scalar Throughput.srvHost.wlan.mac packetDropOther:count 0
scalar Throughput.srvHost.wlan.mac packetDropOther:sum(packetBytes) 0
scalar Throughput.srvHost.wlan.mac linkBroken:count 0
scalar Throughput.srvHost.wlan.radio radioMode:count 1459
scalar Throughput.srvHost.wlan.radio receptionState:count 15273
scalar Throughput.srvHost.wlan.radio transmissionState:count 2912
scalar Throughput.srvHost.wlan packetDropInterfaceDown:count 0
scalar Throughput.srvHost.wlan packetDropInterfaceDown:sum(packetBytes) 0
scalar Throughput.srvHost.wlan packetDropNoCarrier:count 0
scalar Throughput.srvHost.wlan packetDropNoCarrier:sum(packetBytes) 0
scalar Throughput.ap.wlan[0].mac.dcf.channelAccess.pendingQueue queueLength:last 100
scalar Throughput.ap.wlan[0].mac.dcf.channelAccess.pendingQueue queueLength:max 100
scalar Throughput.ap.wlan[0].mac.dcf.channelAccess.pendingQueue queueLength:timeavg 97.328743119991685
scalar Throughput.ap.wlan[0].mac.dcf.channelAccess.pendingQueue queueBitLength:last 824800
scalar Throughput.ap.wlan[0].mac.dcf.channelAccess.pendingQueue queueBitLength:max 824800
scalar Throughput.ap.wlan[0].mac.dcf.channelAccess.pendingQueue queueBitLength:timeavg 802767.47325368808
scalar Throughput.ap.wlan[0].mac.dcf.channelAccess.pendingQueue outgoingPackets:count 729
scalar Throughput.ap.wlan[0].mac.dcf.channelAccess.pendingQueue outgoingPacketLengths:sum 6012792
scalar Throughput.ap.wlan[0].mac.dcf.channelAccess.pendingQueue incomingPackets:count 2790
scalar Throughput.ap.wlan[0].mac.dcf.channelAccess.pendingQueue incomingPacketLengths:sum 23011920
scalar Throughput.ap.wlan[0].mac.dcf.channelAccess.pendingQueue droppedPacketsQueueOverflow:count 1961
scalar Throughput.ap.wlan[0].mac.dcf.channelAccess.pendingQueue droppedPacketLengthsQueueOverflow:sum 16174328
scalar Throughput.ap.wlan[0].mac.dcf.channelAccess.inProgressFrames queueLength:max 2
scalar Throughput.ap.wlan[0].mac.dcf.channelAccess.inProgressFrames queueLength:timeavg 1.2098060206733909
scalar Throughput.ap.wlan[0].mac.dcf.channelAccess.contention channelAccessGranted:count 760
scalar Throughput.ap.wlan[0].mac.dcf.channelAccess.contention stateChanged:count 30612
scalar Throughput.ap.wlan[0].mac.dcf.channelAccess channelOwnershipChanged:count 1520
scalar Throughput.ap.wlan[0].mac.dcf.originatorMacDataService packetAggregated:count 0
scalar Throughput.ap.wlan[0].mac.dcf.originatorMacDataService packetFragmented:count 0
scalar Throughput.ap.wlan[0].mac.dcf.recipientMacDataService packetDeaggregated:count 0
scalar Throughput.ap.wlan[0].mac.dcf.recipientMacDataService packetDefragmented:count 2790
scalar Throughput.ap.wlan[0].mac.dcf.recipientMacDataService packetDropDuplicateDetected:count 0
scalar Throughput.ap.wlan[0].mac.dcf.recipientMacDataService packetDropDuplicateDetected:sum(packetBytes) 0
scalar Throughput.ap.wlan[0].mac.dcf.recoveryProcedure retryLimitReached:count 0
scalar Throughput.ap.wlan[0].mac.dcf frameSequenceFinished:count 760
scalar Throughput.ap.wlan[0].mac.dcf packetReceivedFromPeer:count 3518
scalar Throughput.ap.wlan[0].mac.dcf packetReceivedFromPeer:sum(packetBytes) 2886682
scalar Throughput.ap.wlan[0].mac.dcf packetReceivedFromPeerUnicast:count 3518
scalar Throughput.ap.wlan[0].mac.dcf packetReceivedFromPeerUnicast:sum(packetBytes) 2886682
scalar Throughput.ap.wlan[0].mac.dcf packetReceivedFromPeerMulticast:count 0
scalar Throughput.ap.wlan[0].mac.dcf packetReceivedFromPeerMulticast:sum(packetBytes) 0
scalar Throughput.ap.wlan[0].mac.dcf packetReceivedFromPeerBroadcast:count 0
scalar Throughput.ap.wlan[0].mac.dcf packetReceivedFromPeerBroadcast:sum(packetBytes) 0
scalar Throughput.ap.wlan[0].mac.dcf packetReceivedFromPeerWithRetry:count 651
scalar Throughput.ap.wlan[0].mac.dcf packetReceivedFromPeerWithRetry:sum(packetBytes) 671181
scalar Throughput.ap.wlan[0].mac.dcf packetReceivedFromPeerWithoutRetry:count 2867
scalar Throughput.ap.wlan[0].mac.dcf packetReceivedFromPeerWithoutRetry:sum(packetBytes) 2215501
scalar Throughput.ap.wlan[0].mac.dcf packetSentToPeer:count 3550
scalar Throughput.ap.wlan[0].mac.dcf packetSentToPeer:sum(packetBytes) 822620
scalar Throughput.ap.wlan[0].mac.dcf packetSentToPeerUnicast:count 3550
scalar Throughput.ap.wlan[0].mac.dcf packetSentToPeerUnicast:sum(packetBytes) 822620
scalar Throughput.ap.wlan[0].mac.dcf packetSentToPeerMulticast:count 0
scalar Throughput.ap.wlan[0].mac.dcf packetSentToPeerMulticast:sum(packetBytes) 0
scalar Throughput.ap.wlan[0].mac.dcf packetSentToPeerBroadcast:count 0
scalar Throughput.ap.wlan[0].mac.dcf packetSentToPeerBroadcast:sum(packetBytes) 0
scalar Throughput.ap.wlan[0].mac.dcf packetSentToPeerWithRetry:count 227
scalar Throughput.ap.wlan[0].mac.dcf packetSentToPeerWithRetry:sum(packetBytes) 234037
scalar Throughput.ap.wlan[0].mac.dcf packetSentToPeerWithoutRetry:count 3323
scalar Throughput.ap.wlan[0].mac.dcf packetSentToPeerWithoutRetry:sum(packetBytes) 588583
scalar Throughput.ap.wlan[0].mac.dcf packetDrop:count 1961
scalar Throughput.ap.wlan[0].mac.dcf packetDrop:sum(packetBytes) 2021791
scalar Throughput.ap.wlan[0].mac.dcf packetDropNotAddressedToUs:count 0
scalar Throughput.ap.wlan[0].mac.dcf packetDropNotAddressedToUs:sum(packetBytes) 0
scalar Throughput.ap.wlan[0].mac.dcf packetDropQueueOverflow:count 1961
scalar Throughput.ap.wlan[0].mac.dcf packetDropQueueOverflow:sum(packetBytes) 2021791
scalar Throughput.ap.wlan[0].mac.dcf packetDropRetryLimitReached:count 0
scalar Throughput.ap.wlan[0].mac.dcf packetDropRetryLimitReached:sum(packetBytes) 0
scalar Throughput.ap.wlan[0].mac.dcf linkBroken:count 0
scalar Throughput.ap.wlan[0].mac packetReceivedFromLower:count 3886
scalar Throughput.ap.wlan[0].mac packetReceivedFromLower:sum(packetBytes) 3266090
scalar Throughput.ap.wlan[0].mac packetSentToLower:count 3550
scalar Throughput.ap.wlan[0].mac packetSentToLower:sum(packetBytes) 822620
scalar Throughput.ap.wlan[0].mac packetReceivedFromUpper:count 0
scalar Throughput.ap.wlan[0].mac packetReceivedFromUpper:sum(packetBytes) 0
scalar Throughput.ap.wlan[0].mac packetSentToUpper:count 0
scalar Throughput.ap.wlan[0].mac packetSentToUpper:sum(packetBytes) 0
scalar Throughput.ap.wlan[0].mac packetDrop:count 2329
scalar Throughput.ap.wlan[0].mac packetDrop:sum(packetBytes) 2401199
scalar Throughput.ap.wlan[0].mac packetDropIncorrectlyReceived:count 368
scalar Throughput.ap.wlan[0].mac packetDropIncorrectlyReceived:sum(packetBytes) 379408
scalar Throughput.ap.wlan[0].mac packetDropNotAddressedToUs:count 0
scalar Throughput.ap.wlan[0].mac packetDropNotAddressedToUs:sum(packetBytes) 0
scalar Throughput.ap.wlan[0].mac packetDropQueueOverflow:count 1961
scalar Throughput.ap.wlan[0].mac packetDropQueueOverflow:sum(packetBytes) 2021791
scalar Throughput.ap.wlan[0].mac packetDropRetryLimitReached:count 0
scalar Throughput.ap.wlan[0].mac packetDropRetryLimitReached:sum(packetBytes) 0
scalar Throughput.ap.wlan[0].mac packetDropDuplicateDetected:count 0
scalar Throughput.ap.wlan[0].mac packetDropDuplicateDetected:sum(packetBytes) 0
scalar Throughput.ap.wlan[0].mac packetDropOther:count 0
scalar Throughput.ap.wlan[0].mac packetDropOther:sum(packetBytes) 0
scalar Throughput.ap.wlan[0].mac linkBroken:count 0
scalar Throughput.ap.wlan[0].radio radioMode:count 7103
scalar Throughput.ap.wlan[0].radio receptionState:count 14985
scalar Throughput.ap.wlan[0].radio transmissionState:count 14200
scalar Throughput.ap.wlan[0] packetDropInterfaceDown:count 0
scalar Throughput.ap.wlan[0] packetDropInterfaceDown:sum(packetBytes) 0
scalar Throughput.ap.wlan[0] packetDropNoCarrier:count 0
scalar Throughput.ap.wlan[0] packetDropNoCarrier:sum(packetBytes) 0
scalar Throughput.cliHost[0].cli endToEndDelay:histogram:count 0
scalar Throughput.cliHost[0].cli endToEndDelay:histogram:sumweights 0
scalar Throughput.cliHost[0].cli endToEndDelay:histogram:mean -nan
scalar Throughput.cliHost[0].cli endToEndDelay:histogram:stddev nan
scalar Throughput.cliHost[0].cli endToEndDelay:histogram:min nan
scalar Throughput.cliHost[0].cli endToEndDelay:histogram:max nan
scalar Throughput.cliHost[0].cli endToEndDelay:histogram:numbins 1
scalar Throughput.cliHost[0].cli endToEndDelay:histogram:rangemin 0
scalar Throughput.cliHost[0].cli endToEndDelay:histogram:rangemax 1
scalar Throughput.cliHost[0].cli endToEndDelay:histogram:underflows 0
scalar Throughput.cliHost[0].cli endToEndDelay:histogram:overflows 0
scalar Throughput.cliHost[0].wlan.mac.dcf.channelAccess.pendingQueue queueingTime:histogram:count 465
scalar Throughput.cliHost[0].wlan.mac.dcf.channelAccess.pendingQueue queueingTime:histogram:sumweights 465
scalar Throughput.cliHost[0].wlan.mac.dcf.channelAccess.pendingQueue queueingTime:histogram:mean 0.95457449319515131
scalar Throughput.cliHost[0].wlan.mac.dcf.channelAccess.pendingQueue queueingTime:histogram:stddev 0.30991362068565048
scalar Throughput.cliHost[0].wlan.mac.dcf.channelAccess.pendingQueue queueingTime:histogram:min 0
scalar Throughput.cliHost[0].wlan.mac.dcf.channelAccess.pendingQueue queueingTime:histogram:max 1.4362767809099999
scalar Throughput.cliHost[0].wlan.mac.dcf.channelAccess.pendingQueue queueingTime:histogram:numbins 90
scalar Throughput.cliHost[0].wlan.mac.dcf.channelAccess.pendingQueue queueingTime:histogram:rangemin 0
scalar Throughput.cliHost[0].wlan.mac.dcf.channelAccess.pendingQueue queueingTime:histogram:rangemax 1.8
scalar Throughput.cliHost[0].wlan.mac.dcf.channelAccess.pendingQueue queueingTime:histogram:underflows 0
scalar Throughput.cliHost[0].wlan.mac.dcf.channelAccess.pendingQueue queueingTime:histogram:overflows 0
scalar Throughput.cliHost[0].wlan.mac.dcf.channelAccess.pendingQueue outgoingPacketLengths:histogram:count 465
scalar Throughput.cliHost[0].wlan.mac.dcf.channelAccess.pendingQueue outgoingPacketLengths:histogram:sumweights 465
scalar Throughput.cliHost[0].wlan.mac.dcf.channelAccess.pendingQueue outgoingPacketLengths:histogram:mean 8248
scalar Throughput.cliHost[0].wlan.mac.dcf.channelAccess.pendingQueue outgoingPacketLengths:histogram:stddev 0
scalar Throughput.cliHost[0].wlan.mac.dcf.channelAccess.pendingQueue outgoingPacketLengths:histogram:min 8248
scalar Throughput.cliHost[0].wlan.mac.dcf.channelAccess.pendingQueue outgoingPacketLengths:histogram:max 8248
scalar Throughput.cliHost[0].wlan.mac.dcf.channelAccess.pendingQueue outgoingPacketLengths:histogram:numbins 2
scalar Throughput.cliHost[0].wlan.mac.dcf.channelAccess.pendingQueue outgoingPacketLengths:histogram:rangemin 8247
scalar Throughput.cliHost[0].wlan.mac.dcf.channelAccess.pendingQueue outgoingPacketLengths:histogram:rangemax 8249
scalar Throughput.cliHost[0].wlan.mac.dcf.channelAccess.pendingQueue outgoingPacketLengths:histogram:underflows 0
scalar Throughput.cliHost[0].wlan.mac.dcf.channelAccess.pendingQueue outgoingPacketLengths:histogram:overflows 0
scalar Throughput.cliHost[0].wlan.mac.dcf.channelAccess.pendingQueue flowQueueingTime:histogram:count 0
scalar Throughput.cliHost[0].wlan.mac.dcf.channelAccess.pendingQueue flowQueueingTime:histogram:sumweights 0
scalar Throughput.cliHost[0].wlan.mac.dcf.channelAccess.pendingQueue flowQueueingTime:histogram:mean -nan
scalar Throughput.cliHost[0].wlan.mac.dcf.channelAccess.pendingQueue flowQueueingTime:histogram:stddev nan
scalar Throughput.cliHost[0].wlan.mac.dcf.channelAccess.pendingQueue flowQueueingTime:histogram:min nan
scalar Throughput.cliHost[0].wlan.mac.dcf.channelAccess.pendingQueue flowQueueingTime:histogram:max nan
scalar Throughput.cliHost[0].wlan.mac.dcf.channelAccess.pendingQueue flowQueueingTime:histogram:numbins 1
scalar Throughput.cliHost[0].wlan.mac.dcf.channelAccess.pendingQueue flowQueueingTime:histogram:rangemin 0
scalar Throughput.cliHost[0].wlan.mac.dcf.channelAccess.pendingQueue flowQueueingTime:histogram:rangemax 1
scalar Throughput.cliHost[0].wlan.mac.dcf.channelAccess.pendingQueue flowQueueingTime:histogram:underflows 0
scalar Throughput.cliHost[0].wlan.mac.dcf.channelAccess.pendingQueue flowQueueingTime:histogram:overflows 0
scalar Throughput.cliHost[0].wlan.mac.dcf.channelAccess.pendingQueue incomingPacketLengths:histogram:count 10000
scalar Throughput.cliHost[0].wlan.mac.dcf.channelAccess.pendingQueue incomingPacketLengths:histogram:sumweights 10000
scalar Throughput.cliHost[0].wlan.mac.dcf.channelAccess.pendingQueue incomingPacketLengths:histogram:mean 8248
scalar Throughput.cliHost[0].wlan.mac.dcf.channelAccess.pendingQueue incomingPacketLengths:histogram:stddev 0
scalar Throughput.cliHost[0].wlan.mac.dcf.channelAccess.pendingQueue incomingPacketLengths:histogram:min 8248
scalar Throughput.cliHost[0].wlan.mac.dcf.channelAccess.pendingQueue incomingPacketLengths:histogram:max 8248
scalar Throughput.cliHost[0].wlan.mac.dcf.channelAccess.pendingQueue incomingPacketLengths:histogram:numbins 2
scalar Throughput.cliHost[0].wlan.mac.dcf.channelAccess.pendingQueue incomingPacketLengths:histogram:rangemin 8247
scalar Throughput.cliHost[0].wlan.mac.dcf.channelAccess.pendingQueue incomingPacketLengths:histogram:rangemax 8249
scalar Throughput.cliHost[0].wlan.mac.dcf.channelAccess.pendingQueue incomingPacketLengths:histogram:underflows 0
scalar Throughput.cliHost[0].wlan.mac.dcf.channelAccess.pendingQueue incomingPacketLengths:histogram:overflows 0
scalar Throughput.cliHost[0].wlan.mac.dcf.channelAccess.inProgressFrames queueingTime:histogram:count 463
scalar Throughput.cliHost[0].wlan.mac.dcf.channelAccess.inProgressFrames queueingTime:histogram:sumweights 463
scalar Throughput.cliHost[0].wlan.mac.dcf.channelAccess.inProgressFrames queueingTime:histogram:mean 0.016279492766894176
scalar Throughput.cliHost[0].wlan.mac.dcf.channelAccess.inProgressFrames queueingTime:histogram:stddev 0.030762046711917967
scalar Throughput.cliHost[0].wlan.mac.dcf.channelAccess.inProgressFrames queueingTime:histogram:min 0.0023613342559999999
scalar Throughput.cliHost[0].wlan.mac.dcf.channelAccess.inProgressFrames queueingTime:histogram:max 0.43842205019399999
scalar Throughput.cliHost[0].wlan.mac.dcf.channelAccess.inProgressFrames queueingTime:histogram:numbins 55
scalar Throughput.cliHost[0].wlan.mac.dcf.channelAccess.inProgressFrames queueingTime:histogram:rangemin 0
scalar Throughput.cliHost[0].wlan.mac.dcf.channelAccess.inProgressFrames queueingTime:histogram:rangemax 0.43999999999999995
scalar Throughput.cliHost[0].wlan.mac.dcf.channelAccess.inProgressFrames queueingTime:histogram:underflows 0
scalar Throughput.cliHost[0].wlan.mac.dcf.channelAccess.inProgressFrames queueingTime:histogram:overflows 0
scalar Throughput.cliHost[0].wlan.mac.dcf frameSequenceDuration:histogram:count 596
scalar Throughput.cliHost[0].wlan.mac.dcf frameSequenceDuration:histogram:sumweights 596
scalar Throughput.cliHost[0].wlan.mac.dcf frameSequenceDuration:histogram:mean 0.0011575406260671182
scalar Throughput.cliHost[0].wlan.mac.dcf frameSequenceDuration:histogram:stddev 3.4816610172718739e-06
scalar Throughput.cliHost[0].wlan.mac.dcf frameSequenceDuration:histogram:min 0.0011556671279999999
scalar Throughput.cliHost[0].wlan.mac.dcf frameSequenceDuration:histogram:max 0.0011639999999999999
scalar Throughput.cliHost[0].wlan.mac.dcf frameSequenceDuration:histogram:numbins 64
scalar Throughput.cliHost[0].wlan.mac.dcf frameSequenceDuration:histogram:rangemin 0.0011534000000000002
scalar Throughput.cliHost[0].wlan.mac.dcf frameSequenceDuration:histogram:rangemax 0.0011662000000000003
scalar Throughput.cliHost[0].wlan.mac.dcf frameSequenceDuration:histogram:underflows 0
scalar Throughput.cliHost[0].wlan.mac.dcf frameSequenceDuration:histogram:overflows 0
scalar Throughput.cliHost[0].wlan.mac.dcf frameSequenceNumPackets:histogram:count 596
scalar Throughput.cliHost[0].wlan.mac.dcf frameSequenceNumPackets:histogram:sumweights 596
scalar Throughput.cliHost[0].wlan.mac.dcf frameSequenceNumPackets:histogram:mean 2
scalar Throughput.cliHost[0].wlan.mac.dcf frameSequenceNumPackets:histogram:stddev 0
scalar Throughput.cliHost[0].wlan.mac.dcf frameSequenceNumPackets:histogram:min 2
scalar Throughput.cliHost[0].wlan.mac.dcf frameSequenceNumPackets:histogram:max 2
scalar Throughput.cliHost[0].wlan.mac.dcf frameSequenceNumPackets:histogram:numbins 2
scalar Throughput.cliHost[0].wlan.mac.dcf frameSequenceNumPackets:histogram:rangemin 1
scalar Throughput.cliHost[0].wlan.mac.dcf frameSequenceNumPackets:histogram:rangemax 3
scalar Throughput.cliHost[0].wlan.mac.dcf frameSequenceNumPackets:histogram:underflows 0
scalar Throughput.cliHost[0].wlan.mac.dcf frameSequenceNumPackets:histogram:overflows 0
scalar Throughput.cliHost[0].wlan.radio radioChannel:histogram:count 1
scalar Throughput.cliHost[0].wlan.radio radioChannel:histogram:sumweights 1
scalar Throughput.cliHost[0].wlan.radio radioChannel:histogram:mean 0
scalar Throughput.cliHost[0].wlan.radio radioChannel:histogram:stddev nan
scalar Throughput.cliHost[0].wlan.radio radioChannel:histogram:min 0
scalar Throughput.cliHost[0].wlan.radio radioChannel:histogram:max 0
scalar Throughput.cliHost[0].wlan.radio radioChannel:histogram:numbins 50
scalar Throughput.cliHost[0].wlan.radio radioChannel:histogram:rangemin -0.5
scalar Throughput.cliHost[0].wlan.radio radioChannel:histogram:rangemax 0.5
scalar Throughput.cliHost[0].wlan.radio radioChannel:histogram:underflows 0
scalar Throughput.cliHost[0].wlan.radio radioChannel:histogram:overflows 0
scalar Throughput.cliHost[0].wlan.radio minSnir:histogram:count 6839
scalar Throughput.cliHost[0].wlan.radio minSnir:histogram:sumweights 6839
scalar Throughput.cliHost[0].wlan.radio minSnir:histogram:mean 14745.06761143461
scalar Throughput.cliHost[0].wlan.radio minSnir:histogram:stddev 6662.3868042298109
scalar Throughput.cliHost[0].wlan.radio minSnir:histogram:min 0.33331629765297921
scalar Throughput.cliHost[0].wlan.radio minSnir:histogram:max 19565.775521038599
scalar Throughput.cliHost[0].wlan.radio minSnir:histogram:numbins 49
scalar Throughput.cliHost[0].wlan.radio minSnir:histogram:rangemin 0
scalar Throughput.cliHost[0].wlan.radio minSnir:histogram:rangemax 24500
scalar Throughput.cliHost[0].wlan.radio minSnir:histogram:underflows 0
scalar Throughput.cliHost[0].wlan.radio minSnir:histogram:overflows 0
scalar Throughput.cliHost[0].wlan.radio packetErrorRate:histogram:count 6839
scalar Throughput.cliHost[0].wlan.radio packetErrorRate:histogram:sumweights 6839
scalar Throughput.cliHost[0].wlan.radio packetErrorRate:histogram:mean 0.038748355022664133
scalar Throughput.cliHost[0].wlan.radio packetErrorRate:histogram:stddev 0.19300872274212696
scalar Throughput.cliHost[0].wlan.radio packetErrorRate:histogram:min 0
scalar Throughput.cliHost[0].wlan.radio packetErrorRate:histogram:max 1
scalar Throughput.cliHost[0].wlan.radio packetErrorRate:histogram:numbins 2
scalar Throughput.cliHost[0].wlan.radio packetErrorRate:histogram:rangemin 0
scalar Throughput.cliHost[0].wlan.radio packetErrorRate:histogram:rangemax 2
scalar Throughput.cliHost[0].wlan.radio packetErrorRate:histogram:underflows 0
scalar Throughput.cliHost[0].wlan.radio packetErrorRate:histogram:overflows 0
scalar Throughput.cliHost[0].wlan.radio bitErrorRate:histogram:count 0
scalar Throughput.cliHost[0].wlan.radio bitErrorRate:histogram:sumweights 0
scalar Throughput.cliHost[0].wlan.radio bitErrorRate:histogram:mean -nan
scalar Throughput.cliHost[0].wlan.radio bitErrorRate:histogram:stddev nan
scalar Throughput.cliHost[0].wlan.radio bitErrorRate:histogram:min nan
scalar Throughput.cliHost[0].wlan.radio bitErrorRate:histogram:max nan
scalar Throughput.cliHost[0].wlan.radio bitErrorRate:histogram:numbins 1
scalar Throughput.cliHost[0].wlan.radio bitErrorRate:histogram:rangemin 0
scalar Throughput.cliHost[0].wlan.radio bitErrorRate:histogram:rangemax 1
scalar Throughput.cliHost[0].wlan.radio bitErrorRate:histogram:underflows 0
scalar Throughput.cliHost[0].wlan.radio bitErrorRate:histogram:overflows 0
scalar Throughput.cliHost[0].wlan.radio symbolErrorRate:histogram:count 0
scalar Throughput.cliHost[0].wlan.radio symbolErrorRate:histogram:sumweights 0
scalar Throughput.cliHost[0].wlan.radio symbolErrorRate:histogram:mean -nan
scalar Throughput.cliHost[0].wlan.radio symbolErrorRate:histogram:stddev nan
scalar Throughput.cliHost[0].wlan.radio symbolErrorRate:histogram:min nan
scalar Throughput.cliHost[0].wlan.radio symbolErrorRate:histogram:max nan
scalar Throughput.cliHost[0].wlan.radio symbolErrorRate:histogram:numbins 1
scalar Throughput.cliHost[0].wlan.radio symbolErrorRate:histogram:rangemin 0
scalar Throughput.cliHost[0].wlan.radio symbolErrorRate:histogram:rangemax 1
scalar Throughput.cliHost[0].wlan.radio symbolErrorRate:histogram:underflows 0
scalar Throughput.cliHost[0].wlan.radio symbolErrorRate:histogram:overflows 0
scalar Throughput.cliHost[1].cli endToEndDelay:histogram:count 0
scalar Throughput.cliHost[1].cli endToEndDelay:histogram:sumweights 0
scalar Throughput.cliHost[1].cli endToEndDelay:histogram:mean -nan
scalar Throughput.cliHost[1].cli endToEndDelay:histogram:stddev nan
scalar Throughput.cliHost[1].cli endToEndDelay:histogram:min nan
scalar Throughput.cliHost[1].cli endToEndDelay:histogram:max nan
scalar Throughput.cliHost[1].cli endToEndDelay:histogram:numbins 1
scalar Throughput.cliHost[1].cli endToEndDelay:histogram:rangemin 0
scalar Throughput.cliHost[1].cli endToEndDelay:histogram:rangemax 1
scalar Throughput.cliHost[1].cli endToEndDelay:histogram:underflows 0
scalar Throughput.cliHost[1].cli endToEndDelay:histogram:overflows 0
scalar Throughput.cliHost[1].wlan.mac.dcf.channelAccess.pendingQueue queueingTime:histogram:count 415
scalar Throughput.cliHost[1].wlan.mac.dcf.channelAccess.pendingQueue queueingTime:histogram:sumweights 415
scalar Throughput.cliHost[1].wlan.mac.dcf.channelAccess.pendingQueue queueingTime:histogram:mean 1.0815468666857087
scalar Throughput.cliHost[1].wlan.mac.dcf.channelAccess.pendingQueue queueingTime:histogram:stddev 0.38123854568631532
scalar Throughput.cliHost[1].wlan.mac.dcf.channelAccess.pendingQueue queueingTime:histogram:min 0
scalar Throughput.cliHost[1].wlan.mac.dcf.channelAccess.pendingQueue queueingTime:histogram:max 1.6530158663949999
scalar Throughput.cliHost[1].wlan.mac.dcf.channelAccess.pendingQueue queueingTime:histogram:numbins 104
scalar Throughput.cliHost[1].wlan.mac.dcf.channelAccess.pendingQueue queueingTime:histogram:rangemin 0
scalar Throughput.cliHost[1].wlan.mac.dcf.channelAccess.pendingQueue queueingTime:histogram:rangemax 2.0800000000000001
scalar Throughput.cliHost[1].wlan.mac.dcf.channelAccess.pendingQueue queueingTime:histogram:underflows 0
scalar Throughput.cliHost[1].wlan.mac.dcf.channelAccess.pendingQueue queueingTime:histogram:overflows 0
scalar Throughput.cliHost[1].wlan.mac.dcf.channelAccess.pendingQueue outgoingPacketLengths:histogram:count 415
scalar Throughput.cliHost[1].wlan.mac.dcf.channelAccess.pendingQueue outgoingPacketLengths:histogram:sumweights 415
scalar Throughput.cliHost[1].wlan.mac.dcf.channelAccess.pendingQueue outgoingPacketLengths:histogram:mean 8248
scalar Throughput.cliHost[1].wlan.mac.dcf.channelAccess.pendingQueue outgoingPacketLengths:histogram:stddev 0
scalar Throughput.cliHost[1].wlan.mac.dcf.channelAccess.pendingQueue outgoingPacketLengths:histogram:min 8248
scalar Throughput.cliHost[1].wlan.mac.dcf.channelAccess.pendingQueue outgoingPacketLengths:histogram:max 8248
scalar Throughput.cliHost[1].wlan.mac.dcf.channelAccess.pendingQueue outgoingPacketLengths:histogram:numbins 2
scalar Throughput.cliHost[1].wlan.mac.dcf.channelAccess.pendingQueue outgoingPacketLengths:histogram:rangemin 8247
scalar Throughput.cliHost[1].wlan.mac.dcf.channelAccess.pendingQueue outgoingPacketLengths:histogram:rangemax 8249
scalar Throughput.cliHost[1].wlan.mac.dcf.channelAccess.pendingQueue outgoingPacketLengths:histogram:underflows 0
scalar Throughput.cliHost[1].wlan.mac.dcf.channelAccess.pendingQueue outgoingPacketLengths:histogram:overflows 0
scalar Throughput.cliHost[1].wlan.mac.dcf.channelAccess.pendingQueue flowQueueingTime:histogram:count 0
scalar Throughput.cliHost[1].wlan.mac.dcf.channelAccess.pendingQueue flowQueueingTime:histogram:sumweights 0
scalar Throughput.cliHost[1].wlan.mac.dcf.channelAccess.pendingQueue flowQueueingTime:histogram:mean -nan
scalar Throughput.cliHost[1].wlan.mac.dcf.channelAccess.pendingQueue flowQueueingTime:histogram:stddev nan
scalar Throughput.cliHost[1].wlan.mac.dcf.channelAccess.pendingQueue flowQueueingTime:histogram:min nan
scalar Throughput.cliHost[1].wlan.mac.dcf.channelAccess.pendingQueue flowQueueingTime:histogram:max nan
scalar Throughput.cliHost[1].wlan.mac.dcf.channelAccess.pendingQueue flowQueueingTime:histogram:numbins 1
scalar Throughput.cliHost[1].wlan.mac.dcf.channelAccess.pendingQueue flowQueueingTime:histogram:rangemin 0
[...]
scalar Throughput.ap.wlan[0].mac.dcf packetReceivedFromPeerWithRetry:vector(packetBytes):count 651
scalar Throughput.ap.wlan[0].mac.dcf packetReceivedFromPeerWithRetry:vector(packetBytes):sum 671181
scalar Throughput.ap.wlan[0].mac.dcf packetReceivedFromPeerWithRetry:vector(packetBytes):sumweights 651
scalar Throughput.ap.wlan[0].mac.dcf packetReceivedFromPeerWithRetry:vector(packetBytes):mean 1031
scalar Throughput.ap.wlan[0].mac.dcf packetReceivedFromPeerWithRetry:vector(packetBytes):stddev 0
scalar Throughput.ap.wlan[0].mac.dcf packetReceivedFromPeerWithRetry:vector(packetBytes):min 1031
scalar Throughput.ap.wlan[0].mac.dcf packetReceivedFromPeerWithRetry:vector(packetBytes):max 1031
scalar Throughput.ap.wlan[0].mac.dcf packetReceivedFromPeerWithRetry:vector(packetBytes):starttime 0.0027673335640000006
scalar Throughput.ap.wlan[0].mac.dcf packetReceivedFromPeerWithRetry:vector(packetBytes):endtime 4.9834542123110008
scalar Throughput.ap.wlan[0].mac.dcf packetReceivedFromPeerWithoutRetry:vector(packetBytes):count 2867
scalar Throughput.ap.wlan[0].mac.dcf packetReceivedFromPeerWithoutRetry:vector(packetBytes):sum 2215501
scalar Throughput.ap.wlan[0].mac.dcf packetReceivedFromPeerWithoutRetry:vector(packetBytes):sumweights 2867
scalar Throughput.ap.wlan[0].mac.dcf packetReceivedFromPeerWithoutRetry:vector(packetBytes):mean 772.75933031042905
scalar Throughput.ap.wlan[0].mac.dcf packetReceivedFromPeerWithoutRetry:vector(packetBytes):stddev 442.73116620937958
scalar Throughput.ap.wlan[0].mac.dcf packetReceivedFromPeerWithoutRetry:vector(packetBytes):min 14
scalar Throughput.ap.wlan[0].mac.dcf packetReceivedFromPeerWithoutRetry:vector(packetBytes):max 1031
scalar Throughput.ap.wlan[0].mac.dcf packetReceivedFromPeerWithoutRetry:vector(packetBytes):starttime 0.0039930006920000007
scalar Throughput.ap.wlan[0].mac.dcf packetReceivedFromPeerWithoutRetry:vector(packetBytes):endtime 4.9984849268360012
scalar Throughput.ap.wlan[0].mac.dcf packetDrop:vector(packetBytes):count 1961
scalar Throughput.ap.wlan[0].mac.dcf packetDrop:vector(packetBytes):sum 2021791
scalar Throughput.ap.wlan[0].mac.dcf packetDrop:vector(packetBytes):sumweights 1961
scalar Throughput.ap.wlan[0].mac.dcf packetDrop:vector(packetBytes):mean 1031
scalar Throughput.ap.wlan[0].mac.dcf packetDrop:vector(packetBytes):stddev 0
scalar Throughput.ap.wlan[0].mac.dcf packetDrop:vector(packetBytes):min 1031
scalar Throughput.ap.wlan[0].mac.dcf packetDrop:vector(packetBytes):max 1031
scalar Throughput.ap.wlan[0].mac.dcf packetDrop:vector(packetBytes):starttime 0.22360961200200005
scalar Throughput.ap.wlan[0].mac.dcf packetDrop:vector(packetBytes):endtime 4.995993169639001
scalar Throughput.ap.wlan[0].mac.dcf packetDropNotAddressedToUs:vector(packetBytes):count 0
scalar Throughput.ap.wlan[0].mac.dcf packetDropNotAddressedToUs:vector(packetBytes):sum 0
scalar Throughput.ap.wlan[0].mac.dcf packetDropNotAddressedToUs:vector(packetBytes):sumweights 0
scalar Throughput.ap.wlan[0].mac.dcf packetDropNotAddressedToUs:vector(packetBytes):mean -nan
scalar Throughput.ap.wlan[0].mac.dcf packetDropNotAddressedToUs:vector(packetBytes):stddev nan
scalar Throughput.ap.wlan[0].mac.dcf packetDropNotAddressedToUs:vector(packetBytes):min inf
scalar Throughput.ap.wlan[0].mac.dcf packetDropNotAddressedToUs:vector(packetBytes):max -inf
scalar Throughput.ap.wlan[0].mac.dcf packetDropNotAddressedToUs:vector(packetBytes):starttime nan
scalar Throughput.ap.wlan[0].mac.dcf packetDropNotAddressedToUs:vector(packetBytes):endtime nan
scalar Throughput.ap.wlan[0].mac.dcf packetDropQueueOverflow:vector(packetBytes):count 1961
scalar Throughput.ap.wlan[0].mac.dcf packetDropQueueOverflow:vector(packetBytes):sum 2021791
scalar Throughput.ap.wlan[0].mac.dcf packetDropQueueOverflow:vector(packetBytes):sumweights 1961
scalar Throughput.ap.wlan[0].mac.dcf packetDropQueueOverflow:vector(packetBytes):mean 1031
scalar Throughput.ap.wlan[0].mac.dcf packetDropQueueOverflow:vector(packetBytes):stddev 0
scalar Throughput.ap.wlan[0].mac.dcf packetDropQueueOverflow:vector(packetBytes):min 1031
scalar Throughput.ap.wlan[0].mac.dcf packetDropQueueOverflow:vector(packetBytes):max 1031
scalar Throughput.ap.wlan[0].mac.dcf packetDropQueueOverflow:vector(packetBytes):starttime 0.22360961200200005
scalar Throughput.ap.wlan[0].mac.dcf packetDropQueueOverflow:vector(packetBytes):endtime 4.995993169639001
scalar Throughput.ap.wlan[0].mac.dcf packetDropRetryLimitReached:vector(packetBytes):count 0
scalar Throughput.ap.wlan[0].mac.dcf packetDropRetryLimitReached:vector(packetBytes):sum 0
scalar Throughput.ap.wlan[0].mac.dcf packetDropRetryLimitReached:vector(packetBytes):sumweights 0
scalar Throughput.ap.wlan[0].mac.dcf packetDropRetryLimitReached:vector(packetBytes):mean -nan
scalar Throughput.ap.wlan[0].mac.dcf packetDropRetryLimitReached:vector(packetBytes):stddev nan
scalar Throughput.ap.wlan[0].mac.dcf packetDropRetryLimitReached:vector(packetBytes):min inf
scalar Throughput.ap.wlan[0].mac.dcf packetDropRetryLimitReached:vector(packetBytes):max -inf
scalar Throughput.ap.wlan[0].mac.dcf packetDropRetryLimitReached:vector(packetBytes):starttime nan
scalar Throughput.ap.wlan[0].mac.dcf packetDropRetryLimitReached:vector(packetBytes):endtime nan
scalar Throughput.ap.wlan[0].mac.dcf frameSequenceActive:vector:count 1522
scalar Throughput.ap.wlan[0].mac.dcf frameSequenceActive:vector:sum 760
scalar Throughput.ap.wlan[0].mac.dcf frameSequenceActive:vector:sumweights 1522
scalar Throughput.ap.wlan[0].mac.dcf frameSequenceActive:vector:mean 0.49934296977660975
scalar Throughput.ap.wlan[0].mac.dcf frameSequenceActive:vector:stddev 0.5001639067110375
scalar Throughput.ap.wlan[0].mac.dcf frameSequenceActive:vector:min 0
scalar Throughput.ap.wlan[0].mac.dcf frameSequenceActive:vector:max 1
scalar Throughput.ap.wlan[0].mac.dcf frameSequenceActive:vector:starttime 0
scalar Throughput.ap.wlan[0].mac.dcf frameSequenceActive:vector:endtime 4.9974325848310013
scalar Throughput.ap.wlan[0].mac.dcf datarateSelected:vector:count 3550
scalar Throughput.ap.wlan[0].mac.dcf datarateSelected:vector:sum 39050000000
scalar Throughput.ap.wlan[0].mac.dcf datarateSelected:vector:sumweights 3550
scalar Throughput.ap.wlan[0].mac.dcf datarateSelected:vector:mean 11000000
scalar Throughput.ap.wlan[0].mac.dcf datarateSelected:vector:stddev 0
scalar Throughput.ap.wlan[0].mac.dcf datarateSelected:vector:min 11000000
scalar Throughput.ap.wlan[0].mac.dcf datarateSelected:vector:max 11000000
scalar Throughput.ap.wlan[0].mac.dcf datarateSelected:vector:starttime 0.0027673335640000006
scalar Throughput.ap.wlan[0].mac.dcf datarateSelected:vector:endtime 4.9984849268360012
scalar Throughput.ap.wlan[0].mac.rx nav:vector:count 2280
scalar Throughput.ap.wlan[0].mac.rx nav:vector:sum 0.16187999999999958
scalar Throughput.ap.wlan[0].mac.rx nav:vector:sumweights 2280
scalar Throughput.ap.wlan[0].mac.rx nav:vector:mean 7.0999999999999815e-05
scalar Throughput.ap.wlan[0].mac.rx nav:vector:stddev 0.00010043118972768592
scalar Throughput.ap.wlan[0].mac.rx nav:vector:min 0
scalar Throughput.ap.wlan[0].mac.rx nav:vector:max 0.000213
scalar Throughput.ap.wlan[0].mac.rx nav:vector:starttime 0.011827336332000003
scalar Throughput.ap.wlan[0].mac.rx nav:vector:endtime 4.9974311696390012
scalar Throughput.ap.wlan[0].mac packetSentToUpper:vector(packetBytes):count 0
scalar Throughput.ap.wlan[0].mac packetSentToUpper:vector(packetBytes):sum 0
scalar Throughput.ap.wlan[0].mac packetSentToUpper:vector(packetBytes):sumweights 0
scalar Throughput.ap.wlan[0].mac packetSentToUpper:vector(packetBytes):mean -nan
scalar Throughput.ap.wlan[0].mac packetSentToUpper:vector(packetBytes):stddev nan
scalar Throughput.ap.wlan[0].mac packetSentToUpper:vector(packetBytes):min inf
scalar Throughput.ap.wlan[0].mac packetSentToUpper:vector(packetBytes):max -inf
scalar Throughput.ap.wlan[0].mac packetSentToUpper:vector(packetBytes):starttime nan
scalar Throughput.ap.wlan[0].mac packetSentToUpper:vector(packetBytes):endtime nan
scalar Throughput.ap.wlan[0].mac packetSentToLower:vector(packetBytes):count 3550
scalar Throughput.ap.wlan[0].mac packetSentToLower:vector(packetBytes):sum 822620
scalar Throughput.ap.wlan[0].mac packetSentToLower:vector(packetBytes):sumweights 3550
scalar Throughput.ap.wlan[0].mac packetSentToLower:vector(packetBytes):mean 231.72394366197184
scalar Throughput.ap.wlan[0].mac packetSentToLower:vector(packetBytes):stddev 417.21765186004427
scalar Throughput.ap.wlan[0].mac packetSentToLower:vector(packetBytes):min 14
scalar Throughput.ap.wlan[0].mac packetSentToLower:vector(packetBytes):max 1031
scalar Throughput.ap.wlan[0].mac packetSentToLower:vector(packetBytes):starttime 0.0027773335640000007
scalar Throughput.ap.wlan[0].mac packetSentToLower:vector(packetBytes):endtime 4.9984949268360008
scalar Throughput.ap.wlan[0].mac packetReceivedFromUpper:vector(packetBytes):count 0
scalar Throughput.ap.wlan[0].mac packetReceivedFromUpper:vector(packetBytes):sum 0
scalar Throughput.ap.wlan[0].mac packetReceivedFromUpper:vector(packetBytes):sumweights 0
scalar Throughput.ap.wlan[0].mac packetReceivedFromUpper:vector(packetBytes):mean -nan
scalar Throughput.ap.wlan[0].mac packetReceivedFromUpper:vector(packetBytes):stddev nan
scalar Throughput.ap.wlan[0].mac packetReceivedFromUpper:vector(packetBytes):min inf
scalar Throughput.ap.wlan[0].mac packetReceivedFromUpper:vector(packetBytes):max -inf
scalar Throughput.ap.wlan[0].mac packetReceivedFromUpper:vector(packetBytes):starttime nan
scalar Throughput.ap.wlan[0].mac packetReceivedFromUpper:vector(packetBytes):endtime nan
scalar Throughput.ap.wlan[0].mac packetReceivedFromLower:vector(packetBytes):count 3886
scalar Throughput.ap.wlan[0].mac packetReceivedFromLower:vector(packetBytes):sum 3266090
scalar Throughput.ap.wlan[0].mac packetReceivedFromLower:vector(packetBytes):sumweights 3886
scalar Throughput.ap.wlan[0].mac packetReceivedFromLower:vector(packetBytes):mean 840.47606793618115
scalar Throughput.ap.wlan[0].mac packetReceivedFromLower:vector(packetBytes):stddev 396.86773786440597
scalar Throughput.ap.wlan[0].mac packetReceivedFromLower:vector(packetBytes):min 14
scalar Throughput.ap.wlan[0].mac packetReceivedFromLower:vector(packetBytes):max 1031
scalar Throughput.ap.wlan[0].mac packetReceivedFromLower:vector(packetBytes):starttime 0.0014423335640000002
scalar Throughput.ap.wlan[0].mac packetReceivedFromLower:vector(packetBytes):endtime 4.999850593964001
scalar Throughput.ap.wlan[0].mac packetDrop:vector(packetBytes):count 2329
scalar Throughput.ap.wlan[0].mac packetDrop:vector(packetBytes):sum 2401199
scalar Throughput.ap.wlan[0].mac packetDrop:vector(packetBytes):sumweights 2329
scalar Throughput.ap.wlan[0].mac packetDrop:vector(packetBytes):mean 1031
scalar Throughput.ap.wlan[0].mac packetDrop:vector(packetBytes):stddev 0
scalar Throughput.ap.wlan[0].mac packetDrop:vector(packetBytes):min 1031
scalar Throughput.ap.wlan[0].mac packetDrop:vector(packetBytes):max 1031
scalar Throughput.ap.wlan[0].mac packetDrop:vector(packetBytes):starttime 0.0014423335640000002
scalar Throughput.ap.wlan[0].mac packetDrop:vector(packetBytes):endtime 4.999850593964001
scalar Throughput.ap.wlan[0].mac packetDropIncorrectlyReceived:vector(packetBytes):count 368
scalar Throughput.ap.wlan[0].mac packetDropIncorrectlyReceived:vector(packetBytes):sum 379408
scalar Throughput.ap.wlan[0].mac packetDropIncorrectlyReceived:vector(packetBytes):sumweights 368
scalar Throughput.ap.wlan[0].mac packetDropIncorrectlyReceived:vector(packetBytes):mean 1031
scalar Throughput.ap.wlan[0].mac packetDropIncorrectlyReceived:vector(packetBytes):stddev 0
scalar Throughput.ap.wlan[0].mac packetDropIncorrectlyReceived:vector(packetBytes):min 1031
scalar Throughput.ap.wlan[0].mac packetDropIncorrectlyReceived:vector(packetBytes):max 1031
scalar Throughput.ap.wlan[0].mac packetDropIncorrectlyReceived:vector(packetBytes):starttime 0.0014423335640000002
scalar Throughput.ap.wlan[0].mac packetDropIncorrectlyReceived:vector(packetBytes):endtime 4.999850593964001
scalar Throughput.ap.wlan[0].mac packetDropNotAddressedToUs:vector(packetBytes):count 0
scalar Throughput.ap.wlan[0].mac packetDropNotAddressedToUs:vector(packetBytes):sum 0
scalar Throughput.ap.wlan[0].mac packetDropNotAddressedToUs:vector(packetBytes):sumweights 0
scalar Throughput.ap.wlan[0].mac packetDropNotAddressedToUs:vector(packetBytes):mean -nan
scalar Throughput.ap.wlan[0].mac packetDropNotAddressedToUs:vector(packetBytes):stddev nan
scalar Throughput.ap.wlan[0].mac packetDropNotAddressedToUs:vector(packetBytes):min inf
scalar Throughput.ap.wlan[0].mac packetDropNotAddressedToUs:vector(packetBytes):max -inf
scalar Throughput.ap.wlan[0].mac packetDropNotAddressedToUs:vector(packetBytes):starttime nan
scalar Throughput.ap.wlan[0].mac packetDropNotAddressedToUs:vector(packetBytes):endtime nan
scalar Throughput.ap.wlan[0].mac packetDropQueueOverflow:vector(packetBytes):count 1961
scalar Throughput.ap.wlan[0].mac packetDropQueueOverflow:vector(packetBytes):sum 2021791
scalar Throughput.ap.wlan[0].mac packetDropQueueOverflow:vector(packetBytes):sumweights 1961
scalar Throughput.ap.wlan[0].mac packetDropQueueOverflow:vector(packetBytes):mean 1031
scalar Throughput.ap.wlan[0].mac packetDropQueueOverflow:vector(packetBytes):stddev 0
scalar Throughput.ap.wlan[0].mac packetDropQueueOverflow:vector(packetBytes):min 1031
scalar Throughput.ap.wlan[0].mac packetDropQueueOverflow:vector(packetBytes):max 1031
scalar Throughput.ap.wlan[0].mac packetDropQueueOverflow:vector(packetBytes):starttime 0.22360961200200005
scalar Throughput.ap.wlan[0].mac packetDropQueueOverflow:vector(packetBytes):endtime 4.995993169639001
scalar Throughput.ap.wlan[0].mac packetDropRetryLimitReached:vector(packetBytes):count 0
scalar Throughput.ap.wlan[0].mac packetDropRetryLimitReached:vector(packetBytes):sum 0
scalar Throughput.ap.wlan[0].mac packetDropRetryLimitReached:vector(packetBytes):sumweights 0
scalar Throughput.ap.wlan[0].mac packetDropRetryLimitReached:vector(packetBytes):mean -nan
scalar Throughput.ap.wlan[0].mac packetDropRetryLimitReached:vector(packetBytes):stddev nan
scalar Throughput.ap.wlan[0].mac packetDropRetryLimitReached:vector(packetBytes):min inf
scalar Throughput.ap.wlan[0].mac packetDropRetryLimitReached:vector(packetBytes):max -inf
scalar Throughput.ap.wlan[0].mac packetDropRetryLimitReached:vector(packetBytes):starttime nan
scalar Throughput.ap.wlan[0].mac packetDropRetryLimitReached:vector(packetBytes):endtime nan
scalar Throughput.ap.wlan[0].mac packetDropDuplicateDetected:vector(packetBytes):count 0
scalar Throughput.ap.wlan[0].mac packetDropDuplicateDetected:vector(packetBytes):sum 0
scalar Throughput.ap.wlan[0].mac packetDropDuplicateDetected:vector(packetBytes):sumweights 0
scalar Throughput.ap.wlan[0].mac packetDropDuplicateDetected:vector(packetBytes):mean -nan
scalar Throughput.ap.wlan[0].mac packetDropDuplicateDetected:vector(packetBytes):stddev nan
scalar Throughput.ap.wlan[0].mac packetDropDuplicateDetected:vector(packetBytes):min inf
scalar Throughput.ap.wlan[0].mac packetDropDuplicateDetected:vector(packetBytes):max -inf
scalar Throughput.ap.wlan[0].mac packetDropDuplicateDetected:vector(packetBytes):starttime nan
scalar Throughput.ap.wlan[0].mac packetDropDuplicateDetected:vector(packetBytes):endtime nan
scalar Throughput.ap.wlan[0].mac packetDropOther:vector(packetBytes):count 0
scalar Throughput.ap.wlan[0].mac packetDropOther:vector(packetBytes):sum 0
scalar Throughput.ap.wlan[0].mac packetDropOther:vector(packetBytes):sumweights 0
scalar Throughput.ap.wlan[0].mac packetDropOther:vector(packetBytes):mean -nan
scalar Throughput.ap.wlan[0].mac packetDropOther:vector(packetBytes):stddev nan
scalar Throughput.ap.wlan[0].mac packetDropOther:vector(packetBytes):min inf
scalar Throughput.ap.wlan[0].mac packetDropOther:vector(packetBytes):max -inf
scalar Throughput.ap.wlan[0].mac packetDropOther:vector(packetBytes):starttime nan
scalar Throughput.ap.wlan[0].mac packetDropOther:vector(packetBytes):endtime nan
scalar Throughput.ap.wlan[0].radio radioMode:vector:count 7103
scalar Throughput.ap.wlan[0].radio radioMode:vector:sum 17752
scalar Throughput.ap.wlan[0].radio radioMode:vector:sumweights 7103
scalar Throughput.ap.wlan[0].radio radioMode:vector:mean 2.4992256792904408
scalar Throughput.ap.wlan[0].radio radioMode:vector:stddev 0.5017213036914806
scalar Throughput.ap.wlan[0].radio radioMode:vector:min 0
scalar Throughput.ap.wlan[0].radio radioMode:vector:max 3
scalar Throughput.ap.wlan[0].radio radioMode:vector:starttime 0
scalar Throughput.ap.wlan[0].radio radioMode:vector:endtime 4.9986979268360008
scalar Throughput.ap.wlan[0].radio receptionState:vector:count 14985
scalar Throughput.ap.wlan[0].radio receptionState:vector:sum 19319
scalar Throughput.ap.wlan[0].radio receptionState:vector:sumweights 14985
scalar Throughput.ap.wlan[0].radio receptionState:vector:mean 1.2892225558892225
scalar Throughput.ap.wlan[0].radio receptionState:vector:stddev 1.0945830023029774
scalar Throughput.ap.wlan[0].radio receptionState:vector:min 0
scalar Throughput.ap.wlan[0].radio receptionState:vector:max 3
scalar Throughput.ap.wlan[0].radio receptionState:vector:starttime 0
scalar Throughput.ap.wlan[0].radio receptionState:vector:endtime 4.999850593964001
scalar Throughput.ap.wlan[0].radio transmissionState:vector:count 14200
scalar Throughput.ap.wlan[0].radio transmissionState:vector:sum 14200
scalar Throughput.ap.wlan[0].radio transmissionState:vector:sumweights 14200
scalar Throughput.ap.wlan[0].radio transmissionState:vector:mean 1
scalar Throughput.ap.wlan[0].radio transmissionState:vector:stddev 0.70713168062776466
scalar Throughput.ap.wlan[0].radio transmissionState:vector:min 0
scalar Throughput.ap.wlan[0].radio transmissionState:vector:max 2
scalar Throughput.ap.wlan[0].radio transmissionState:vector:starttime 0.0027773335640000007
scalar Throughput.ap.wlan[0].radio transmissionState:vector:endtime 4.9986979268360008
scalar Throughput.ap.wlan[0].radio radioChannel:vector:count 1
scalar Throughput.ap.wlan[0].radio radioChannel:vector:sum 0
scalar Throughput.ap.wlan[0].radio radioChannel:vector:sumweights 1
scalar Throughput.ap.wlan[0].radio radioChannel:vector:mean 0
scalar Throughput.ap.wlan[0].radio radioChannel:vector:stddev nan
scalar Throughput.ap.wlan[0].radio radioChannel:vector:min 0
scalar Throughput.ap.wlan[0].radio radioChannel:vector:max 0
scalar Throughput.ap.wlan[0].radio radioChannel:vector:starttime 0
scalar Throughput.ap.wlan[0].radio radioChannel:vector:endtime 0
scalar Throughput.ap.wlan[0] packetDropInterfaceDown:vector(packetBytes):count 0
scalar Throughput.ap.wlan[0] packetDropInterfaceDown:vector(packetBytes):sum 0
scalar Throughput.ap.wlan[0] packetDropInterfaceDown:vector(packetBytes):sumweights 0
scalar Throughput.ap.wlan[0] packetDropInterfaceDown:vector(packetBytes):mean -nan
scalar Throughput.ap.wlan[0] packetDropInterfaceDown:vector(packetBytes):stddev nan
scalar Throughput.ap.wlan[0] packetDropInterfaceDown:vector(packetBytes):min inf
scalar Throughput.ap.wlan[0] packetDropInterfaceDown:vector(packetBytes):max -inf
scalar Throughput.ap.wlan[0] packetDropInterfaceDown:vector(packetBytes):starttime nan
scalar Throughput.ap.wlan[0] packetDropInterfaceDown:vector(packetBytes):endtime nan
scalar Throughput.ap.wlan[0] packetDropNoCarrier:vector(packetBytes):count 0
scalar Throughput.ap.wlan[0] packetDropNoCarrier:vector(packetBytes):sum 0
scalar Throughput.ap.wlan[0] packetDropNoCarrier:vector(packetBytes):sumweights 0
scalar Throughput.ap.wlan[0] packetDropNoCarrier:vector(packetBytes):mean -nan
scalar Throughput.ap.wlan[0] packetDropNoCarrier:vector(packetBytes):stddev nan
scalar Throughput.ap.wlan[0] packetDropNoCarrier:vector(packetBytes):min inf
scalar Throughput.ap.wlan[0] packetDropNoCarrier:vector(packetBytes):max -inf
scalar Throughput.ap.wlan[0] packetDropNoCarrier:vector(packetBytes):starttime nan
scalar Throughput.ap.wlan[0] packetDropNoCarrier:vector(packetBytes):endtime nan

