version 3
run Scenario3-0-20260206-21:59:04-3561816
attr configname Scenario3
attr datetime 20260206-21:59:04
attr datetimef 20260206-215904
attr experiment Scenario3
attr inifile omnetpp.ini
attr iterationvars ""
attr iterationvarsd ""
attr iterationvarsf ""
attr measurement ""
attr network PIM_SM_Network
attr processid 3561816
attr repetition 0
attr replication #0
attr resultdir results
attr runnumber 0
attr seedset 0
config **.param-recording false
config image-path /home/attila/projects/inet/images
config output-scalar-file results/omnetpp.ini-Scenario3-#0.sca
config output-scalar-precision 17
config output-vector-file results/omnetpp.ini-Scenario3-#0.vec
config output-vector-precision 17
config record-eventlog false
config sim-time-limit 300s
config sim-time-limit 300s
config description "PIM-SM Scenario3: Timers ..."
config **.Source1.app[0].destAddresses "\"239.0.0.11\""
config **.Source1.app[0].startTime 13s
config **.Source1.app[0].sendInterval 25s
config **.Source1.app[0].stopTime "13s + 10 * 25s"
config **.Receiver?.app[0].multicastGroup "\"239.0.0.11\""
config **.Receiver1.app[0].startTime 30s
config **.Receiver1.app[0].stopTime 100s
config **.Receiver2.app[0].startTime 20s
config **.Receiver2.app[0].stopTime 170s
config network PIM_SM_Network
config **.configurator.config "xmldoc(\"networkConfig.xml\")"
config **.pimConfig "xml(\"<config><interface mode=\\\"sparse\\\"/></config>\")"
config **.RP.**.routerId "\"10.2.2.2\""
config **.RP "\"10.2.2.2\""
config **.Receiver?.numApps 1
config **.Receiver?.app[0].typename UdpSink
config **.Receiver?.app[0].localPort 5000
config **.Source1.numApps 1
config **.Source2.numApps 0
config **.Source?.app[0].typename UdpBasicApp
config **.Source?.app[0].destPort 5000
config **.Source?.app[0].messageLength 100B

scalar PIM_SM_Network.DR_R1.ethernet pauseSent:count 0
scalar PIM_SM_Network.DR_R1.ethernet pauseSent:sum 0
scalar PIM_SM_Network.DR_R1.ethernet decapPk:count 17
scalar PIM_SM_Network.DR_R1.ethernet decapPk:sum(packetBytes) 1028
scalar PIM_SM_Network.DR_R1.ethernet encapPk:count 50
scalar PIM_SM_Network.DR_R1.ethernet encapPk:sum(packetBytes) 2078
scalar PIM_SM_Network.DR_R1.lo[0].lo rcvdPkFromHl:count 0
scalar PIM_SM_Network.DR_R1.lo[0].lo rcvdPkFromHl:sum(packetBytes) 0
scalar PIM_SM_Network.DR_R1.lo[0].lo passedUpPk:count 0
scalar PIM_SM_Network.DR_R1.lo[0].lo passedUpPk:sum(packetBytes) 0
scalar PIM_SM_Network.DR_R1.lo[0] packetDropInterfaceDown:count 0
scalar PIM_SM_Network.DR_R1.lo[0] packetDropInterfaceDown:sum(packetBytes) 0
scalar PIM_SM_Network.DR_R1.lo[0] packetDropNoCarrier:count 0
scalar PIM_SM_Network.DR_R1.lo[0] packetDropNoCarrier:sum(packetBytes) 0
scalar PIM_SM_Network.DR_R1.eth[0].queue queueLength:last 0
scalar PIM_SM_Network.DR_R1.eth[0].queue queueLength:max 0
scalar PIM_SM_Network.DR_R1.eth[0].queue queueLength:timeavg 0
scalar PIM_SM_Network.DR_R1.eth[0].queue queueBitLength:last 0
scalar PIM_SM_Network.DR_R1.eth[0].queue queueBitLength:max 0
scalar PIM_SM_Network.DR_R1.eth[0].queue queueBitLength:timeavg 0
scalar PIM_SM_Network.DR_R1.eth[0].queue outgoingPackets:count 19
scalar PIM_SM_Network.DR_R1.eth[0].queue outgoingPacketLengths:sum 10192
scalar PIM_SM_Network.DR_R1.eth[0].queue incomingPackets:count 19
scalar PIM_SM_Network.DR_R1.eth[0].queue incomingPacketLengths:sum 10192
scalar PIM_SM_Network.DR_R1.eth[0].queue droppedPacketsQueueOverflow:count 0
scalar PIM_SM_Network.DR_R1.eth[0].queue droppedPacketLengthsQueueOverflow:sum 0
scalar PIM_SM_Network.DR_R1.eth[0].mac "simulated time" 300
scalar PIM_SM_Network.DR_R1.eth[0].mac full-duplex 1
scalar PIM_SM_Network.DR_R1.eth[0].mac "frames/sec sent" 0.063333333333333339
scalar PIM_SM_Network.DR_R1.eth[0].mac "frames/sec rcvd" 0.01
scalar PIM_SM_Network.DR_R1.eth[0].mac "bits/sec sent" 38.986666666666665
scalar PIM_SM_Network.DR_R1.eth[0].mac "bits/sec rcvd" 5.1200000000000001
scalar PIM_SM_Network.DR_R1.eth[0].mac "rx channel idle (%)" 99.999994240000007
scalar PIM_SM_Network.DR_R1.eth[0].mac "rx channel utilization (%)" 5.7599999999999999e-06
scalar PIM_SM_Network.DR_R1.eth[0].mac rxPausePkUnits:count 0
scalar PIM_SM_Network.DR_R1.eth[0].mac rxPausePkUnits:sum 0
scalar PIM_SM_Network.DR_R1.eth[0].mac txPausePkUnits:count 0
scalar PIM_SM_Network.DR_R1.eth[0].mac txPausePkUnits:sum 0
scalar PIM_SM_Network.DR_R1.eth[0].mac rxPkOk:count 3
scalar PIM_SM_Network.DR_R1.eth[0].mac rxPkOk:sum(packetBytes) 192
scalar PIM_SM_Network.DR_R1.eth[0].mac txPk:count 19
scalar PIM_SM_Network.DR_R1.eth[0].mac txPk:sum(packetBytes) 1462
scalar PIM_SM_Network.DR_R1.eth[0].mac packetReceivedFromUpper:count 19
scalar PIM_SM_Network.DR_R1.eth[0].mac packetReceivedFromUpper:sum(packetBytes) 1274
scalar PIM_SM_Network.DR_R1.eth[0].mac passedUpPk:count 3
scalar PIM_SM_Network.DR_R1.eth[0].mac passedUpPk:sum(packetBytes) 192
scalar PIM_SM_Network.DR_R1.eth[0].mac packetDropIncorrectlyReceived:count 0
scalar PIM_SM_Network.DR_R1.eth[0].mac packetDropIncorrectlyReceived:sum(packetBytes) 0
scalar PIM_SM_Network.DR_R1.eth[0].mac packetDropInterfaceDown:count 0
scalar PIM_SM_Network.DR_R1.eth[0].mac packetDropInterfaceDown:sum(packetBytes) 0
scalar PIM_SM_Network.DR_R1.eth[0].mac packetDropNotAddressedToUs:count 0
scalar PIM_SM_Network.DR_R1.eth[0].mac packetDropNotAddressedToUs:sum(packetBytes) 0
scalar PIM_SM_Network.DR_R1.eth[0] packetDropInterfaceDown:count 0
scalar PIM_SM_Network.DR_R1.eth[0] packetDropInterfaceDown:sum(packetBytes) 0
scalar PIM_SM_Network.DR_R1.eth[0] packetDropNoCarrier:count 0
scalar PIM_SM_Network.DR_R1.eth[0] packetDropNoCarrier:sum(packetBytes) 0
scalar PIM_SM_Network.DR_R1.eth[1].queue queueLength:last 0
scalar PIM_SM_Network.DR_R1.eth[1].queue queueLength:max 0
scalar PIM_SM_Network.DR_R1.eth[1].queue queueLength:timeavg 0
scalar PIM_SM_Network.DR_R1.eth[1].queue queueBitLength:last 0
scalar PIM_SM_Network.DR_R1.eth[1].queue queueBitLength:max 0
scalar PIM_SM_Network.DR_R1.eth[1].queue queueBitLength:timeavg 0
scalar PIM_SM_Network.DR_R1.eth[1].queue outgoingPackets:count 17
scalar PIM_SM_Network.DR_R1.eth[1].queue outgoingPacketLengths:sum 7680
scalar PIM_SM_Network.DR_R1.eth[1].queue incomingPackets:count 17
scalar PIM_SM_Network.DR_R1.eth[1].queue incomingPacketLengths:sum 7680
scalar PIM_SM_Network.DR_R1.eth[1].queue droppedPacketsQueueOverflow:count 0
scalar PIM_SM_Network.DR_R1.eth[1].queue droppedPacketLengthsQueueOverflow:sum 0
scalar PIM_SM_Network.DR_R1.eth[1].mac "simulated time" 300
scalar PIM_SM_Network.DR_R1.eth[1].mac full-duplex 1
scalar PIM_SM_Network.DR_R1.eth[1].mac "frames/sec sent" 0.056666666666666664
scalar PIM_SM_Network.DR_R1.eth[1].mac "frames/sec rcvd" 0.046666666666666669
scalar PIM_SM_Network.DR_R1.eth[1].mac "bits/sec sent" 29.653333333333332
scalar PIM_SM_Network.DR_R1.eth[1].mac "bits/sec rcvd" 30.453333333333333
scalar PIM_SM_Network.DR_R1.eth[1].mac "rx channel idle (%)" 99.999966560000004
scalar PIM_SM_Network.DR_R1.eth[1].mac "rx channel utilization (%)" 3.3439999999999998e-05
scalar PIM_SM_Network.DR_R1.eth[1].mac rxPausePkUnits:count 0
scalar PIM_SM_Network.DR_R1.eth[1].mac rxPausePkUnits:sum 0
scalar PIM_SM_Network.DR_R1.eth[1].mac txPausePkUnits:count 0
scalar PIM_SM_Network.DR_R1.eth[1].mac txPausePkUnits:sum 0
scalar PIM_SM_Network.DR_R1.eth[1].mac rxPkOk:count 14
scalar PIM_SM_Network.DR_R1.eth[1].mac rxPkOk:sum(packetBytes) 1142
scalar PIM_SM_Network.DR_R1.eth[1].mac txPk:count 17
scalar PIM_SM_Network.DR_R1.eth[1].mac txPk:sum(packetBytes) 1112
scalar PIM_SM_Network.DR_R1.eth[1].mac packetReceivedFromUpper:count 17
scalar PIM_SM_Network.DR_R1.eth[1].mac packetReceivedFromUpper:sum(packetBytes) 960
scalar PIM_SM_Network.DR_R1.eth[1].mac passedUpPk:count 14
scalar PIM_SM_Network.DR_R1.eth[1].mac passedUpPk:sum(packetBytes) 1142
scalar PIM_SM_Network.DR_R1.eth[1].mac packetDropIncorrectlyReceived:count 0
scalar PIM_SM_Network.DR_R1.eth[1].mac packetDropIncorrectlyReceived:sum(packetBytes) 0
scalar PIM_SM_Network.DR_R1.eth[1].mac packetDropInterfaceDown:count 0
scalar PIM_SM_Network.DR_R1.eth[1].mac packetDropInterfaceDown:sum(packetBytes) 0
scalar PIM_SM_Network.DR_R1.eth[1].mac packetDropNotAddressedToUs:count 0
scalar PIM_SM_Network.DR_R1.eth[1].mac packetDropNotAddressedToUs:sum(packetBytes) 0
scalar PIM_SM_Network.DR_R1.eth[1] packetDropInterfaceDown:count 0
scalar PIM_SM_Network.DR_R1.eth[1] packetDropInterfaceDown:sum(packetBytes) 0
scalar PIM_SM_Network.DR_R1.eth[1] packetDropNoCarrier:count 0
scalar PIM_SM_Network.DR_R1.eth[1] packetDropNoCarrier:sum(packetBytes) 0
scalar PIM_SM_Network.DR_R1.eth[2].queue queueLength:last 0
scalar PIM_SM_Network.DR_R1.eth[2].queue queueLength:max 0
scalar PIM_SM_Network.DR_R1.eth[2].queue queueLength:timeavg 0
scalar PIM_SM_Network.DR_R1.eth[2].queue queueBitLength:last 0
scalar PIM_SM_Network.DR_R1.eth[2].queue queueBitLength:max 0
scalar PIM_SM_Network.DR_R1.eth[2].queue queueBitLength:timeavg 0
scalar PIM_SM_Network.DR_R1.eth[2].queue outgoingPackets:count 14
scalar PIM_SM_Network.DR_R1.eth[2].queue outgoingPacketLengths:sum 5952
scalar PIM_SM_Network.DR_R1.eth[2].queue incomingPackets:count 14
scalar PIM_SM_Network.DR_R1.eth[2].queue incomingPacketLengths:sum 5952
scalar PIM_SM_Network.DR_R1.eth[2].queue droppedPacketsQueueOverflow:count 0
scalar PIM_SM_Network.DR_R1.eth[2].queue droppedPacketLengthsQueueOverflow:sum 0
scalar PIM_SM_Network.DR_R1.eth[2].mac "simulated time" 300
scalar PIM_SM_Network.DR_R1.eth[2].mac full-duplex 1
scalar PIM_SM_Network.DR_R1.eth[2].mac "frames/sec sent" 0
scalar PIM_SM_Network.DR_R1.eth[2].mac "frames/sec rcvd" 0
scalar PIM_SM_Network.DR_R1.eth[2].mac "bits/sec sent" 0
scalar PIM_SM_Network.DR_R1.eth[2].mac "bits/sec rcvd" 0
scalar PIM_SM_Network.DR_R1.eth[2].mac "rx channel idle (%)" 100
scalar PIM_SM_Network.DR_R1.eth[2].mac "rx channel utilization (%)" 0
scalar PIM_SM_Network.DR_R1.eth[2].mac rxPausePkUnits:count 0
scalar PIM_SM_Network.DR_R1.eth[2].mac rxPausePkUnits:sum 0
scalar PIM_SM_Network.DR_R1.eth[2].mac txPausePkUnits:count 0
scalar PIM_SM_Network.DR_R1.eth[2].mac txPausePkUnits:sum 0
scalar PIM_SM_Network.DR_R1.eth[2].mac rxPkOk:count 0
scalar PIM_SM_Network.DR_R1.eth[2].mac rxPkOk:sum(packetBytes) 0
scalar PIM_SM_Network.DR_R1.eth[2].mac txPk:count 0
scalar PIM_SM_Network.DR_R1.eth[2].mac txPk:sum(packetBytes) 0
scalar PIM_SM_Network.DR_R1.eth[2].mac packetReceivedFromUpper:count 14
scalar PIM_SM_Network.DR_R1.eth[2].mac packetReceivedFromUpper:sum(packetBytes) 744
scalar PIM_SM_Network.DR_R1.eth[2].mac passedUpPk:count 0
scalar PIM_SM_Network.DR_R1.eth[2].mac passedUpPk:sum(packetBytes) 0
scalar PIM_SM_Network.DR_R1.eth[2].mac packetDropIncorrectlyReceived:count 0
scalar PIM_SM_Network.DR_R1.eth[2].mac packetDropIncorrectlyReceived:sum(packetBytes) 0
scalar PIM_SM_Network.DR_R1.eth[2].mac packetDropInterfaceDown:count 14
scalar PIM_SM_Network.DR_R1.eth[2].mac packetDropInterfaceDown:sum(packetBytes) 744
scalar PIM_SM_Network.DR_R1.eth[2].mac packetDropNotAddressedToUs:count 0
scalar PIM_SM_Network.DR_R1.eth[2].mac packetDropNotAddressedToUs:sum(packetBytes) 0
scalar PIM_SM_Network.DR_R1.eth[2] packetDropInterfaceDown:count 14
scalar PIM_SM_Network.DR_R1.eth[2] packetDropInterfaceDown:sum(packetBytes) 744
scalar PIM_SM_Network.DR_R1.eth[2] packetDropNoCarrier:count 0
scalar PIM_SM_Network.DR_R1.eth[2] packetDropNoCarrier:sum(packetBytes) 0
scalar PIM_SM_Network.DR_R1.ipv4.ip packetDropAddressResolutionFailed:count 0
scalar PIM_SM_Network.DR_R1.ipv4.ip packetDropAddressResolutionFailed:sum(packetBytes) 0
scalar PIM_SM_Network.DR_R1.ipv4.ip packetDropHopLimitReached:count 0
scalar PIM_SM_Network.DR_R1.ipv4.ip packetDropHopLimitReached:sum(packetBytes) 0
scalar PIM_SM_Network.DR_R1.ipv4.ip packetDropForwardingDisabled:count 0
scalar PIM_SM_Network.DR_R1.ipv4.ip packetDropForwardingDisabled:sum(packetBytes) 0
scalar PIM_SM_Network.DR_R1.ipv4.ip packetDropLifetimeExpired:count 0
scalar PIM_SM_Network.DR_R1.ipv4.ip packetDropLifetimeExpired:sum(packetBytes) 0
scalar PIM_SM_Network.DR_R1.ipv4.ip packetDropNoInterfaceFound:count 0
scalar PIM_SM_Network.DR_R1.ipv4.ip packetDropNoInterfaceFound:sum(packetBytes) 0
scalar PIM_SM_Network.DR_R1.ipv4.ip packetDropNoRouteFound:count 0
scalar PIM_SM_Network.DR_R1.ipv4.ip packetDropNoRouteFound:sum(packetBytes) 0
scalar PIM_SM_Network.DR_R1.ipv4.ip packetDropUndefined:count 0
scalar PIM_SM_Network.DR_R1.ipv4.ip packetDropUndefined:sum(packetBytes) 0
scalar PIM_SM_Network.DR_R1.ipv4.arp arpResolutionFailed:count 0
scalar PIM_SM_Network.DR_R1.ipv4.arp arpResolutionCompleted:count 0
scalar PIM_SM_Network.DR_R1.ipv4.arp arpResolutionInitiated:count 0
scalar PIM_SM_Network.DR_R1.ipv4.arp arpReplySent:count 0
scalar PIM_SM_Network.DR_R1.ipv4.arp arpReplySent:sum(packetBytes) 0
scalar PIM_SM_Network.DR_R1.ipv4.arp arpRequestSent:count 0
scalar PIM_SM_Network.DR_R1.ipv4.arp arpRequestSent:sum(packetBytes) 0
scalar PIM_SM_Network.DR_R2.ethernet pauseSent:count 0
scalar PIM_SM_Network.DR_R2.ethernet pauseSent:sum 0
scalar PIM_SM_Network.DR_R2.ethernet decapPk:count 50
scalar PIM_SM_Network.DR_R2.ethernet decapPk:sum(packetBytes) 2816
scalar PIM_SM_Network.DR_R2.ethernet encapPk:count 68
scalar PIM_SM_Network.DR_R2.ethernet encapPk:sum(packetBytes) 3308
scalar PIM_SM_Network.DR_R2.lo[0].lo rcvdPkFromHl:count 0
scalar PIM_SM_Network.DR_R2.lo[0].lo rcvdPkFromHl:sum(packetBytes) 0
scalar PIM_SM_Network.DR_R2.lo[0].lo passedUpPk:count 0
scalar PIM_SM_Network.DR_R2.lo[0].lo passedUpPk:sum(packetBytes) 0
scalar PIM_SM_Network.DR_R2.lo[0] packetDropInterfaceDown:count 0
scalar PIM_SM_Network.DR_R2.lo[0] packetDropInterfaceDown:sum(packetBytes) 0
scalar PIM_SM_Network.DR_R2.lo[0] packetDropNoCarrier:count 0
scalar PIM_SM_Network.DR_R2.lo[0] packetDropNoCarrier:sum(packetBytes) 0
scalar PIM_SM_Network.DR_R2.eth[0].queue queueLength:last 0
scalar PIM_SM_Network.DR_R2.eth[0].queue queueLength:max 0
scalar PIM_SM_Network.DR_R2.eth[0].queue queueLength:timeavg 0
scalar PIM_SM_Network.DR_R2.eth[0].queue queueBitLength:last 0
scalar PIM_SM_Network.DR_R2.eth[0].queue queueBitLength:max 0
scalar PIM_SM_Network.DR_R2.eth[0].queue queueBitLength:timeavg 0
scalar PIM_SM_Network.DR_R2.eth[0].queue outgoingPackets:count 14
scalar PIM_SM_Network.DR_R2.eth[0].queue outgoingPacketLengths:sum 8352
scalar PIM_SM_Network.DR_R2.eth[0].queue incomingPackets:count 14
scalar PIM_SM_Network.DR_R2.eth[0].queue incomingPacketLengths:sum 8352
scalar PIM_SM_Network.DR_R2.eth[0].queue droppedPacketsQueueOverflow:count 0
scalar PIM_SM_Network.DR_R2.eth[0].queue droppedPacketLengthsQueueOverflow:sum 0
scalar PIM_SM_Network.DR_R2.eth[0].mac "simulated time" 300
scalar PIM_SM_Network.DR_R2.eth[0].mac full-duplex 1
scalar PIM_SM_Network.DR_R2.eth[0].mac "frames/sec sent" 0.046666666666666669
scalar PIM_SM_Network.DR_R2.eth[0].mac "frames/sec rcvd" 0.056666666666666664
scalar PIM_SM_Network.DR_R2.eth[0].mac "bits/sec sent" 30.453333333333333
scalar PIM_SM_Network.DR_R2.eth[0].mac "bits/sec rcvd" 29.653333333333332
scalar PIM_SM_Network.DR_R2.eth[0].mac "rx channel idle (%)" 99.999966720000003
scalar PIM_SM_Network.DR_R2.eth[0].mac "rx channel utilization (%)" 3.328e-05
scalar PIM_SM_Network.DR_R2.eth[0].mac rxPausePkUnits:count 0
scalar PIM_SM_Network.DR_R2.eth[0].mac rxPausePkUnits:sum 0
scalar PIM_SM_Network.DR_R2.eth[0].mac txPausePkUnits:count 0
scalar PIM_SM_Network.DR_R2.eth[0].mac txPausePkUnits:sum 0
scalar PIM_SM_Network.DR_R2.eth[0].mac rxPkOk:count 17
scalar PIM_SM_Network.DR_R2.eth[0].mac rxPkOk:sum(packetBytes) 1112
scalar PIM_SM_Network.DR_R2.eth[0].mac txPk:count 14
scalar PIM_SM_Network.DR_R2.eth[0].mac txPk:sum(packetBytes) 1142
scalar PIM_SM_Network.DR_R2.eth[0].mac packetReceivedFromUpper:count 14
scalar PIM_SM_Network.DR_R2.eth[0].mac packetReceivedFromUpper:sum(packetBytes) 1044
scalar PIM_SM_Network.DR_R2.eth[0].mac passedUpPk:count 17
scalar PIM_SM_Network.DR_R2.eth[0].mac passedUpPk:sum(packetBytes) 1112
scalar PIM_SM_Network.DR_R2.eth[0].mac packetDropIncorrectlyReceived:count 0
scalar PIM_SM_Network.DR_R2.eth[0].mac packetDropIncorrectlyReceived:sum(packetBytes) 0
scalar PIM_SM_Network.DR_R2.eth[0].mac packetDropInterfaceDown:count 0
scalar PIM_SM_Network.DR_R2.eth[0].mac packetDropInterfaceDown:sum(packetBytes) 0
scalar PIM_SM_Network.DR_R2.eth[0].mac packetDropNotAddressedToUs:count 0
scalar PIM_SM_Network.DR_R2.eth[0].mac packetDropNotAddressedToUs:sum(packetBytes) 0
scalar PIM_SM_Network.DR_R2.eth[0] packetDropInterfaceDown:count 0
scalar PIM_SM_Network.DR_R2.eth[0] packetDropInterfaceDown:sum(packetBytes) 0
scalar PIM_SM_Network.DR_R2.eth[0] packetDropNoCarrier:count 0
scalar PIM_SM_Network.DR_R2.eth[0] packetDropNoCarrier:sum(packetBytes) 0
scalar PIM_SM_Network.DR_R2.eth[1].queue queueLength:last 0
scalar PIM_SM_Network.DR_R2.eth[1].queue queueLength:max 0
scalar PIM_SM_Network.DR_R2.eth[1].queue queueLength:timeavg 0
scalar PIM_SM_Network.DR_R2.eth[1].queue queueBitLength:last 0
scalar PIM_SM_Network.DR_R2.eth[1].queue queueBitLength:max 0
scalar PIM_SM_Network.DR_R2.eth[1].queue queueBitLength:timeavg 0
scalar PIM_SM_Network.DR_R2.eth[1].queue outgoingPackets:count 14
scalar PIM_SM_Network.DR_R2.eth[1].queue outgoingPacketLengths:sum 5952
scalar PIM_SM_Network.DR_R2.eth[1].queue incomingPackets:count 14
scalar PIM_SM_Network.DR_R2.eth[1].queue incomingPacketLengths:sum 5952
scalar PIM_SM_Network.DR_R2.eth[1].queue droppedPacketsQueueOverflow:count 0
scalar PIM_SM_Network.DR_R2.eth[1].queue droppedPacketLengthsQueueOverflow:sum 0
scalar PIM_SM_Network.DR_R2.eth[1].mac "simulated time" 300
scalar PIM_SM_Network.DR_R2.eth[1].mac full-duplex 1
scalar PIM_SM_Network.DR_R2.eth[1].mac "frames/sec sent" 0.046666666666666669
scalar PIM_SM_Network.DR_R2.eth[1].mac "frames/sec rcvd" 0.036666666666666667
scalar PIM_SM_Network.DR_R2.eth[1].mac "bits/sec sent" 23.893333333333334
scalar PIM_SM_Network.DR_R2.eth[1].mac "bits/sec rcvd" 18.773333333333333
scalar PIM_SM_Network.DR_R2.eth[1].mac "rx channel idle (%)" 99.99997888
scalar PIM_SM_Network.DR_R2.eth[1].mac "rx channel utilization (%)" 2.1120000000000001e-05
scalar PIM_SM_Network.DR_R2.eth[1].mac rxPausePkUnits:count 0
scalar PIM_SM_Network.DR_R2.eth[1].mac rxPausePkUnits:sum 0
scalar PIM_SM_Network.DR_R2.eth[1].mac txPausePkUnits:count 0
scalar PIM_SM_Network.DR_R2.eth[1].mac txPausePkUnits:sum 0
scalar PIM_SM_Network.DR_R2.eth[1].mac rxPkOk:count 11
scalar PIM_SM_Network.DR_R2.eth[1].mac rxPkOk:sum(packetBytes) 704
scalar PIM_SM_Network.DR_R2.eth[1].mac txPk:count 14
scalar PIM_SM_Network.DR_R2.eth[1].mac txPk:sum(packetBytes) 896
scalar PIM_SM_Network.DR_R2.eth[1].mac packetReceivedFromUpper:count 14
scalar PIM_SM_Network.DR_R2.eth[1].mac packetReceivedFromUpper:sum(packetBytes) 744
scalar PIM_SM_Network.DR_R2.eth[1].mac passedUpPk:count 11
scalar PIM_SM_Network.DR_R2.eth[1].mac passedUpPk:sum(packetBytes) 704
scalar PIM_SM_Network.DR_R2.eth[1].mac packetDropIncorrectlyReceived:count 0
scalar PIM_SM_Network.DR_R2.eth[1].mac packetDropIncorrectlyReceived:sum(packetBytes) 0
scalar PIM_SM_Network.DR_R2.eth[1].mac packetDropInterfaceDown:count 0
scalar PIM_SM_Network.DR_R2.eth[1].mac packetDropInterfaceDown:sum(packetBytes) 0
scalar PIM_SM_Network.DR_R2.eth[1].mac packetDropNotAddressedToUs:count 0
scalar PIM_SM_Network.DR_R2.eth[1].mac packetDropNotAddressedToUs:sum(packetBytes) 0
scalar PIM_SM_Network.DR_R2.eth[1] packetDropInterfaceDown:count 0
scalar PIM_SM_Network.DR_R2.eth[1] packetDropInterfaceDown:sum(packetBytes) 0
scalar PIM_SM_Network.DR_R2.eth[1] packetDropNoCarrier:count 0
scalar PIM_SM_Network.DR_R2.eth[1] packetDropNoCarrier:sum(packetBytes) 0
scalar PIM_SM_Network.DR_R2.eth[2].queue queueLength:last 0
scalar PIM_SM_Network.DR_R2.eth[2].queue queueLength:max 0
scalar PIM_SM_Network.DR_R2.eth[2].queue queueLength:timeavg 0
scalar PIM_SM_Network.DR_R2.eth[2].queue queueBitLength:last 0
scalar PIM_SM_Network.DR_R2.eth[2].queue queueBitLength:max 0
scalar PIM_SM_Network.DR_R2.eth[2].queue queueBitLength:timeavg 0
scalar PIM_SM_Network.DR_R2.eth[2].queue outgoingPackets:count 18
scalar PIM_SM_Network.DR_R2.eth[2].queue outgoingPacketLengths:sum 8256
scalar PIM_SM_Network.DR_R2.eth[2].queue incomingPackets:count 18
scalar PIM_SM_Network.DR_R2.eth[2].queue incomingPacketLengths:sum 8256
scalar PIM_SM_Network.DR_R2.eth[2].queue droppedPacketsQueueOverflow:count 0
scalar PIM_SM_Network.DR_R2.eth[2].queue droppedPacketLengthsQueueOverflow:sum 0
scalar PIM_SM_Network.DR_R2.eth[2].mac "simulated time" 300
scalar PIM_SM_Network.DR_R2.eth[2].mac full-duplex 1
scalar PIM_SM_Network.DR_R2.eth[2].mac "frames/sec sent" 0.059999999999999998
scalar PIM_SM_Network.DR_R2.eth[2].mac "frames/sec rcvd" 0.056666666666666664
scalar PIM_SM_Network.DR_R2.eth[2].mac "bits/sec sent" 31.573333333333334
scalar PIM_SM_Network.DR_R2.eth[2].mac "bits/sec rcvd" 42.133333333333333
scalar PIM_SM_Network.DR_R2.eth[2].mac "rx channel idle (%)" 99.999954239999994
scalar PIM_SM_Network.DR_R2.eth[2].mac "rx channel utilization (%)" 4.5760000000000002e-05
scalar PIM_SM_Network.DR_R2.eth[2].mac rxPausePkUnits:count 0
scalar PIM_SM_Network.DR_R2.eth[2].mac rxPausePkUnits:sum 0
scalar PIM_SM_Network.DR_R2.eth[2].mac txPausePkUnits:count 0
scalar PIM_SM_Network.DR_R2.eth[2].mac txPausePkUnits:sum 0
scalar PIM_SM_Network.DR_R2.eth[2].mac rxPkOk:count 17
scalar PIM_SM_Network.DR_R2.eth[2].mac rxPkOk:sum(packetBytes) 1580
scalar PIM_SM_Network.DR_R2.eth[2].mac txPk:count 18
scalar PIM_SM_Network.DR_R2.eth[2].mac txPk:sum(packetBytes) 1184
scalar PIM_SM_Network.DR_R2.eth[2].mac packetReceivedFromUpper:count 18
scalar PIM_SM_Network.DR_R2.eth[2].mac packetReceivedFromUpper:sum(packetBytes) 1032
scalar PIM_SM_Network.DR_R2.eth[2].mac passedUpPk:count 17
scalar PIM_SM_Network.DR_R2.eth[2].mac passedUpPk:sum(packetBytes) 1580
scalar PIM_SM_Network.DR_R2.eth[2].mac packetDropIncorrectlyReceived:count 0
scalar PIM_SM_Network.DR_R2.eth[2].mac packetDropIncorrectlyReceived:sum(packetBytes) 0
scalar PIM_SM_Network.DR_R2.eth[2].mac packetDropInterfaceDown:count 0
scalar PIM_SM_Network.DR_R2.eth[2].mac packetDropInterfaceDown:sum(packetBytes) 0
scalar PIM_SM_Network.DR_R2.eth[2].mac packetDropNotAddressedToUs:count 0
scalar PIM_SM_Network.DR_R2.eth[2].mac packetDropNotAddressedToUs:sum(packetBytes) 0
scalar PIM_SM_Network.DR_R2.eth[2] packetDropInterfaceDown:count 0
scalar PIM_SM_Network.DR_R2.eth[2] packetDropInterfaceDown:sum(packetBytes) 0
scalar PIM_SM_Network.DR_R2.eth[2] packetDropNoCarrier:count 0
scalar PIM_SM_Network.DR_R2.eth[2] packetDropNoCarrier:sum(packetBytes) 0
scalar PIM_SM_Network.DR_R2.eth[3].queue queueLength:last 0
scalar PIM_SM_Network.DR_R2.eth[3].queue queueLength:max 0
scalar PIM_SM_Network.DR_R2.eth[3].queue queueLength:timeavg 0
scalar PIM_SM_Network.DR_R2.eth[3].queue queueBitLength:last 0
scalar PIM_SM_Network.DR_R2.eth[3].queue queueBitLength:max 0
scalar PIM_SM_Network.DR_R2.eth[3].queue queueBitLength:timeavg 0
scalar PIM_SM_Network.DR_R2.eth[3].queue outgoingPackets:count 22
scalar PIM_SM_Network.DR_R2.eth[3].queue outgoingPacketLengths:sum 13696
scalar PIM_SM_Network.DR_R2.eth[3].queue incomingPackets:count 22
scalar PIM_SM_Network.DR_R2.eth[3].queue incomingPacketLengths:sum 13696
scalar PIM_SM_Network.DR_R2.eth[3].queue droppedPacketsQueueOverflow:count 0
scalar PIM_SM_Network.DR_R2.eth[3].queue droppedPacketLengthsQueueOverflow:sum 0
scalar PIM_SM_Network.DR_R2.eth[3].mac "simulated time" 300
scalar PIM_SM_Network.DR_R2.eth[3].mac full-duplex 1
scalar PIM_SM_Network.DR_R2.eth[3].mac "frames/sec sent" 0.073333333333333334
scalar PIM_SM_Network.DR_R2.eth[3].mac "frames/sec rcvd" 0.016666666666666666
scalar PIM_SM_Network.DR_R2.eth[3].mac "bits/sec sent" 50.666666666666664
scalar PIM_SM_Network.DR_R2.eth[3].mac "bits/sec rcvd" 8.5333333333333332
scalar PIM_SM_Network.DR_R2.eth[3].mac "rx channel idle (%)" 99.999990400000002
scalar PIM_SM_Network.DR_R2.eth[3].mac "rx channel utilization (%)" 9.5999999999999996e-06
scalar PIM_SM_Network.DR_R2.eth[3].mac rxPausePkUnits:count 0
scalar PIM_SM_Network.DR_R2.eth[3].mac rxPausePkUnits:sum 0
scalar PIM_SM_Network.DR_R2.eth[3].mac txPausePkUnits:count 0
scalar PIM_SM_Network.DR_R2.eth[3].mac txPausePkUnits:sum 0
scalar PIM_SM_Network.DR_R2.eth[3].mac rxPkOk:count 5
scalar PIM_SM_Network.DR_R2.eth[3].mac rxPkOk:sum(packetBytes) 320
scalar PIM_SM_Network.DR_R2.eth[3].mac txPk:count 22
scalar PIM_SM_Network.DR_R2.eth[3].mac txPk:sum(packetBytes) 1900
scalar PIM_SM_Network.DR_R2.eth[3].mac packetReceivedFromUpper:count 22
scalar PIM_SM_Network.DR_R2.eth[3].mac packetReceivedFromUpper:sum(packetBytes) 1712
scalar PIM_SM_Network.DR_R2.eth[3].mac passedUpPk:count 5
scalar PIM_SM_Network.DR_R2.eth[3].mac passedUpPk:sum(packetBytes) 320
scalar PIM_SM_Network.DR_R2.eth[3].mac packetDropIncorrectlyReceived:count 0
scalar PIM_SM_Network.DR_R2.eth[3].mac packetDropIncorrectlyReceived:sum(packetBytes) 0
scalar PIM_SM_Network.DR_R2.eth[3].mac packetDropInterfaceDown:count 0
scalar PIM_SM_Network.DR_R2.eth[3].mac packetDropInterfaceDown:sum(packetBytes) 0
scalar PIM_SM_Network.DR_R2.eth[3].mac packetDropNotAddressedToUs:count 0
scalar PIM_SM_Network.DR_R2.eth[3].mac packetDropNotAddressedToUs:sum(packetBytes) 0
scalar PIM_SM_Network.DR_R2.eth[3] packetDropInterfaceDown:count 0
scalar PIM_SM_Network.DR_R2.eth[3] packetDropInterfaceDown:sum(packetBytes) 0
scalar PIM_SM_Network.DR_R2.eth[3] packetDropNoCarrier:count 0
scalar PIM_SM_Network.DR_R2.eth[3] packetDropNoCarrier:sum(packetBytes) 0
scalar PIM_SM_Network.DR_R2.ipv4.ip packetDropAddressResolutionFailed:count 0
scalar PIM_SM_Network.DR_R2.ipv4.ip packetDropAddressResolutionFailed:sum(packetBytes) 0
scalar PIM_SM_Network.DR_R2.ipv4.ip packetDropHopLimitReached:count 0
scalar PIM_SM_Network.DR_R2.ipv4.ip packetDropHopLimitReached:sum(packetBytes) 0
scalar PIM_SM_Network.DR_R2.ipv4.ip packetDropForwardingDisabled:count 0
scalar PIM_SM_Network.DR_R2.ipv4.ip packetDropForwardingDisabled:sum(packetBytes) 0
scalar PIM_SM_Network.DR_R2.ipv4.ip packetDropLifetimeExpired:count 0
scalar PIM_SM_Network.DR_R2.ipv4.ip packetDropLifetimeExpired:sum(packetBytes) 0
scalar PIM_SM_Network.DR_R2.ipv4.ip packetDropNoInterfaceFound:count 0
scalar PIM_SM_Network.DR_R2.ipv4.ip packetDropNoInterfaceFound:sum(packetBytes) 0
scalar PIM_SM_Network.DR_R2.ipv4.ip packetDropNoRouteFound:count 0
scalar PIM_SM_Network.DR_R2.ipv4.ip packetDropNoRouteFound:sum(packetBytes) 0
scalar PIM_SM_Network.DR_R2.ipv4.ip packetDropUndefined:count 0
scalar PIM_SM_Network.DR_R2.ipv4.ip packetDropUndefined:sum(packetBytes) 0
scalar PIM_SM_Network.DR_R2.ipv4.arp arpResolutionFailed:count 0
scalar PIM_SM_Network.DR_R2.ipv4.arp arpResolutionCompleted:count 0
scalar PIM_SM_Network.DR_R2.ipv4.arp arpResolutionInitiated:count 0
scalar PIM_SM_Network.DR_R2.ipv4.arp arpReplySent:count 0
scalar PIM_SM_Network.DR_R2.ipv4.arp arpReplySent:sum(packetBytes) 0
scalar PIM_SM_Network.DR_R2.ipv4.arp arpRequestSent:count 0
scalar PIM_SM_Network.DR_R2.ipv4.arp arpRequestSent:sum(packetBytes) 0
scalar PIM_SM_Network.RP.ethernet pauseSent:count 0
scalar PIM_SM_Network.RP.ethernet pauseSent:sum 0
scalar PIM_SM_Network.RP.ethernet decapPk:count 43
scalar PIM_SM_Network.RP.ethernet decapPk:sum(packetBytes) 2620
scalar PIM_SM_Network.RP.ethernet encapPk:count 57
scalar PIM_SM_Network.RP.ethernet encapPk:sum(packetBytes) 2650
scalar PIM_SM_Network.RP.lo[0].lo rcvdPkFromHl:count 0
scalar PIM_SM_Network.RP.lo[0].lo rcvdPkFromHl:sum(packetBytes) 0
scalar PIM_SM_Network.RP.lo[0].lo passedUpPk:count 0
scalar PIM_SM_Network.RP.lo[0].lo passedUpPk:sum(packetBytes) 0
scalar PIM_SM_Network.RP.lo[0] packetDropInterfaceDown:count 0
scalar PIM_SM_Network.RP.lo[0] packetDropInterfaceDown:sum(packetBytes) 0
scalar PIM_SM_Network.RP.lo[0] packetDropNoCarrier:count 0
scalar PIM_SM_Network.RP.lo[0] packetDropNoCarrier:sum(packetBytes) 0
scalar PIM_SM_Network.RP.eth[0].queue queueLength:last 0
scalar PIM_SM_Network.RP.eth[0].queue queueLength:max 0
scalar PIM_SM_Network.RP.eth[0].queue queueLength:timeavg 0
scalar PIM_SM_Network.RP.eth[0].queue queueBitLength:last 0
scalar PIM_SM_Network.RP.eth[0].queue queueBitLength:max 0
scalar PIM_SM_Network.RP.eth[0].queue queueBitLength:timeavg 0
scalar PIM_SM_Network.RP.eth[0].queue outgoingPackets:count 26
scalar PIM_SM_Network.RP.eth[0].queue outgoingPacketLengths:sum 11600
scalar PIM_SM_Network.RP.eth[0].queue incomingPackets:count 26
scalar PIM_SM_Network.RP.eth[0].queue incomingPacketLengths:sum 11600
scalar PIM_SM_Network.RP.eth[0].queue droppedPacketsQueueOverflow:count 0
scalar PIM_SM_Network.RP.eth[0].queue droppedPacketLengthsQueueOverflow:sum 0
scalar PIM_SM_Network.RP.eth[0].mac "simulated time" 300
scalar PIM_SM_Network.RP.eth[0].mac full-duplex 1
scalar PIM_SM_Network.RP.eth[0].mac "frames/sec sent" 0.08666666666666667
scalar PIM_SM_Network.RP.eth[0].mac "frames/sec rcvd" 0.083333333333333329
scalar PIM_SM_Network.RP.eth[0].mac "bits/sec sent" 45.226666666666667
scalar PIM_SM_Network.RP.eth[0].mac "bits/sec rcvd" 58.93333333333333
scalar PIM_SM_Network.RP.eth[0].mac "rx channel idle (%)" 99.999935733333331
scalar PIM_SM_Network.RP.eth[0].mac "rx channel utilization (%)" 6.4266666666666666e-05
scalar PIM_SM_Network.RP.eth[0].mac rxPausePkUnits:count 0
scalar PIM_SM_Network.RP.eth[0].mac rxPausePkUnits:sum 0
scalar PIM_SM_Network.RP.eth[0].mac txPausePkUnits:count 0
scalar PIM_SM_Network.RP.eth[0].mac txPausePkUnits:sum 0
scalar PIM_SM_Network.RP.eth[0].mac rxPkOk:count 25
scalar PIM_SM_Network.RP.eth[0].mac rxPkOk:sum(packetBytes) 2210
scalar PIM_SM_Network.RP.eth[0].mac txPk:count 26
scalar PIM_SM_Network.RP.eth[0].mac txPk:sum(packetBytes) 1696
scalar PIM_SM_Network.RP.eth[0].mac packetReceivedFromUpper:count 26
scalar PIM_SM_Network.RP.eth[0].mac packetReceivedFromUpper:sum(packetBytes) 1450
scalar PIM_SM_Network.RP.eth[0].mac passedUpPk:count 25
scalar PIM_SM_Network.RP.eth[0].mac passedUpPk:sum(packetBytes) 2210
scalar PIM_SM_Network.RP.eth[0].mac packetDropIncorrectlyReceived:count 0
scalar PIM_SM_Network.RP.eth[0].mac packetDropIncorrectlyReceived:sum(packetBytes) 0
scalar PIM_SM_Network.RP.eth[0].mac packetDropInterfaceDown:count 0
scalar PIM_SM_Network.RP.eth[0].mac packetDropInterfaceDown:sum(packetBytes) 0
scalar PIM_SM_Network.RP.eth[0].mac packetDropNotAddressedToUs:count 0
scalar PIM_SM_Network.RP.eth[0].mac packetDropNotAddressedToUs:sum(packetBytes) 0
scalar PIM_SM_Network.RP.eth[0] packetDropInterfaceDown:count 0
scalar PIM_SM_Network.RP.eth[0] packetDropInterfaceDown:sum(packetBytes) 0
scalar PIM_SM_Network.RP.eth[0] packetDropNoCarrier:count 0
scalar PIM_SM_Network.RP.eth[0] packetDropNoCarrier:sum(packetBytes) 0
scalar PIM_SM_Network.RP.eth[1].queue queueLength:last 0
scalar PIM_SM_Network.RP.eth[1].queue queueLength:max 0
scalar PIM_SM_Network.RP.eth[1].queue queueLength:timeavg 0
scalar PIM_SM_Network.RP.eth[1].queue queueBitLength:last 0
scalar PIM_SM_Network.RP.eth[1].queue queueBitLength:max 0
scalar PIM_SM_Network.RP.eth[1].queue queueBitLength:timeavg 0
scalar PIM_SM_Network.RP.eth[1].queue outgoingPackets:count 17
scalar PIM_SM_Network.RP.eth[1].queue outgoingPacketLengths:sum 11856
scalar PIM_SM_Network.RP.eth[1].queue incomingPackets:count 17
scalar PIM_SM_Network.RP.eth[1].queue incomingPacketLengths:sum 11856
scalar PIM_SM_Network.RP.eth[1].queue droppedPacketsQueueOverflow:count 0
scalar PIM_SM_Network.RP.eth[1].queue droppedPacketLengthsQueueOverflow:sum 0
scalar PIM_SM_Network.RP.eth[1].mac "simulated time" 300
scalar PIM_SM_Network.RP.eth[1].mac full-duplex 1
scalar PIM_SM_Network.RP.eth[1].mac "frames/sec sent" 0.056666666666666664
scalar PIM_SM_Network.RP.eth[1].mac "frames/sec rcvd" 0.059999999999999998
scalar PIM_SM_Network.RP.eth[1].mac "bits/sec sent" 42.133333333333333
scalar PIM_SM_Network.RP.eth[1].mac "bits/sec rcvd" 31.573333333333334
scalar PIM_SM_Network.RP.eth[1].mac "rx channel idle (%)" 99.999964586666664
scalar PIM_SM_Network.RP.eth[1].mac "rx channel utilization (%)" 3.5413333333333335e-05
scalar PIM_SM_Network.RP.eth[1].mac rxPausePkUnits:count 0
scalar PIM_SM_Network.RP.eth[1].mac rxPausePkUnits:sum 0
scalar PIM_SM_Network.RP.eth[1].mac txPausePkUnits:count 0
scalar PIM_SM_Network.RP.eth[1].mac txPausePkUnits:sum 0
scalar PIM_SM_Network.RP.eth[1].mac rxPkOk:count 18
scalar PIM_SM_Network.RP.eth[1].mac rxPkOk:sum(packetBytes) 1184
scalar PIM_SM_Network.RP.eth[1].mac txPk:count 17
scalar PIM_SM_Network.RP.eth[1].mac txPk:sum(packetBytes) 1580
scalar PIM_SM_Network.RP.eth[1].mac packetReceivedFromUpper:count 17
scalar PIM_SM_Network.RP.eth[1].mac packetReceivedFromUpper:sum(packetBytes) 1482
scalar PIM_SM_Network.RP.eth[1].mac passedUpPk:count 18
scalar PIM_SM_Network.RP.eth[1].mac passedUpPk:sum(packetBytes) 1184
scalar PIM_SM_Network.RP.eth[1].mac packetDropIncorrectlyReceived:count 0
scalar PIM_SM_Network.RP.eth[1].mac packetDropIncorrectlyReceived:sum(packetBytes) 0
scalar PIM_SM_Network.RP.eth[1].mac packetDropInterfaceDown:count 0
scalar PIM_SM_Network.RP.eth[1].mac packetDropInterfaceDown:sum(packetBytes) 0
scalar PIM_SM_Network.RP.eth[1].mac packetDropNotAddressedToUs:count 0
scalar PIM_SM_Network.RP.eth[1].mac packetDropNotAddressedToUs:sum(packetBytes) 0
scalar PIM_SM_Network.RP.eth[1] packetDropInterfaceDown:count 0
scalar PIM_SM_Network.RP.eth[1] packetDropInterfaceDown:sum(packetBytes) 0
scalar PIM_SM_Network.RP.eth[1] packetDropNoCarrier:count 0
scalar PIM_SM_Network.RP.eth[1] packetDropNoCarrier:sum(packetBytes) 0
scalar PIM_SM_Network.RP.eth[2].queue queueLength:last 0
scalar PIM_SM_Network.RP.eth[2].queue queueLength:max 0
scalar PIM_SM_Network.RP.eth[2].queue queueLength:timeavg 0
scalar PIM_SM_Network.RP.eth[2].queue queueBitLength:last 0
scalar PIM_SM_Network.RP.eth[2].queue queueBitLength:max 0
scalar PIM_SM_Network.RP.eth[2].queue queueBitLength:timeavg 0
scalar PIM_SM_Network.RP.eth[2].queue outgoingPackets:count 14
scalar PIM_SM_Network.RP.eth[2].queue outgoingPacketLengths:sum 5952
scalar PIM_SM_Network.RP.eth[2].queue incomingPackets:count 14
scalar PIM_SM_Network.RP.eth[2].queue incomingPacketLengths:sum 5952
scalar PIM_SM_Network.RP.eth[2].queue droppedPacketsQueueOverflow:count 0
scalar PIM_SM_Network.RP.eth[2].queue droppedPacketLengthsQueueOverflow:sum 0
scalar PIM_SM_Network.RP.eth[2].mac "simulated time" 300
scalar PIM_SM_Network.RP.eth[2].mac full-duplex 1
scalar PIM_SM_Network.RP.eth[2].mac "frames/sec sent" 0
scalar PIM_SM_Network.RP.eth[2].mac "frames/sec rcvd" 0
scalar PIM_SM_Network.RP.eth[2].mac "bits/sec sent" 0
scalar PIM_SM_Network.RP.eth[2].mac "bits/sec rcvd" 0
scalar PIM_SM_Network.RP.eth[2].mac "rx channel idle (%)" 100
scalar PIM_SM_Network.RP.eth[2].mac "rx channel utilization (%)" 0
scalar PIM_SM_Network.RP.eth[2].mac rxPausePkUnits:count 0
scalar PIM_SM_Network.RP.eth[2].mac rxPausePkUnits:sum 0
scalar PIM_SM_Network.RP.eth[2].mac txPausePkUnits:count 0
scalar PIM_SM_Network.RP.eth[2].mac txPausePkUnits:sum 0
scalar PIM_SM_Network.RP.eth[2].mac rxPkOk:count 0
scalar PIM_SM_Network.RP.eth[2].mac rxPkOk:sum(packetBytes) 0
scalar PIM_SM_Network.RP.eth[2].mac txPk:count 0
scalar PIM_SM_Network.RP.eth[2].mac txPk:sum(packetBytes) 0
scalar PIM_SM_Network.RP.eth[2].mac packetReceivedFromUpper:count 14
scalar PIM_SM_Network.RP.eth[2].mac packetReceivedFromUpper:sum(packetBytes) 744
scalar PIM_SM_Network.RP.eth[2].mac passedUpPk:count 0
scalar PIM_SM_Network.RP.eth[2].mac passedUpPk:sum(packetBytes) 0
scalar PIM_SM_Network.RP.eth[2].mac packetDropIncorrectlyReceived:count 0
scalar PIM_SM_Network.RP.eth[2].mac packetDropIncorrectlyReceived:sum(packetBytes) 0
scalar PIM_SM_Network.RP.eth[2].mac packetDropInterfaceDown:count 14
scalar PIM_SM_Network.RP.eth[2].mac packetDropInterfaceDown:sum(packetBytes) 744
scalar PIM_SM_Network.RP.eth[2].mac packetDropNotAddressedToUs:count 0
scalar PIM_SM_Network.RP.eth[2].mac packetDropNotAddressedToUs:sum(packetBytes) 0
scalar PIM_SM_Network.RP.eth[2] packetDropInterfaceDown:count 14
scalar PIM_SM_Network.RP.eth[2] packetDropInterfaceDown:sum(packetBytes) 744
scalar PIM_SM_Network.RP.eth[2] packetDropNoCarrier:count 0
scalar PIM_SM_Network.RP.eth[2] packetDropNoCarrier:sum(packetBytes) 0
scalar PIM_SM_Network.RP.ipv4.ip packetDropAddressResolutionFailed:count 0
scalar PIM_SM_Network.RP.ipv4.ip packetDropAddressResolutionFailed:sum(packetBytes) 0
scalar PIM_SM_Network.RP.ipv4.ip packetDropHopLimitReached:count 0
scalar PIM_SM_Network.RP.ipv4.ip packetDropHopLimitReached:sum(packetBytes) 0
scalar PIM_SM_Network.RP.ipv4.ip packetDropForwardingDisabled:count 0
scalar PIM_SM_Network.RP.ipv4.ip packetDropForwardingDisabled:sum(packetBytes) 0
scalar PIM_SM_Network.RP.ipv4.ip packetDropLifetimeExpired:count 0
scalar PIM_SM_Network.RP.ipv4.ip packetDropLifetimeExpired:sum(packetBytes) 0
scalar PIM_SM_Network.RP.ipv4.ip packetDropNoInterfaceFound:count 0
scalar PIM_SM_Network.RP.ipv4.ip packetDropNoInterfaceFound:sum(packetBytes) 0
scalar PIM_SM_Network.RP.ipv4.ip packetDropNoRouteFound:count 0
scalar PIM_SM_Network.RP.ipv4.ip packetDropNoRouteFound:sum(packetBytes) 0
scalar PIM_SM_Network.RP.ipv4.ip packetDropUndefined:count 0
scalar PIM_SM_Network.RP.ipv4.ip packetDropUndefined:sum(packetBytes) 0
scalar PIM_SM_Network.RP.ipv4.arp arpResolutionFailed:count 0
scalar PIM_SM_Network.RP.ipv4.arp arpResolutionCompleted:count 3
scalar PIM_SM_Network.RP.ipv4.arp arpResolutionInitiated:count 0
scalar PIM_SM_Network.RP.ipv4.arp arpReplySent:count 3
scalar PIM_SM_Network.RP.ipv4.arp arpReplySent:sum(packetBytes) 84
scalar PIM_SM_Network.RP.ipv4.arp arpRequestSent:count 0
scalar PIM_SM_Network.RP.ipv4.arp arpRequestSent:sum(packetBytes) 0
scalar PIM_SM_Network.DR_S2.ethernet pauseSent:count 0
scalar PIM_SM_Network.DR_S2.ethernet pauseSent:sum 0
scalar PIM_SM_Network.DR_S2.ethernet decapPk:count 65
scalar PIM_SM_Network.DR_S2.ethernet decapPk:sum(packetBytes) 3632
scalar PIM_SM_Network.DR_S2.ethernet encapPk:count 76
scalar PIM_SM_Network.DR_S2.ethernet encapPk:sum(packetBytes) 3490
scalar PIM_SM_Network.DR_S2.lo[0].lo rcvdPkFromHl:count 0
scalar PIM_SM_Network.DR_S2.lo[0].lo rcvdPkFromHl:sum(packetBytes) 0
scalar PIM_SM_Network.DR_S2.lo[0].lo passedUpPk:count 0
scalar PIM_SM_Network.DR_S2.lo[0].lo passedUpPk:sum(packetBytes) 0
scalar PIM_SM_Network.DR_S2.lo[0] packetDropInterfaceDown:count 0
scalar PIM_SM_Network.DR_S2.lo[0] packetDropInterfaceDown:sum(packetBytes) 0
scalar PIM_SM_Network.DR_S2.lo[0] packetDropNoCarrier:count 0
scalar PIM_SM_Network.DR_S2.lo[0] packetDropNoCarrier:sum(packetBytes) 0
scalar PIM_SM_Network.DR_S2.eth[0].queue queueLength:last 0
scalar PIM_SM_Network.DR_S2.eth[0].queue queueLength:max 0
scalar PIM_SM_Network.DR_S2.eth[0].queue queueLength:timeavg 0
scalar PIM_SM_Network.DR_S2.eth[0].queue queueBitLength:last 0
scalar PIM_SM_Network.DR_S2.eth[0].queue queueBitLength:max 0
scalar PIM_SM_Network.DR_S2.eth[0].queue queueBitLength:timeavg 0
scalar PIM_SM_Network.DR_S2.eth[0].queue outgoingPackets:count 26
scalar PIM_SM_Network.DR_S2.eth[0].queue outgoingPacketLengths:sum 11600
scalar PIM_SM_Network.DR_S2.eth[0].queue incomingPackets:count 26
scalar PIM_SM_Network.DR_S2.eth[0].queue incomingPacketLengths:sum 11600
scalar PIM_SM_Network.DR_S2.eth[0].queue droppedPacketsQueueOverflow:count 0
scalar PIM_SM_Network.DR_S2.eth[0].queue droppedPacketLengthsQueueOverflow:sum 0
scalar PIM_SM_Network.DR_S2.eth[0].mac "simulated time" 300
scalar PIM_SM_Network.DR_S2.eth[0].mac full-duplex 1
scalar PIM_SM_Network.DR_S2.eth[0].mac "frames/sec sent" 0.08666666666666667
scalar PIM_SM_Network.DR_S2.eth[0].mac "frames/sec rcvd" 0.083333333333333329
scalar PIM_SM_Network.DR_S2.eth[0].mac "bits/sec sent" 45.226666666666667
scalar PIM_SM_Network.DR_S2.eth[0].mac "bits/sec rcvd" 58.93333333333333
scalar PIM_SM_Network.DR_S2.eth[0].mac "rx channel idle (%)" 99.999935733333331
scalar PIM_SM_Network.DR_S2.eth[0].mac "rx channel utilization (%)" 6.4266666666666666e-05
scalar PIM_SM_Network.DR_S2.eth[0].mac rxPausePkUnits:count 0
scalar PIM_SM_Network.DR_S2.eth[0].mac rxPausePkUnits:sum 0
scalar PIM_SM_Network.DR_S2.eth[0].mac txPausePkUnits:count 0
scalar PIM_SM_Network.DR_S2.eth[0].mac txPausePkUnits:sum 0
scalar PIM_SM_Network.DR_S2.eth[0].mac rxPkOk:count 25
scalar PIM_SM_Network.DR_S2.eth[0].mac rxPkOk:sum(packetBytes) 2210
scalar PIM_SM_Network.DR_S2.eth[0].mac txPk:count 26
scalar PIM_SM_Network.DR_S2.eth[0].mac txPk:sum(packetBytes) 1696
scalar PIM_SM_Network.DR_S2.eth[0].mac packetReceivedFromUpper:count 26
scalar PIM_SM_Network.DR_S2.eth[0].mac packetReceivedFromUpper:sum(packetBytes) 1450
scalar PIM_SM_Network.DR_S2.eth[0].mac passedUpPk:count 25
scalar PIM_SM_Network.DR_S2.eth[0].mac passedUpPk:sum(packetBytes) 2210
scalar PIM_SM_Network.DR_S2.eth[0].mac packetDropIncorrectlyReceived:count 0
scalar PIM_SM_Network.DR_S2.eth[0].mac packetDropIncorrectlyReceived:sum(packetBytes) 0
scalar PIM_SM_Network.DR_S2.eth[0].mac packetDropInterfaceDown:count 0
scalar PIM_SM_Network.DR_S2.eth[0].mac packetDropInterfaceDown:sum(packetBytes) 0
scalar PIM_SM_Network.DR_S2.eth[0].mac packetDropNotAddressedToUs:count 0
scalar PIM_SM_Network.DR_S2.eth[0].mac packetDropNotAddressedToUs:sum(packetBytes) 0
scalar PIM_SM_Network.DR_S2.eth[0] packetDropInterfaceDown:count 0
scalar PIM_SM_Network.DR_S2.eth[0] packetDropInterfaceDown:sum(packetBytes) 0
scalar PIM_SM_Network.DR_S2.eth[0] packetDropNoCarrier:count 0
scalar PIM_SM_Network.DR_S2.eth[0] packetDropNoCarrier:sum(packetBytes) 0
scalar PIM_SM_Network.DR_S2.eth[1].queue queueLength:last 0
scalar PIM_SM_Network.DR_S2.eth[1].queue queueLength:max 0
scalar PIM_SM_Network.DR_S2.eth[1].queue queueLength:timeavg 0
scalar PIM_SM_Network.DR_S2.eth[1].queue queueBitLength:last 0
scalar PIM_SM_Network.DR_S2.eth[1].queue queueBitLength:max 0
scalar PIM_SM_Network.DR_S2.eth[1].queue queueBitLength:timeavg 0
scalar PIM_SM_Network.DR_S2.eth[1].queue outgoingPackets:count 11
scalar PIM_SM_Network.DR_S2.eth[1].queue outgoingPacketLengths:sum 4848
scalar PIM_SM_Network.DR_S2.eth[1].queue incomingPackets:count 11
scalar PIM_SM_Network.DR_S2.eth[1].queue incomingPacketLengths:sum 4848
scalar PIM_SM_Network.DR_S2.eth[1].queue droppedPacketsQueueOverflow:count 0
scalar PIM_SM_Network.DR_S2.eth[1].queue droppedPacketLengthsQueueOverflow:sum 0
scalar PIM_SM_Network.DR_S2.eth[1].mac "simulated time" 300
scalar PIM_SM_Network.DR_S2.eth[1].mac full-duplex 1
scalar PIM_SM_Network.DR_S2.eth[1].mac "frames/sec sent" 0.036666666666666667
scalar PIM_SM_Network.DR_S2.eth[1].mac "frames/sec rcvd" 0.046666666666666669
scalar PIM_SM_Network.DR_S2.eth[1].mac "bits/sec sent" 18.773333333333333
scalar PIM_SM_Network.DR_S2.eth[1].mac "bits/sec rcvd" 23.893333333333334
scalar PIM_SM_Network.DR_S2.eth[1].mac "rx channel idle (%)" 99.999973119999993
scalar PIM_SM_Network.DR_S2.eth[1].mac "rx channel utilization (%)" 2.6880000000000004e-05
scalar PIM_SM_Network.DR_S2.eth[1].mac rxPausePkUnits:count 0
scalar PIM_SM_Network.DR_S2.eth[1].mac rxPausePkUnits:sum 0
scalar PIM_SM_Network.DR_S2.eth[1].mac txPausePkUnits:count 0
scalar PIM_SM_Network.DR_S2.eth[1].mac txPausePkUnits:sum 0
scalar PIM_SM_Network.DR_S2.eth[1].mac rxPkOk:count 14
scalar PIM_SM_Network.DR_S2.eth[1].mac rxPkOk:sum(packetBytes) 896
scalar PIM_SM_Network.DR_S2.eth[1].mac txPk:count 11
scalar PIM_SM_Network.DR_S2.eth[1].mac txPk:sum(packetBytes) 704
scalar PIM_SM_Network.DR_S2.eth[1].mac packetReceivedFromUpper:count 11
scalar PIM_SM_Network.DR_S2.eth[1].mac packetReceivedFromUpper:sum(packetBytes) 606
scalar PIM_SM_Network.DR_S2.eth[1].mac passedUpPk:count 14
scalar PIM_SM_Network.DR_S2.eth[1].mac passedUpPk:sum(packetBytes) 896
scalar PIM_SM_Network.DR_S2.eth[1].mac packetDropIncorrectlyReceived:count 0
scalar PIM_SM_Network.DR_S2.eth[1].mac packetDropIncorrectlyReceived:sum(packetBytes) 0
scalar PIM_SM_Network.DR_S2.eth[1].mac packetDropInterfaceDown:count 0
scalar PIM_SM_Network.DR_S2.eth[1].mac packetDropInterfaceDown:sum(packetBytes) 0
scalar PIM_SM_Network.DR_S2.eth[1].mac packetDropNotAddressedToUs:count 0
scalar PIM_SM_Network.DR_S2.eth[1].mac packetDropNotAddressedToUs:sum(packetBytes) 0
scalar PIM_SM_Network.DR_S2.eth[1] packetDropInterfaceDown:count 0
scalar PIM_SM_Network.DR_S2.eth[1] packetDropInterfaceDown:sum(packetBytes) 0
scalar PIM_SM_Network.DR_S2.eth[1] packetDropNoCarrier:count 0
scalar PIM_SM_Network.DR_S2.eth[1] packetDropNoCarrier:sum(packetBytes) 0
scalar PIM_SM_Network.DR_S2.eth[2].queue queueLength:last 0
scalar PIM_SM_Network.DR_S2.eth[2].queue queueLength:max 0
scalar PIM_SM_Network.DR_S2.eth[2].queue queueLength:timeavg 0
scalar PIM_SM_Network.DR_S2.eth[2].queue queueBitLength:last 0
scalar PIM_SM_Network.DR_S2.eth[2].queue queueBitLength:max 0
scalar PIM_SM_Network.DR_S2.eth[2].queue queueBitLength:timeavg 0
scalar PIM_SM_Network.DR_S2.eth[2].queue outgoingPackets:count 25
scalar PIM_SM_Network.DR_S2.eth[2].queue outgoingPacketLengths:sum 16464
scalar PIM_SM_Network.DR_S2.eth[2].queue incomingPackets:count 25
scalar PIM_SM_Network.DR_S2.eth[2].queue incomingPacketLengths:sum 16464
scalar PIM_SM_Network.DR_S2.eth[2].queue droppedPacketsQueueOverflow:count 0
scalar PIM_SM_Network.DR_S2.eth[2].queue droppedPacketLengthsQueueOverflow:sum 0
scalar PIM_SM_Network.DR_S2.eth[2].mac "simulated time" 300
scalar PIM_SM_Network.DR_S2.eth[2].mac full-duplex 1
scalar PIM_SM_Network.DR_S2.eth[2].mac "frames/sec sent" 0.083333333333333329
scalar PIM_SM_Network.DR_S2.eth[2].mac "frames/sec rcvd" 0.08666666666666667
scalar PIM_SM_Network.DR_S2.eth[2].mac "bits/sec sent" 58.93333333333333
scalar PIM_SM_Network.DR_S2.eth[2].mac "bits/sec rcvd" 45.226666666666667
scalar PIM_SM_Network.DR_S2.eth[2].mac "rx channel idle (%)" 99.999949226666658
scalar PIM_SM_Network.DR_S2.eth[2].mac "rx channel utilization (%)" 5.0773333333333331e-05
scalar PIM_SM_Network.DR_S2.eth[2].mac rxPausePkUnits:count 0
scalar PIM_SM_Network.DR_S2.eth[2].mac rxPausePkUnits:sum 0
scalar PIM_SM_Network.DR_S2.eth[2].mac txPausePkUnits:count 0
scalar PIM_SM_Network.DR_S2.eth[2].mac txPausePkUnits:sum 0
scalar PIM_SM_Network.DR_S2.eth[2].mac rxPkOk:count 26
scalar PIM_SM_Network.DR_S2.eth[2].mac rxPkOk:sum(packetBytes) 1696
scalar PIM_SM_Network.DR_S2.eth[2].mac txPk:count 25
scalar PIM_SM_Network.DR_S2.eth[2].mac txPk:sum(packetBytes) 2210
scalar PIM_SM_Network.DR_S2.eth[2].mac packetReceivedFromUpper:count 25
scalar PIM_SM_Network.DR_S2.eth[2].mac packetReceivedFromUpper:sum(packetBytes) 2058
scalar PIM_SM_Network.DR_S2.eth[2].mac passedUpPk:count 26
scalar PIM_SM_Network.DR_S2.eth[2].mac passedUpPk:sum(packetBytes) 1696
scalar PIM_SM_Network.DR_S2.eth[2].mac packetDropIncorrectlyReceived:count 0
scalar PIM_SM_Network.DR_S2.eth[2].mac packetDropIncorrectlyReceived:sum(packetBytes) 0
scalar PIM_SM_Network.DR_S2.eth[2].mac packetDropInterfaceDown:count 0
scalar PIM_SM_Network.DR_S2.eth[2].mac packetDropInterfaceDown:sum(packetBytes) 0
scalar PIM_SM_Network.DR_S2.eth[2].mac packetDropNotAddressedToUs:count 0
scalar PIM_SM_Network.DR_S2.eth[2].mac packetDropNotAddressedToUs:sum(packetBytes) 0
scalar PIM_SM_Network.DR_S2.eth[2] packetDropInterfaceDown:count 0
scalar PIM_SM_Network.DR_S2.eth[2] packetDropInterfaceDown:sum(packetBytes) 0
scalar PIM_SM_Network.DR_S2.eth[2] packetDropNoCarrier:count 0
scalar PIM_SM_Network.DR_S2.eth[2] packetDropNoCarrier:sum(packetBytes) 0
scalar PIM_SM_Network.DR_S2.eth[3].queue queueLength:last 0
scalar PIM_SM_Network.DR_S2.eth[3].queue queueLength:max 0
scalar PIM_SM_Network.DR_S2.eth[3].queue queueLength:timeavg 0
scalar PIM_SM_Network.DR_S2.eth[3].queue queueBitLength:last 0
scalar PIM_SM_Network.DR_S2.eth[3].queue queueBitLength:max 0
scalar PIM_SM_Network.DR_S2.eth[3].queue queueBitLength:timeavg 0
scalar PIM_SM_Network.DR_S2.eth[3].queue outgoingPackets:count 14
scalar PIM_SM_Network.DR_S2.eth[3].queue outgoingPacketLengths:sum 5952
scalar PIM_SM_Network.DR_S2.eth[3].queue incomingPackets:count 14
scalar PIM_SM_Network.DR_S2.eth[3].queue incomingPacketLengths:sum 5952
scalar PIM_SM_Network.DR_S2.eth[3].queue droppedPacketsQueueOverflow:count 0
scalar PIM_SM_Network.DR_S2.eth[3].queue droppedPacketLengthsQueueOverflow:sum 0
scalar PIM_SM_Network.DR_S2.eth[3].mac "simulated time" 300
scalar PIM_SM_Network.DR_S2.eth[3].mac full-duplex 1
scalar PIM_SM_Network.DR_S2.eth[3].mac "frames/sec sent" 0.046666666666666669
scalar PIM_SM_Network.DR_S2.eth[3].mac "frames/sec rcvd" 0
scalar PIM_SM_Network.DR_S2.eth[3].mac "bits/sec sent" 23.893333333333334
scalar PIM_SM_Network.DR_S2.eth[3].mac "bits/sec rcvd" 0
scalar PIM_SM_Network.DR_S2.eth[3].mac "rx channel idle (%)" 100
scalar PIM_SM_Network.DR_S2.eth[3].mac "rx channel utilization (%)" 0
scalar PIM_SM_Network.DR_S2.eth[3].mac rxPausePkUnits:count 0
scalar PIM_SM_Network.DR_S2.eth[3].mac rxPausePkUnits:sum 0
scalar PIM_SM_Network.DR_S2.eth[3].mac txPausePkUnits:count 0
scalar PIM_SM_Network.DR_S2.eth[3].mac txPausePkUnits:sum 0
scalar PIM_SM_Network.DR_S2.eth[3].mac rxPkOk:count 0
scalar PIM_SM_Network.DR_S2.eth[3].mac rxPkOk:sum(packetBytes) 0
scalar PIM_SM_Network.DR_S2.eth[3].mac txPk:count 14
scalar PIM_SM_Network.DR_S2.eth[3].mac txPk:sum(packetBytes) 896
scalar PIM_SM_Network.DR_S2.eth[3].mac packetReceivedFromUpper:count 14
scalar PIM_SM_Network.DR_S2.eth[3].mac packetReceivedFromUpper:sum(packetBytes) 744
scalar PIM_SM_Network.DR_S2.eth[3].mac passedUpPk:count 0
scalar PIM_SM_Network.DR_S2.eth[3].mac passedUpPk:sum(packetBytes) 0
scalar PIM_SM_Network.DR_S2.eth[3].mac packetDropIncorrectlyReceived:count 0
scalar PIM_SM_Network.DR_S2.eth[3].mac packetDropIncorrectlyReceived:sum(packetBytes) 0
scalar PIM_SM_Network.DR_S2.eth[3].mac packetDropInterfaceDown:count 0
scalar PIM_SM_Network.DR_S2.eth[3].mac packetDropInterfaceDown:sum(packetBytes) 0
scalar PIM_SM_Network.DR_S2.eth[3].mac packetDropNotAddressedToUs:count 0
scalar PIM_SM_Network.DR_S2.eth[3].mac packetDropNotAddressedToUs:sum(packetBytes) 0
scalar PIM_SM_Network.DR_S2.eth[3] packetDropInterfaceDown:count 0
scalar PIM_SM_Network.DR_S2.eth[3] packetDropInterfaceDown:sum(packetBytes) 0
scalar PIM_SM_Network.DR_S2.eth[3] packetDropNoCarrier:count 0
scalar PIM_SM_Network.DR_S2.eth[3] packetDropNoCarrier:sum(packetBytes) 0
scalar PIM_SM_Network.DR_S2.ipv4.ip packetDropAddressResolutionFailed:count 0
scalar PIM_SM_Network.DR_S2.ipv4.ip packetDropAddressResolutionFailed:sum(packetBytes) 0
scalar PIM_SM_Network.DR_S2.ipv4.ip packetDropHopLimitReached:count 0
scalar PIM_SM_Network.DR_S2.ipv4.ip packetDropHopLimitReached:sum(packetBytes) 0
scalar PIM_SM_Network.DR_S2.ipv4.ip packetDropForwardingDisabled:count 0
scalar PIM_SM_Network.DR_S2.ipv4.ip packetDropForwardingDisabled:sum(packetBytes) 0
scalar PIM_SM_Network.DR_S2.ipv4.ip packetDropLifetimeExpired:count 0
scalar PIM_SM_Network.DR_S2.ipv4.ip packetDropLifetimeExpired:sum(packetBytes) 0
scalar PIM_SM_Network.DR_S2.ipv4.ip packetDropNoInterfaceFound:count 0
scalar PIM_SM_Network.DR_S2.ipv4.ip packetDropNoInterfaceFound:sum(packetBytes) 0
scalar PIM_SM_Network.DR_S2.ipv4.ip packetDropNoRouteFound:count 0
scalar PIM_SM_Network.DR_S2.ipv4.ip packetDropNoRouteFound:sum(packetBytes) 0
scalar PIM_SM_Network.DR_S2.ipv4.ip packetDropUndefined:count 0
scalar PIM_SM_Network.DR_S2.ipv4.ip packetDropUndefined:sum(packetBytes) 0
scalar PIM_SM_Network.DR_S2.ipv4.arp arpResolutionFailed:count 0
scalar PIM_SM_Network.DR_S2.ipv4.arp arpResolutionCompleted:count 6
scalar PIM_SM_Network.DR_S2.ipv4.arp arpResolutionInitiated:count 3
scalar PIM_SM_Network.DR_S2.ipv4.arp arpReplySent:count 3
scalar PIM_SM_Network.DR_S2.ipv4.arp arpReplySent:sum(packetBytes) 84
scalar PIM_SM_Network.DR_S2.ipv4.arp arpRequestSent:count 3
scalar PIM_SM_Network.DR_S2.ipv4.arp arpRequestSent:sum(packetBytes) 84
scalar PIM_SM_Network.DR_S1.ethernet pauseSent:count 0
scalar PIM_SM_Network.DR_S1.ethernet pauseSent:sum 0
scalar PIM_SM_Network.DR_S1.ethernet decapPk:count 36
scalar PIM_SM_Network.DR_S1.ethernet decapPk:sum(packetBytes) 2508
scalar PIM_SM_Network.DR_S1.ethernet encapPk:count 53
scalar PIM_SM_Network.DR_S1.ethernet encapPk:sum(packetBytes) 2592
scalar PIM_SM_Network.DR_S1.lo[0].lo rcvdPkFromHl:count 0
scalar PIM_SM_Network.DR_S1.lo[0].lo rcvdPkFromHl:sum(packetBytes) 0
scalar PIM_SM_Network.DR_S1.lo[0].lo passedUpPk:count 0
scalar PIM_SM_Network.DR_S1.lo[0].lo passedUpPk:sum(packetBytes) 0
scalar PIM_SM_Network.DR_S1.lo[0] packetDropInterfaceDown:count 0
scalar PIM_SM_Network.DR_S1.lo[0] packetDropInterfaceDown:sum(packetBytes) 0
scalar PIM_SM_Network.DR_S1.lo[0] packetDropNoCarrier:count 0
scalar PIM_SM_Network.DR_S1.lo[0] packetDropNoCarrier:sum(packetBytes) 0
scalar PIM_SM_Network.DR_S1.eth[0].queue queueLength:last 0
scalar PIM_SM_Network.DR_S1.eth[0].queue queueLength:max 0
scalar PIM_SM_Network.DR_S1.eth[0].queue queueLength:timeavg 0
scalar PIM_SM_Network.DR_S1.eth[0].queue queueBitLength:last 0
scalar PIM_SM_Network.DR_S1.eth[0].queue queueBitLength:max 0
scalar PIM_SM_Network.DR_S1.eth[0].queue queueBitLength:timeavg 0
scalar PIM_SM_Network.DR_S1.eth[0].queue outgoingPackets:count 14
scalar PIM_SM_Network.DR_S1.eth[0].queue outgoingPacketLengths:sum 5952
scalar PIM_SM_Network.DR_S1.eth[0].queue incomingPackets:count 14
scalar PIM_SM_Network.DR_S1.eth[0].queue incomingPacketLengths:sum 5952
scalar PIM_SM_Network.DR_S1.eth[0].queue droppedPacketsQueueOverflow:count 0
scalar PIM_SM_Network.DR_S1.eth[0].queue droppedPacketLengthsQueueOverflow:sum 0
scalar PIM_SM_Network.DR_S1.eth[0].mac "simulated time" 300
scalar PIM_SM_Network.DR_S1.eth[0].mac full-duplex 1
scalar PIM_SM_Network.DR_S1.eth[0].mac "frames/sec sent" 0.046666666666666669
scalar PIM_SM_Network.DR_S1.eth[0].mac "frames/sec rcvd" 0.033333333333333333
scalar PIM_SM_Network.DR_S1.eth[0].mac "bits/sec sent" 23.893333333333334
scalar PIM_SM_Network.DR_S1.eth[0].mac "bits/sec rcvd" 38.93333333333333
scalar PIM_SM_Network.DR_S1.eth[0].mac "rx channel idle (%)" 99.999958933333332
scalar PIM_SM_Network.DR_S1.eth[0].mac "rx channel utilization (%)" 4.1066666666666671e-05
scalar PIM_SM_Network.DR_S1.eth[0].mac rxPausePkUnits:count 0
scalar PIM_SM_Network.DR_S1.eth[0].mac rxPausePkUnits:sum 0
scalar PIM_SM_Network.DR_S1.eth[0].mac txPausePkUnits:count 0
scalar PIM_SM_Network.DR_S1.eth[0].mac txPausePkUnits:sum 0
scalar PIM_SM_Network.DR_S1.eth[0].mac rxPkOk:count 10
scalar PIM_SM_Network.DR_S1.eth[0].mac rxPkOk:sum(packetBytes) 1460
scalar PIM_SM_Network.DR_S1.eth[0].mac txPk:count 14
scalar PIM_SM_Network.DR_S1.eth[0].mac txPk:sum(packetBytes) 896
scalar PIM_SM_Network.DR_S1.eth[0].mac packetReceivedFromUpper:count 14
scalar PIM_SM_Network.DR_S1.eth[0].mac packetReceivedFromUpper:sum(packetBytes) 744
scalar PIM_SM_Network.DR_S1.eth[0].mac passedUpPk:count 10
scalar PIM_SM_Network.DR_S1.eth[0].mac passedUpPk:sum(packetBytes) 1460
scalar PIM_SM_Network.DR_S1.eth[0].mac packetDropIncorrectlyReceived:count 0
scalar PIM_SM_Network.DR_S1.eth[0].mac packetDropIncorrectlyReceived:sum(packetBytes) 0
scalar PIM_SM_Network.DR_S1.eth[0].mac packetDropInterfaceDown:count 0
scalar PIM_SM_Network.DR_S1.eth[0].mac packetDropInterfaceDown:sum(packetBytes) 0
scalar PIM_SM_Network.DR_S1.eth[0].mac packetDropNotAddressedToUs:count 0
scalar PIM_SM_Network.DR_S1.eth[0].mac packetDropNotAddressedToUs:sum(packetBytes) 0
scalar PIM_SM_Network.DR_S1.eth[0] packetDropInterfaceDown:count 0
scalar PIM_SM_Network.DR_S1.eth[0] packetDropInterfaceDown:sum(packetBytes) 0
scalar PIM_SM_Network.DR_S1.eth[0] packetDropNoCarrier:count 0
scalar PIM_SM_Network.DR_S1.eth[0] packetDropNoCarrier:sum(packetBytes) 0
scalar PIM_SM_Network.DR_S1.eth[1].queue queueLength:last 0
scalar PIM_SM_Network.DR_S1.eth[1].queue queueLength:max 0
scalar PIM_SM_Network.DR_S1.eth[1].queue queueLength:timeavg 0
scalar PIM_SM_Network.DR_S1.eth[1].queue queueBitLength:last 0
scalar PIM_SM_Network.DR_S1.eth[1].queue queueBitLength:max 0
scalar PIM_SM_Network.DR_S1.eth[1].queue queueBitLength:timeavg 0
scalar PIM_SM_Network.DR_S1.eth[1].queue outgoingPackets:count 25
scalar PIM_SM_Network.DR_S1.eth[1].queue outgoingPacketLengths:sum 16464
scalar PIM_SM_Network.DR_S1.eth[1].queue incomingPackets:count 25
scalar PIM_SM_Network.DR_S1.eth[1].queue incomingPacketLengths:sum 16464
scalar PIM_SM_Network.DR_S1.eth[1].queue droppedPacketsQueueOverflow:count 0
scalar PIM_SM_Network.DR_S1.eth[1].queue droppedPacketLengthsQueueOverflow:sum 0
scalar PIM_SM_Network.DR_S1.eth[1].mac "simulated time" 300
scalar PIM_SM_Network.DR_S1.eth[1].mac full-duplex 1
scalar PIM_SM_Network.DR_S1.eth[1].mac "frames/sec sent" 0.083333333333333329
scalar PIM_SM_Network.DR_S1.eth[1].mac "frames/sec rcvd" 0.08666666666666667
scalar PIM_SM_Network.DR_S1.eth[1].mac "bits/sec sent" 58.93333333333333
scalar PIM_SM_Network.DR_S1.eth[1].mac "bits/sec rcvd" 45.226666666666667
scalar PIM_SM_Network.DR_S1.eth[1].mac "rx channel idle (%)" 99.999949226666658
scalar PIM_SM_Network.DR_S1.eth[1].mac "rx channel utilization (%)" 5.0773333333333331e-05
scalar PIM_SM_Network.DR_S1.eth[1].mac rxPausePkUnits:count 0
scalar PIM_SM_Network.DR_S1.eth[1].mac rxPausePkUnits:sum 0
scalar PIM_SM_Network.DR_S1.eth[1].mac txPausePkUnits:count 0
scalar PIM_SM_Network.DR_S1.eth[1].mac txPausePkUnits:sum 0
scalar PIM_SM_Network.DR_S1.eth[1].mac rxPkOk:count 26
scalar PIM_SM_Network.DR_S1.eth[1].mac rxPkOk:sum(packetBytes) 1696
scalar PIM_SM_Network.DR_S1.eth[1].mac txPk:count 25
scalar PIM_SM_Network.DR_S1.eth[1].mac txPk:sum(packetBytes) 2210
scalar PIM_SM_Network.DR_S1.eth[1].mac packetReceivedFromUpper:count 25
scalar PIM_SM_Network.DR_S1.eth[1].mac packetReceivedFromUpper:sum(packetBytes) 2058
scalar PIM_SM_Network.DR_S1.eth[1].mac passedUpPk:count 26
scalar PIM_SM_Network.DR_S1.eth[1].mac passedUpPk:sum(packetBytes) 1696
scalar PIM_SM_Network.DR_S1.eth[1].mac packetDropIncorrectlyReceived:count 0
scalar PIM_SM_Network.DR_S1.eth[1].mac packetDropIncorrectlyReceived:sum(packetBytes) 0
scalar PIM_SM_Network.DR_S1.eth[1].mac packetDropInterfaceDown:count 0
scalar PIM_SM_Network.DR_S1.eth[1].mac packetDropInterfaceDown:sum(packetBytes) 0
scalar PIM_SM_Network.DR_S1.eth[1].mac packetDropNotAddressedToUs:count 0
scalar PIM_SM_Network.DR_S1.eth[1].mac packetDropNotAddressedToUs:sum(packetBytes) 0
scalar PIM_SM_Network.DR_S1.eth[1] packetDropInterfaceDown:count 0
scalar PIM_SM_Network.DR_S1.eth[1] packetDropInterfaceDown:sum(packetBytes) 0
scalar PIM_SM_Network.DR_S1.eth[1] packetDropNoCarrier:count 0
scalar PIM_SM_Network.DR_S1.eth[1] packetDropNoCarrier:sum(packetBytes) 0
scalar PIM_SM_Network.DR_S1.eth[2].queue queueLength:last 0
scalar PIM_SM_Network.DR_S1.eth[2].queue queueLength:max 0
scalar PIM_SM_Network.DR_S1.eth[2].queue queueLength:timeavg 0
scalar PIM_SM_Network.DR_S1.eth[2].queue queueBitLength:last 0
scalar PIM_SM_Network.DR_S1.eth[2].queue queueBitLength:max 0
scalar PIM_SM_Network.DR_S1.eth[2].queue queueBitLength:timeavg 0
scalar PIM_SM_Network.DR_S1.eth[2].queue outgoingPackets:count 14
scalar PIM_SM_Network.DR_S1.eth[2].queue outgoingPacketLengths:sum 5952
scalar PIM_SM_Network.DR_S1.eth[2].queue incomingPackets:count 14
scalar PIM_SM_Network.DR_S1.eth[2].queue incomingPacketLengths:sum 5952
scalar PIM_SM_Network.DR_S1.eth[2].queue droppedPacketsQueueOverflow:count 0
scalar PIM_SM_Network.DR_S1.eth[2].queue droppedPacketLengthsQueueOverflow:sum 0
scalar PIM_SM_Network.DR_S1.eth[2].mac "simulated time" 300
scalar PIM_SM_Network.DR_S1.eth[2].mac full-duplex 1
scalar PIM_SM_Network.DR_S1.eth[2].mac "frames/sec sent" 0
scalar PIM_SM_Network.DR_S1.eth[2].mac "frames/sec rcvd" 0
scalar PIM_SM_Network.DR_S1.eth[2].mac "bits/sec sent" 0
scalar PIM_SM_Network.DR_S1.eth[2].mac "bits/sec rcvd" 0
scalar PIM_SM_Network.DR_S1.eth[2].mac "rx channel idle (%)" 100
scalar PIM_SM_Network.DR_S1.eth[2].mac "rx channel utilization (%)" 0
scalar PIM_SM_Network.DR_S1.eth[2].mac rxPausePkUnits:count 0
scalar PIM_SM_Network.DR_S1.eth[2].mac rxPausePkUnits:sum 0
scalar PIM_SM_Network.DR_S1.eth[2].mac txPausePkUnits:count 0
scalar PIM_SM_Network.DR_S1.eth[2].mac txPausePkUnits:sum 0
scalar PIM_SM_Network.DR_S1.eth[2].mac rxPkOk:count 0
scalar PIM_SM_Network.DR_S1.eth[2].mac rxPkOk:sum(packetBytes) 0
scalar PIM_SM_Network.DR_S1.eth[2].mac txPk:count 0
scalar PIM_SM_Network.DR_S1.eth[2].mac txPk:sum(packetBytes) 0
scalar PIM_SM_Network.DR_S1.eth[2].mac packetReceivedFromUpper:count 14
scalar PIM_SM_Network.DR_S1.eth[2].mac packetReceivedFromUpper:sum(packetBytes) 744
scalar PIM_SM_Network.DR_S1.eth[2].mac passedUpPk:count 0
scalar PIM_SM_Network.DR_S1.eth[2].mac passedUpPk:sum(packetBytes) 0
scalar PIM_SM_Network.DR_S1.eth[2].mac packetDropIncorrectlyReceived:count 0
scalar PIM_SM_Network.DR_S1.eth[2].mac packetDropIncorrectlyReceived:sum(packetBytes) 0
scalar PIM_SM_Network.DR_S1.eth[2].mac packetDropInterfaceDown:count 14
scalar PIM_SM_Network.DR_S1.eth[2].mac packetDropInterfaceDown:sum(packetBytes) 744
scalar PIM_SM_Network.DR_S1.eth[2].mac packetDropNotAddressedToUs:count 0
scalar PIM_SM_Network.DR_S1.eth[2].mac packetDropNotAddressedToUs:sum(packetBytes) 0
scalar PIM_SM_Network.DR_S1.eth[2] packetDropInterfaceDown:count 14
scalar PIM_SM_Network.DR_S1.eth[2] packetDropInterfaceDown:sum(packetBytes) 744
scalar PIM_SM_Network.DR_S1.eth[2] packetDropNoCarrier:count 0
scalar PIM_SM_Network.DR_S1.eth[2] packetDropNoCarrier:sum(packetBytes) 0
scalar PIM_SM_Network.DR_S1.ipv4.ip packetDropAddressResolutionFailed:count 0
scalar PIM_SM_Network.DR_S1.ipv4.ip packetDropAddressResolutionFailed:sum(packetBytes) 0
scalar PIM_SM_Network.DR_S1.ipv4.ip packetDropHopLimitReached:count 0
scalar PIM_SM_Network.DR_S1.ipv4.ip packetDropHopLimitReached:sum(packetBytes) 0
scalar PIM_SM_Network.DR_S1.ipv4.ip packetDropForwardingDisabled:count 0
scalar PIM_SM_Network.DR_S1.ipv4.ip packetDropForwardingDisabled:sum(packetBytes) 0
scalar PIM_SM_Network.DR_S1.ipv4.ip packetDropLifetimeExpired:count 0
scalar PIM_SM_Network.DR_S1.ipv4.ip packetDropLifetimeExpired:sum(packetBytes) 0
scalar PIM_SM_Network.DR_S1.ipv4.ip packetDropNoInterfaceFound:count 0
scalar PIM_SM_Network.DR_S1.ipv4.ip packetDropNoInterfaceFound:sum(packetBytes) 0
scalar PIM_SM_Network.DR_S1.ipv4.ip packetDropNoRouteFound:count 0
scalar PIM_SM_Network.DR_S1.ipv4.ip packetDropNoRouteFound:sum(packetBytes) 0
scalar PIM_SM_Network.DR_S1.ipv4.ip packetDropUndefined:count 0
scalar PIM_SM_Network.DR_S1.ipv4.ip packetDropUndefined:sum(packetBytes) 0
scalar PIM_SM_Network.DR_S1.ipv4.arp arpResolutionFailed:count 0
scalar PIM_SM_Network.DR_S1.ipv4.arp arpResolutionCompleted:count 3
scalar PIM_SM_Network.DR_S1.ipv4.arp arpResolutionInitiated:count 3
scalar PIM_SM_Network.DR_S1.ipv4.arp arpReplySent:count 0
scalar PIM_SM_Network.DR_S1.ipv4.arp arpReplySent:sum(packetBytes) 0
scalar PIM_SM_Network.DR_S1.ipv4.arp arpRequestSent:count 3
scalar PIM_SM_Network.DR_S1.ipv4.arp arpRequestSent:sum(packetBytes) 84
scalar PIM_SM_Network.Source2.ethernet pauseSent:count 0
scalar PIM_SM_Network.Source2.ethernet pauseSent:sum 0
scalar PIM_SM_Network.Source2.ethernet decapPk:count 14
scalar PIM_SM_Network.Source2.ethernet decapPk:sum(packetBytes) 644
scalar PIM_SM_Network.Source2.ethernet encapPk:count 0
scalar PIM_SM_Network.Source2.ethernet encapPk:sum(packetBytes) 0
scalar PIM_SM_Network.Source2.lo[0].lo rcvdPkFromHl:count 0
scalar PIM_SM_Network.Source2.lo[0].lo rcvdPkFromHl:sum(packetBytes) 0
scalar PIM_SM_Network.Source2.lo[0].lo passedUpPk:count 0
scalar PIM_SM_Network.Source2.lo[0].lo passedUpPk:sum(packetBytes) 0
scalar PIM_SM_Network.Source2.lo[0] packetDropInterfaceDown:count 0
scalar PIM_SM_Network.Source2.lo[0] packetDropInterfaceDown:sum(packetBytes) 0
scalar PIM_SM_Network.Source2.lo[0] packetDropNoCarrier:count 0
scalar PIM_SM_Network.Source2.lo[0] packetDropNoCarrier:sum(packetBytes) 0
scalar PIM_SM_Network.Source2.eth[0].queue queueLength:last 0
scalar PIM_SM_Network.Source2.eth[0].queue queueLength:max 0
scalar PIM_SM_Network.Source2.eth[0].queue queueLength:timeavg 0
scalar PIM_SM_Network.Source2.eth[0].queue queueBitLength:last 0
scalar PIM_SM_Network.Source2.eth[0].queue queueBitLength:max 0
scalar PIM_SM_Network.Source2.eth[0].queue queueBitLength:timeavg 0
scalar PIM_SM_Network.Source2.eth[0].queue outgoingPackets:count 0
scalar PIM_SM_Network.Source2.eth[0].queue outgoingPacketLengths:sum 0
scalar PIM_SM_Network.Source2.eth[0].queue incomingPackets:count 0
scalar PIM_SM_Network.Source2.eth[0].queue incomingPacketLengths:sum 0
scalar PIM_SM_Network.Source2.eth[0].queue droppedPacketsQueueOverflow:count 0
scalar PIM_SM_Network.Source2.eth[0].queue droppedPacketLengthsQueueOverflow:sum 0
scalar PIM_SM_Network.Source2.eth[0].mac "simulated time" 300
scalar PIM_SM_Network.Source2.eth[0].mac full-duplex 1
scalar PIM_SM_Network.Source2.eth[0].mac "frames/sec sent" 0
scalar PIM_SM_Network.Source2.eth[0].mac "frames/sec rcvd" 0.046666666666666669
scalar PIM_SM_Network.Source2.eth[0].mac "bits/sec sent" 0
scalar PIM_SM_Network.Source2.eth[0].mac "bits/sec rcvd" 23.893333333333334
scalar PIM_SM_Network.Source2.eth[0].mac "rx channel idle (%)" 99.999973119999993
scalar PIM_SM_Network.Source2.eth[0].mac "rx channel utilization (%)" 2.6880000000000004e-05
scalar PIM_SM_Network.Source2.eth[0].mac rxPausePkUnits:count 0
scalar PIM_SM_Network.Source2.eth[0].mac rxPausePkUnits:sum 0
scalar PIM_SM_Network.Source2.eth[0].mac txPausePkUnits:count 0
scalar PIM_SM_Network.Source2.eth[0].mac txPausePkUnits:sum 0
scalar PIM_SM_Network.Source2.eth[0].mac rxPkOk:count 14
scalar PIM_SM_Network.Source2.eth[0].mac rxPkOk:sum(packetBytes) 896
scalar PIM_SM_Network.Source2.eth[0].mac txPk:count 0
scalar PIM_SM_Network.Source2.eth[0].mac txPk:sum(packetBytes) 0
scalar PIM_SM_Network.Source2.eth[0].mac packetReceivedFromUpper:count 0
scalar PIM_SM_Network.Source2.eth[0].mac packetReceivedFromUpper:sum(packetBytes) 0
scalar PIM_SM_Network.Source2.eth[0].mac passedUpPk:count 14
scalar PIM_SM_Network.Source2.eth[0].mac passedUpPk:sum(packetBytes) 896
scalar PIM_SM_Network.Source2.eth[0].mac packetDropIncorrectlyReceived:count 0
scalar PIM_SM_Network.Source2.eth[0].mac packetDropIncorrectlyReceived:sum(packetBytes) 0
scalar PIM_SM_Network.Source2.eth[0].mac packetDropInterfaceDown:count 0
scalar PIM_SM_Network.Source2.eth[0].mac packetDropInterfaceDown:sum(packetBytes) 0
scalar PIM_SM_Network.Source2.eth[0].mac packetDropNotAddressedToUs:count 0
scalar PIM_SM_Network.Source2.eth[0].mac packetDropNotAddressedToUs:sum(packetBytes) 0
scalar PIM_SM_Network.Source2.eth[0] packetDropInterfaceDown:count 0
scalar PIM_SM_Network.Source2.eth[0] packetDropInterfaceDown:sum(packetBytes) 0
scalar PIM_SM_Network.Source2.eth[0] packetDropNoCarrier:count 0
scalar PIM_SM_Network.Source2.eth[0] packetDropNoCarrier:sum(packetBytes) 0
scalar PIM_SM_Network.Source2.ipv4.ip packetDropAddressResolutionFailed:count 0
scalar PIM_SM_Network.Source2.ipv4.ip packetDropAddressResolutionFailed:sum(packetBytes) 0
scalar PIM_SM_Network.Source2.ipv4.ip packetDropHopLimitReached:count 0
scalar PIM_SM_Network.Source2.ipv4.ip packetDropHopLimitReached:sum(packetBytes) 0
scalar PIM_SM_Network.Source2.ipv4.ip packetDropForwardingDisabled:count 0
scalar PIM_SM_Network.Source2.ipv4.ip packetDropForwardingDisabled:sum(packetBytes) 0
scalar PIM_SM_Network.Source2.ipv4.ip packetDropLifetimeExpired:count 0
scalar PIM_SM_Network.Source2.ipv4.ip packetDropLifetimeExpired:sum(packetBytes) 0
scalar PIM_SM_Network.Source2.ipv4.ip packetDropNoInterfaceFound:count 0
scalar PIM_SM_Network.Source2.ipv4.ip packetDropNoInterfaceFound:sum(packetBytes) 0
scalar PIM_SM_Network.Source2.ipv4.ip packetDropNoRouteFound:count 0
scalar PIM_SM_Network.Source2.ipv4.ip packetDropNoRouteFound:sum(packetBytes) 0
scalar PIM_SM_Network.Source2.ipv4.ip packetDropUndefined:count 0
scalar PIM_SM_Network.Source2.ipv4.ip packetDropUndefined:sum(packetBytes) 0
scalar PIM_SM_Network.Source2.ipv4.arp arpResolutionFailed:count 0
scalar PIM_SM_Network.Source2.ipv4.arp arpResolutionCompleted:count 0
scalar PIM_SM_Network.Source2.ipv4.arp arpResolutionInitiated:count 0
scalar PIM_SM_Network.Source2.ipv4.arp arpReplySent:count 0
scalar PIM_SM_Network.Source2.ipv4.arp arpReplySent:sum(packetBytes) 0
scalar PIM_SM_Network.Source2.ipv4.arp arpRequestSent:count 0
scalar PIM_SM_Network.Source2.ipv4.arp arpRequestSent:sum(packetBytes) 0
scalar PIM_SM_Network.Source2.udp packetReceived:count 0
scalar PIM_SM_Network.Source2.udp packetReceived:sum(packetBytes) 0
scalar PIM_SM_Network.Source2.udp packetSent:count 0
scalar PIM_SM_Network.Source2.udp packetSent:sum(packetBytes) 0
scalar PIM_SM_Network.Source2.udp passedUpPk:count 0
scalar PIM_SM_Network.Source2.udp droppedPkWrongPort:count 0
scalar PIM_SM_Network.Source2.udp droppedPkBadChecksum:count 0
scalar PIM_SM_Network.Source1.ethernet pauseSent:count 0
scalar PIM_SM_Network.Source1.ethernet pauseSent:sum 0
scalar PIM_SM_Network.Source1.ethernet decapPk:count 14
scalar PIM_SM_Network.Source1.ethernet decapPk:sum(packetBytes) 644
scalar PIM_SM_Network.Source1.ethernet encapPk:count 10
scalar PIM_SM_Network.Source1.ethernet encapPk:sum(packetBytes) 1280
scalar PIM_SM_Network.Source1.lo[0].lo rcvdPkFromHl:count 10
scalar PIM_SM_Network.Source1.lo[0].lo rcvdPkFromHl:sum(packetBytes) 1280
scalar PIM_SM_Network.Source1.lo[0].lo passedUpPk:count 10
scalar PIM_SM_Network.Source1.lo[0].lo passedUpPk:sum(packetBytes) 1280
scalar PIM_SM_Network.Source1.lo[0] packetDropInterfaceDown:count 0
scalar PIM_SM_Network.Source1.lo[0] packetDropInterfaceDown:sum(packetBytes) 0
scalar PIM_SM_Network.Source1.lo[0] packetDropNoCarrier:count 0
scalar PIM_SM_Network.Source1.lo[0] packetDropNoCarrier:sum(packetBytes) 0
scalar PIM_SM_Network.Source1.eth[0].queue queueLength:last 0
scalar PIM_SM_Network.Source1.eth[0].queue queueLength:max 0
scalar PIM_SM_Network.Source1.eth[0].queue queueLength:timeavg 0
scalar PIM_SM_Network.Source1.eth[0].queue queueBitLength:last 0
scalar PIM_SM_Network.Source1.eth[0].queue queueBitLength:max 0
scalar PIM_SM_Network.Source1.eth[0].queue queueBitLength:timeavg 0
scalar PIM_SM_Network.Source1.eth[0].queue outgoingPackets:count 10
scalar PIM_SM_Network.Source1.eth[0].queue outgoingPacketLengths:sum 11680
scalar PIM_SM_Network.Source1.eth[0].queue incomingPackets:count 10
scalar PIM_SM_Network.Source1.eth[0].queue incomingPacketLengths:sum 11680
scalar PIM_SM_Network.Source1.eth[0].queue droppedPacketsQueueOverflow:count 0
scalar PIM_SM_Network.Source1.eth[0].queue droppedPacketLengthsQueueOverflow:sum 0
scalar PIM_SM_Network.Source1.eth[0].mac "simulated time" 300
scalar PIM_SM_Network.Source1.eth[0].mac full-duplex 1
scalar PIM_SM_Network.Source1.eth[0].mac "frames/sec sent" 0.033333333333333333
scalar PIM_SM_Network.Source1.eth[0].mac "frames/sec rcvd" 0.046666666666666669
scalar PIM_SM_Network.Source1.eth[0].mac "bits/sec sent" 38.93333333333333
scalar PIM_SM_Network.Source1.eth[0].mac "bits/sec rcvd" 23.893333333333334
scalar PIM_SM_Network.Source1.eth[0].mac "rx channel idle (%)" 99.999973119999993
scalar PIM_SM_Network.Source1.eth[0].mac "rx channel utilization (%)" 2.6880000000000004e-05
scalar PIM_SM_Network.Source1.eth[0].mac rxPausePkUnits:count 0
scalar PIM_SM_Network.Source1.eth[0].mac rxPausePkUnits:sum 0
scalar PIM_SM_Network.Source1.eth[0].mac txPausePkUnits:count 0
scalar PIM_SM_Network.Source1.eth[0].mac txPausePkUnits:sum 0
scalar PIM_SM_Network.Source1.eth[0].mac rxPkOk:count 14
scalar PIM_SM_Network.Source1.eth[0].mac rxPkOk:sum(packetBytes) 896
scalar PIM_SM_Network.Source1.eth[0].mac txPk:count 10
scalar PIM_SM_Network.Source1.eth[0].mac txPk:sum(packetBytes) 1460
scalar PIM_SM_Network.Source1.eth[0].mac packetReceivedFromUpper:count 10
scalar PIM_SM_Network.Source1.eth[0].mac packetReceivedFromUpper:sum(packetBytes) 1460
scalar PIM_SM_Network.Source1.eth[0].mac passedUpPk:count 14
scalar PIM_SM_Network.Source1.eth[0].mac passedUpPk:sum(packetBytes) 896
scalar PIM_SM_Network.Source1.eth[0].mac packetDropIncorrectlyReceived:count 0
scalar PIM_SM_Network.Source1.eth[0].mac packetDropIncorrectlyReceived:sum(packetBytes) 0
scalar PIM_SM_Network.Source1.eth[0].mac packetDropInterfaceDown:count 0
scalar PIM_SM_Network.Source1.eth[0].mac packetDropInterfaceDown:sum(packetBytes) 0
scalar PIM_SM_Network.Source1.eth[0].mac packetDropNotAddressedToUs:count 0
scalar PIM_SM_Network.Source1.eth[0].mac packetDropNotAddressedToUs:sum(packetBytes) 0
scalar PIM_SM_Network.Source1.eth[0] packetDropInterfaceDown:count 0
scalar PIM_SM_Network.Source1.eth[0] packetDropInterfaceDown:sum(packetBytes) 0
scalar PIM_SM_Network.Source1.eth[0] packetDropNoCarrier:count 0
scalar PIM_SM_Network.Source1.eth[0] packetDropNoCarrier:sum(packetBytes) 0
scalar PIM_SM_Network.Source1.ipv4.ip packetDropAddressResolutionFailed:count 0
scalar PIM_SM_Network.Source1.ipv4.ip packetDropAddressResolutionFailed:sum(packetBytes) 0
scalar PIM_SM_Network.Source1.ipv4.ip packetDropHopLimitReached:count 0
scalar PIM_SM_Network.Source1.ipv4.ip packetDropHopLimitReached:sum(packetBytes) 0
scalar PIM_SM_Network.Source1.ipv4.ip packetDropForwardingDisabled:count 0
scalar PIM_SM_Network.Source1.ipv4.ip packetDropForwardingDisabled:sum(packetBytes) 0
scalar PIM_SM_Network.Source1.ipv4.ip packetDropLifetimeExpired:count 0
scalar PIM_SM_Network.Source1.ipv4.ip packetDropLifetimeExpired:sum(packetBytes) 0
scalar PIM_SM_Network.Source1.ipv4.ip packetDropNoInterfaceFound:count 0
scalar PIM_SM_Network.Source1.ipv4.ip packetDropNoInterfaceFound:sum(packetBytes) 0
scalar PIM_SM_Network.Source1.ipv4.ip packetDropNoRouteFound:count 0
scalar PIM_SM_Network.Source1.ipv4.ip packetDropNoRouteFound:sum(packetBytes) 0
scalar PIM_SM_Network.Source1.ipv4.ip packetDropUndefined:count 0
scalar PIM_SM_Network.Source1.ipv4.ip packetDropUndefined:sum(packetBytes) 0
scalar PIM_SM_Network.Source1.ipv4.arp arpResolutionFailed:count 0
scalar PIM_SM_Network.Source1.ipv4.arp arpResolutionCompleted:count 0
scalar PIM_SM_Network.Source1.ipv4.arp arpResolutionInitiated:count 0
scalar PIM_SM_Network.Source1.ipv4.arp arpReplySent:count 0
scalar PIM_SM_Network.Source1.ipv4.arp arpReplySent:sum(packetBytes) 0
scalar PIM_SM_Network.Source1.ipv4.arp arpRequestSent:count 0
scalar PIM_SM_Network.Source1.ipv4.arp arpRequestSent:sum(packetBytes) 0
scalar PIM_SM_Network.Source1.udp packetReceived:count 10
scalar PIM_SM_Network.Source1.udp packetReceived:sum(packetBytes) 1080
scalar PIM_SM_Network.Source1.udp packetSent:count 10
scalar PIM_SM_Network.Source1.udp packetSent:sum(packetBytes) 1080
scalar PIM_SM_Network.Source1.udp passedUpPk:count 0
scalar PIM_SM_Network.Source1.udp droppedPkWrongPort:count 10
scalar PIM_SM_Network.Source1.udp droppedPkBadChecksum:count 0
scalar PIM_SM_Network.Source1.app[0] "packets sent" 10
scalar PIM_SM_Network.Source1.app[0] "packets received" 0
scalar PIM_SM_Network.Source1.app[0] packetReceived:count 0
scalar PIM_SM_Network.Source1.app[0] packetReceived:sum(packetBytes) 0
scalar PIM_SM_Network.Source1.app[0] packetSent:count 10
scalar PIM_SM_Network.Source1.app[0] packetSent:sum(packetBytes) 1000
scalar PIM_SM_Network.Receiver1.ethernet pauseSent:count 0
scalar PIM_SM_Network.Receiver1.ethernet pauseSent:sum 0
scalar PIM_SM_Network.Receiver1.ethernet decapPk:count 19
scalar PIM_SM_Network.Receiver1.ethernet decapPk:sum(packetBytes) 1120
scalar PIM_SM_Network.Receiver1.ethernet encapPk:count 3
scalar PIM_SM_Network.Receiver1.ethernet encapPk:sum(packetBytes) 96
scalar PIM_SM_Network.Receiver1.lo[0].lo rcvdPkFromHl:count 0
scalar PIM_SM_Network.Receiver1.lo[0].lo rcvdPkFromHl:sum(packetBytes) 0
scalar PIM_SM_Network.Receiver1.lo[0].lo passedUpPk:count 0
scalar PIM_SM_Network.Receiver1.lo[0].lo passedUpPk:sum(packetBytes) 0
scalar PIM_SM_Network.Receiver1.lo[0] packetDropInterfaceDown:count 0
scalar PIM_SM_Network.Receiver1.lo[0] packetDropInterfaceDown:sum(packetBytes) 0
scalar PIM_SM_Network.Receiver1.lo[0] packetDropNoCarrier:count 0
scalar PIM_SM_Network.Receiver1.lo[0] packetDropNoCarrier:sum(packetBytes) 0
scalar PIM_SM_Network.Receiver1.eth[0].queue queueLength:last 0
scalar PIM_SM_Network.Receiver1.eth[0].queue queueLength:max 0
scalar PIM_SM_Network.Receiver1.eth[0].queue queueLength:timeavg 0
scalar PIM_SM_Network.Receiver1.eth[0].queue queueBitLength:last 0
scalar PIM_SM_Network.Receiver1.eth[0].queue queueBitLength:max 0
scalar PIM_SM_Network.Receiver1.eth[0].queue queueBitLength:timeavg 0
scalar PIM_SM_Network.Receiver1.eth[0].queue outgoingPackets:count 3
scalar PIM_SM_Network.Receiver1.eth[0].queue outgoingPacketLengths:sum 1200
scalar PIM_SM_Network.Receiver1.eth[0].queue incomingPackets:count 3
scalar PIM_SM_Network.Receiver1.eth[0].queue incomingPacketLengths:sum 1200
scalar PIM_SM_Network.Receiver1.eth[0].queue droppedPacketsQueueOverflow:count 0
scalar PIM_SM_Network.Receiver1.eth[0].queue droppedPacketLengthsQueueOverflow:sum 0
scalar PIM_SM_Network.Receiver1.eth[0].mac "simulated time" 300
scalar PIM_SM_Network.Receiver1.eth[0].mac full-duplex 1
scalar PIM_SM_Network.Receiver1.eth[0].mac "frames/sec sent" 0.01
scalar PIM_SM_Network.Receiver1.eth[0].mac "frames/sec rcvd" 0.063333333333333339
scalar PIM_SM_Network.Receiver1.eth[0].mac "bits/sec sent" 5.1200000000000001
scalar PIM_SM_Network.Receiver1.eth[0].mac "bits/sec rcvd" 38.986666666666665
scalar PIM_SM_Network.Receiver1.eth[0].mac "rx channel idle (%)" 99.999956960000006
scalar PIM_SM_Network.Receiver1.eth[0].mac "rx channel utilization (%)" 4.3040000000000001e-05
scalar PIM_SM_Network.Receiver1.eth[0].mac rxPausePkUnits:count 0
scalar PIM_SM_Network.Receiver1.eth[0].mac rxPausePkUnits:sum 0
scalar PIM_SM_Network.Receiver1.eth[0].mac txPausePkUnits:count 0
scalar PIM_SM_Network.Receiver1.eth[0].mac txPausePkUnits:sum 0
scalar PIM_SM_Network.Receiver1.eth[0].mac rxPkOk:count 19
scalar PIM_SM_Network.Receiver1.eth[0].mac rxPkOk:sum(packetBytes) 1462
scalar PIM_SM_Network.Receiver1.eth[0].mac txPk:count 3
scalar PIM_SM_Network.Receiver1.eth[0].mac txPk:sum(packetBytes) 192
scalar PIM_SM_Network.Receiver1.eth[0].mac packetReceivedFromUpper:count 3
scalar PIM_SM_Network.Receiver1.eth[0].mac packetReceivedFromUpper:sum(packetBytes) 150
scalar PIM_SM_Network.Receiver1.eth[0].mac passedUpPk:count 19
scalar PIM_SM_Network.Receiver1.eth[0].mac passedUpPk:sum(packetBytes) 1462
scalar PIM_SM_Network.Receiver1.eth[0].mac packetDropIncorrectlyReceived:count 0
scalar PIM_SM_Network.Receiver1.eth[0].mac packetDropIncorrectlyReceived:sum(packetBytes) 0
scalar PIM_SM_Network.Receiver1.eth[0].mac packetDropInterfaceDown:count 0
scalar PIM_SM_Network.Receiver1.eth[0].mac packetDropInterfaceDown:sum(packetBytes) 0
scalar PIM_SM_Network.Receiver1.eth[0].mac packetDropNotAddressedToUs:count 0
scalar PIM_SM_Network.Receiver1.eth[0].mac packetDropNotAddressedToUs:sum(packetBytes) 0
scalar PIM_SM_Network.Receiver1.eth[0] packetDropInterfaceDown:count 0
scalar PIM_SM_Network.Receiver1.eth[0] packetDropInterfaceDown:sum(packetBytes) 0
scalar PIM_SM_Network.Receiver1.eth[0] packetDropNoCarrier:count 0
scalar PIM_SM_Network.Receiver1.eth[0] packetDropNoCarrier:sum(packetBytes) 0
scalar PIM_SM_Network.Receiver1.ipv4.ip packetDropAddressResolutionFailed:count 0
scalar PIM_SM_Network.Receiver1.ipv4.ip packetDropAddressResolutionFailed:sum(packetBytes) 0
scalar PIM_SM_Network.Receiver1.ipv4.ip packetDropHopLimitReached:count 0
scalar PIM_SM_Network.Receiver1.ipv4.ip packetDropHopLimitReached:sum(packetBytes) 0
scalar PIM_SM_Network.Receiver1.ipv4.ip packetDropForwardingDisabled:count 0
scalar PIM_SM_Network.Receiver1.ipv4.ip packetDropForwardingDisabled:sum(packetBytes) 0
scalar PIM_SM_Network.Receiver1.ipv4.ip packetDropLifetimeExpired:count 0
scalar PIM_SM_Network.Receiver1.ipv4.ip packetDropLifetimeExpired:sum(packetBytes) 0
scalar PIM_SM_Network.Receiver1.ipv4.ip packetDropNoInterfaceFound:count 0
scalar PIM_SM_Network.Receiver1.ipv4.ip packetDropNoInterfaceFound:sum(packetBytes) 0
scalar PIM_SM_Network.Receiver1.ipv4.ip packetDropNoRouteFound:count 0
scalar PIM_SM_Network.Receiver1.ipv4.ip packetDropNoRouteFound:sum(packetBytes) 0
scalar PIM_SM_Network.Receiver1.ipv4.ip packetDropUndefined:count 0
scalar PIM_SM_Network.Receiver1.ipv4.ip packetDropUndefined:sum(packetBytes) 0
scalar PIM_SM_Network.Receiver1.ipv4.arp arpResolutionFailed:count 0
[...]
scalar PIM_SM_Network.Receiver2.eth[0].mac rxPausePkUnits:vector:endtime nan
scalar PIM_SM_Network.Receiver2.eth[0].mac packetReceivedFromUpper:vector(packetBytes):count 5
scalar PIM_SM_Network.Receiver2.eth[0].mac packetReceivedFromUpper:vector(packetBytes):sum 250
scalar PIM_SM_Network.Receiver2.eth[0].mac packetReceivedFromUpper:vector(packetBytes):sumweights 5
scalar PIM_SM_Network.Receiver2.eth[0].mac packetReceivedFromUpper:vector(packetBytes):mean 50
scalar PIM_SM_Network.Receiver2.eth[0].mac packetReceivedFromUpper:vector(packetBytes):stddev 0
scalar PIM_SM_Network.Receiver2.eth[0].mac packetReceivedFromUpper:vector(packetBytes):min 50
scalar PIM_SM_Network.Receiver2.eth[0].mac packetReceivedFromUpper:vector(packetBytes):max 50
scalar PIM_SM_Network.Receiver2.eth[0].mac packetReceivedFromUpper:vector(packetBytes):starttime 20
scalar PIM_SM_Network.Receiver2.eth[0].mac packetReceivedFromUpper:vector(packetBytes):endtime 170
scalar PIM_SM_Network.Receiver2.eth[0].mac packetDropIncorrectlyReceived:vector(packetBytes):count 0
scalar PIM_SM_Network.Receiver2.eth[0].mac packetDropIncorrectlyReceived:vector(packetBytes):sum 0
scalar PIM_SM_Network.Receiver2.eth[0].mac packetDropIncorrectlyReceived:vector(packetBytes):sumweights 0
scalar PIM_SM_Network.Receiver2.eth[0].mac packetDropIncorrectlyReceived:vector(packetBytes):mean -nan
scalar PIM_SM_Network.Receiver2.eth[0].mac packetDropIncorrectlyReceived:vector(packetBytes):stddev nan
scalar PIM_SM_Network.Receiver2.eth[0].mac packetDropIncorrectlyReceived:vector(packetBytes):min inf
scalar PIM_SM_Network.Receiver2.eth[0].mac packetDropIncorrectlyReceived:vector(packetBytes):max -inf
scalar PIM_SM_Network.Receiver2.eth[0].mac packetDropIncorrectlyReceived:vector(packetBytes):starttime nan
scalar PIM_SM_Network.Receiver2.eth[0].mac packetDropIncorrectlyReceived:vector(packetBytes):endtime nan
scalar PIM_SM_Network.Receiver2.eth[0].mac packetDropInterfaceDown:vector(packetBytes):count 0
scalar PIM_SM_Network.Receiver2.eth[0].mac packetDropInterfaceDown:vector(packetBytes):sum 0
scalar PIM_SM_Network.Receiver2.eth[0].mac packetDropInterfaceDown:vector(packetBytes):sumweights 0
scalar PIM_SM_Network.Receiver2.eth[0].mac packetDropInterfaceDown:vector(packetBytes):mean -nan
scalar PIM_SM_Network.Receiver2.eth[0].mac packetDropInterfaceDown:vector(packetBytes):stddev nan
scalar PIM_SM_Network.Receiver2.eth[0].mac packetDropInterfaceDown:vector(packetBytes):min inf
scalar PIM_SM_Network.Receiver2.eth[0].mac packetDropInterfaceDown:vector(packetBytes):max -inf
scalar PIM_SM_Network.Receiver2.eth[0].mac packetDropInterfaceDown:vector(packetBytes):starttime nan
scalar PIM_SM_Network.Receiver2.eth[0].mac packetDropInterfaceDown:vector(packetBytes):endtime nan
scalar PIM_SM_Network.Receiver2.eth[0].mac packetDropNotAddressedToUs:vector(packetBytes):count 0
scalar PIM_SM_Network.Receiver2.eth[0].mac packetDropNotAddressedToUs:vector(packetBytes):sum 0
scalar PIM_SM_Network.Receiver2.eth[0].mac packetDropNotAddressedToUs:vector(packetBytes):sumweights 0
scalar PIM_SM_Network.Receiver2.eth[0].mac packetDropNotAddressedToUs:vector(packetBytes):mean -nan
scalar PIM_SM_Network.Receiver2.eth[0].mac packetDropNotAddressedToUs:vector(packetBytes):stddev nan
scalar PIM_SM_Network.Receiver2.eth[0].mac packetDropNotAddressedToUs:vector(packetBytes):min inf
scalar PIM_SM_Network.Receiver2.eth[0].mac packetDropNotAddressedToUs:vector(packetBytes):max -inf
scalar PIM_SM_Network.Receiver2.eth[0].mac packetDropNotAddressedToUs:vector(packetBytes):starttime nan
scalar PIM_SM_Network.Receiver2.eth[0].mac packetDropNotAddressedToUs:vector(packetBytes):endtime nan
scalar PIM_SM_Network.Receiver2.eth[0] packetDropInterfaceDown:vector(packetBytes):count 0
scalar PIM_SM_Network.Receiver2.eth[0] packetDropInterfaceDown:vector(packetBytes):sum 0
scalar PIM_SM_Network.Receiver2.eth[0] packetDropInterfaceDown:vector(packetBytes):sumweights 0
scalar PIM_SM_Network.Receiver2.eth[0] packetDropInterfaceDown:vector(packetBytes):mean -nan
scalar PIM_SM_Network.Receiver2.eth[0] packetDropInterfaceDown:vector(packetBytes):stddev nan
scalar PIM_SM_Network.Receiver2.eth[0] packetDropInterfaceDown:vector(packetBytes):min inf
scalar PIM_SM_Network.Receiver2.eth[0] packetDropInterfaceDown:vector(packetBytes):max -inf
scalar PIM_SM_Network.Receiver2.eth[0] packetDropInterfaceDown:vector(packetBytes):starttime nan
scalar PIM_SM_Network.Receiver2.eth[0] packetDropInterfaceDown:vector(packetBytes):endtime nan
scalar PIM_SM_Network.Receiver2.eth[0] packetDropNoCarrier:vector(packetBytes):count 0
scalar PIM_SM_Network.Receiver2.eth[0] packetDropNoCarrier:vector(packetBytes):sum 0
scalar PIM_SM_Network.Receiver2.eth[0] packetDropNoCarrier:vector(packetBytes):sumweights 0
scalar PIM_SM_Network.Receiver2.eth[0] packetDropNoCarrier:vector(packetBytes):mean -nan
scalar PIM_SM_Network.Receiver2.eth[0] packetDropNoCarrier:vector(packetBytes):stddev nan
scalar PIM_SM_Network.Receiver2.eth[0] packetDropNoCarrier:vector(packetBytes):min inf
scalar PIM_SM_Network.Receiver2.eth[0] packetDropNoCarrier:vector(packetBytes):max -inf
scalar PIM_SM_Network.Receiver2.eth[0] packetDropNoCarrier:vector(packetBytes):starttime nan
scalar PIM_SM_Network.Receiver2.eth[0] packetDropNoCarrier:vector(packetBytes):endtime nan
scalar PIM_SM_Network.Receiver2.ipv4.ip packetDropAddressResolutionFailed:vector(packetBytes):count 0
scalar PIM_SM_Network.Receiver2.ipv4.ip packetDropAddressResolutionFailed:vector(packetBytes):sum 0
scalar PIM_SM_Network.Receiver2.ipv4.ip packetDropAddressResolutionFailed:vector(packetBytes):sumweights 0
scalar PIM_SM_Network.Receiver2.ipv4.ip packetDropAddressResolutionFailed:vector(packetBytes):mean -nan
scalar PIM_SM_Network.Receiver2.ipv4.ip packetDropAddressResolutionFailed:vector(packetBytes):stddev nan
scalar PIM_SM_Network.Receiver2.ipv4.ip packetDropAddressResolutionFailed:vector(packetBytes):min inf
scalar PIM_SM_Network.Receiver2.ipv4.ip packetDropAddressResolutionFailed:vector(packetBytes):max -inf
scalar PIM_SM_Network.Receiver2.ipv4.ip packetDropAddressResolutionFailed:vector(packetBytes):starttime nan
scalar PIM_SM_Network.Receiver2.ipv4.ip packetDropAddressResolutionFailed:vector(packetBytes):endtime nan
scalar PIM_SM_Network.Receiver2.ipv4.ip packetDropHopLimitReached:vector(packetBytes):count 0
scalar PIM_SM_Network.Receiver2.ipv4.ip packetDropHopLimitReached:vector(packetBytes):sum 0
scalar PIM_SM_Network.Receiver2.ipv4.ip packetDropHopLimitReached:vector(packetBytes):sumweights 0
scalar PIM_SM_Network.Receiver2.ipv4.ip packetDropHopLimitReached:vector(packetBytes):mean -nan
scalar PIM_SM_Network.Receiver2.ipv4.ip packetDropHopLimitReached:vector(packetBytes):stddev nan
scalar PIM_SM_Network.Receiver2.ipv4.ip packetDropHopLimitReached:vector(packetBytes):min inf
scalar PIM_SM_Network.Receiver2.ipv4.ip packetDropHopLimitReached:vector(packetBytes):max -inf
scalar PIM_SM_Network.Receiver2.ipv4.ip packetDropHopLimitReached:vector(packetBytes):starttime nan
scalar PIM_SM_Network.Receiver2.ipv4.ip packetDropHopLimitReached:vector(packetBytes):endtime nan
scalar PIM_SM_Network.Receiver2.ipv4.ip packetDropForwardingDisabled:vector(packetBytes):count 0
scalar PIM_SM_Network.Receiver2.ipv4.ip packetDropForwardingDisabled:vector(packetBytes):sum 0
scalar PIM_SM_Network.Receiver2.ipv4.ip packetDropForwardingDisabled:vector(packetBytes):sumweights 0
scalar PIM_SM_Network.Receiver2.ipv4.ip packetDropForwardingDisabled:vector(packetBytes):mean -nan
scalar PIM_SM_Network.Receiver2.ipv4.ip packetDropForwardingDisabled:vector(packetBytes):stddev nan
scalar PIM_SM_Network.Receiver2.ipv4.ip packetDropForwardingDisabled:vector(packetBytes):min inf
scalar PIM_SM_Network.Receiver2.ipv4.ip packetDropForwardingDisabled:vector(packetBytes):max -inf
scalar PIM_SM_Network.Receiver2.ipv4.ip packetDropForwardingDisabled:vector(packetBytes):starttime nan
scalar PIM_SM_Network.Receiver2.ipv4.ip packetDropForwardingDisabled:vector(packetBytes):endtime nan
scalar PIM_SM_Network.Receiver2.ipv4.ip packetDropLifetimeExpired:vector(packetBytes):count 0
scalar PIM_SM_Network.Receiver2.ipv4.ip packetDropLifetimeExpired:vector(packetBytes):sum 0
scalar PIM_SM_Network.Receiver2.ipv4.ip packetDropLifetimeExpired:vector(packetBytes):sumweights 0
scalar PIM_SM_Network.Receiver2.ipv4.ip packetDropLifetimeExpired:vector(packetBytes):mean -nan
scalar PIM_SM_Network.Receiver2.ipv4.ip packetDropLifetimeExpired:vector(packetBytes):stddev nan
scalar PIM_SM_Network.Receiver2.ipv4.ip packetDropLifetimeExpired:vector(packetBytes):min inf
scalar PIM_SM_Network.Receiver2.ipv4.ip packetDropLifetimeExpired:vector(packetBytes):max -inf
scalar PIM_SM_Network.Receiver2.ipv4.ip packetDropLifetimeExpired:vector(packetBytes):starttime nan
scalar PIM_SM_Network.Receiver2.ipv4.ip packetDropLifetimeExpired:vector(packetBytes):endtime nan
scalar PIM_SM_Network.Receiver2.ipv4.ip packetDropNoInterfaceFound:vector(packetBytes):count 0
scalar PIM_SM_Network.Receiver2.ipv4.ip packetDropNoInterfaceFound:vector(packetBytes):sum 0
scalar PIM_SM_Network.Receiver2.ipv4.ip packetDropNoInterfaceFound:vector(packetBytes):sumweights 0
scalar PIM_SM_Network.Receiver2.ipv4.ip packetDropNoInterfaceFound:vector(packetBytes):mean -nan
scalar PIM_SM_Network.Receiver2.ipv4.ip packetDropNoInterfaceFound:vector(packetBytes):stddev nan
scalar PIM_SM_Network.Receiver2.ipv4.ip packetDropNoInterfaceFound:vector(packetBytes):min inf
scalar PIM_SM_Network.Receiver2.ipv4.ip packetDropNoInterfaceFound:vector(packetBytes):max -inf
scalar PIM_SM_Network.Receiver2.ipv4.ip packetDropNoInterfaceFound:vector(packetBytes):starttime nan
scalar PIM_SM_Network.Receiver2.ipv4.ip packetDropNoInterfaceFound:vector(packetBytes):endtime nan
scalar PIM_SM_Network.Receiver2.ipv4.ip packetDropNoRouteFound:vector(packetBytes):count 0
scalar PIM_SM_Network.Receiver2.ipv4.ip packetDropNoRouteFound:vector(packetBytes):sum 0
scalar PIM_SM_Network.Receiver2.ipv4.ip packetDropNoRouteFound:vector(packetBytes):sumweights 0
scalar PIM_SM_Network.Receiver2.ipv4.ip packetDropNoRouteFound:vector(packetBytes):mean -nan
scalar PIM_SM_Network.Receiver2.ipv4.ip packetDropNoRouteFound:vector(packetBytes):stddev nan
scalar PIM_SM_Network.Receiver2.ipv4.ip packetDropNoRouteFound:vector(packetBytes):min inf
scalar PIM_SM_Network.Receiver2.ipv4.ip packetDropNoRouteFound:vector(packetBytes):max -inf
scalar PIM_SM_Network.Receiver2.ipv4.ip packetDropNoRouteFound:vector(packetBytes):starttime nan
scalar PIM_SM_Network.Receiver2.ipv4.ip packetDropNoRouteFound:vector(packetBytes):endtime nan
scalar PIM_SM_Network.Receiver2.ipv4.ip packetDropUndefined:vector(packetBytes):count 0
scalar PIM_SM_Network.Receiver2.ipv4.ip packetDropUndefined:vector(packetBytes):sum 0
scalar PIM_SM_Network.Receiver2.ipv4.ip packetDropUndefined:vector(packetBytes):sumweights 0
scalar PIM_SM_Network.Receiver2.ipv4.ip packetDropUndefined:vector(packetBytes):mean -nan
scalar PIM_SM_Network.Receiver2.ipv4.ip packetDropUndefined:vector(packetBytes):stddev nan
scalar PIM_SM_Network.Receiver2.ipv4.ip packetDropUndefined:vector(packetBytes):min inf
scalar PIM_SM_Network.Receiver2.ipv4.ip packetDropUndefined:vector(packetBytes):max -inf
scalar PIM_SM_Network.Receiver2.ipv4.ip packetDropUndefined:vector(packetBytes):starttime nan
scalar PIM_SM_Network.Receiver2.ipv4.ip packetDropUndefined:vector(packetBytes):endtime nan
scalar PIM_SM_Network.Receiver2.ipv4.arp arpRequestSent:vector(packetBytes):count 0
scalar PIM_SM_Network.Receiver2.ipv4.arp arpRequestSent:vector(packetBytes):sum 0
scalar PIM_SM_Network.Receiver2.ipv4.arp arpRequestSent:vector(packetBytes):sumweights 0
scalar PIM_SM_Network.Receiver2.ipv4.arp arpRequestSent:vector(packetBytes):mean -nan
scalar PIM_SM_Network.Receiver2.ipv4.arp arpRequestSent:vector(packetBytes):stddev nan
scalar PIM_SM_Network.Receiver2.ipv4.arp arpRequestSent:vector(packetBytes):min inf
scalar PIM_SM_Network.Receiver2.ipv4.arp arpRequestSent:vector(packetBytes):max -inf
scalar PIM_SM_Network.Receiver2.ipv4.arp arpRequestSent:vector(packetBytes):starttime nan
scalar PIM_SM_Network.Receiver2.ipv4.arp arpRequestSent:vector(packetBytes):endtime nan
scalar PIM_SM_Network.Receiver2.ipv4.arp arpReplySent:vector(packetBytes):count 0
scalar PIM_SM_Network.Receiver2.ipv4.arp arpReplySent:vector(packetBytes):sum 0
scalar PIM_SM_Network.Receiver2.ipv4.arp arpReplySent:vector(packetBytes):sumweights 0
scalar PIM_SM_Network.Receiver2.ipv4.arp arpReplySent:vector(packetBytes):mean -nan
scalar PIM_SM_Network.Receiver2.ipv4.arp arpReplySent:vector(packetBytes):stddev nan
scalar PIM_SM_Network.Receiver2.ipv4.arp arpReplySent:vector(packetBytes):min inf
scalar PIM_SM_Network.Receiver2.ipv4.arp arpReplySent:vector(packetBytes):max -inf
scalar PIM_SM_Network.Receiver2.ipv4.arp arpReplySent:vector(packetBytes):starttime nan
scalar PIM_SM_Network.Receiver2.ipv4.arp arpReplySent:vector(packetBytes):endtime nan
scalar PIM_SM_Network.Receiver2.udp packetSent:vector(packetBytes):count 0
scalar PIM_SM_Network.Receiver2.udp packetSent:vector(packetBytes):sum 0
scalar PIM_SM_Network.Receiver2.udp packetSent:vector(packetBytes):sumweights 0
scalar PIM_SM_Network.Receiver2.udp packetSent:vector(packetBytes):mean -nan
scalar PIM_SM_Network.Receiver2.udp packetSent:vector(packetBytes):stddev nan
scalar PIM_SM_Network.Receiver2.udp packetSent:vector(packetBytes):min inf
scalar PIM_SM_Network.Receiver2.udp packetSent:vector(packetBytes):max -inf
scalar PIM_SM_Network.Receiver2.udp packetSent:vector(packetBytes):starttime nan
scalar PIM_SM_Network.Receiver2.udp packetSent:vector(packetBytes):endtime nan
scalar PIM_SM_Network.Receiver2.udp outgoingDataRate:vector:count 3000
scalar PIM_SM_Network.Receiver2.udp outgoingDataRate:vector:sum 0
scalar PIM_SM_Network.Receiver2.udp outgoingDataRate:vector:sumweights 3000
scalar PIM_SM_Network.Receiver2.udp outgoingDataRate:vector:mean 0
scalar PIM_SM_Network.Receiver2.udp outgoingDataRate:vector:stddev 0
scalar PIM_SM_Network.Receiver2.udp outgoingDataRate:vector:min 0
scalar PIM_SM_Network.Receiver2.udp outgoingDataRate:vector:max 0
scalar PIM_SM_Network.Receiver2.udp outgoingDataRate:vector:starttime 0.10000000000000001
scalar PIM_SM_Network.Receiver2.udp outgoingDataRate:vector:endtime 300
scalar PIM_SM_Network.Receiver2.udp packetReceived:vector(packetBytes):count 6
scalar PIM_SM_Network.Receiver2.udp packetReceived:vector(packetBytes):sum 648
scalar PIM_SM_Network.Receiver2.udp packetReceived:vector(packetBytes):sumweights 6
scalar PIM_SM_Network.Receiver2.udp packetReceived:vector(packetBytes):mean 108
scalar PIM_SM_Network.Receiver2.udp packetReceived:vector(packetBytes):stddev 0
scalar PIM_SM_Network.Receiver2.udp packetReceived:vector(packetBytes):min 108
scalar PIM_SM_Network.Receiver2.udp packetReceived:vector(packetBytes):max 108
scalar PIM_SM_Network.Receiver2.udp packetReceived:vector(packetBytes):starttime 38.000061850000009
scalar PIM_SM_Network.Receiver2.udp packetReceived:vector(packetBytes):endtime 163.00006185000004
scalar PIM_SM_Network.Receiver2.udp passedUpPk:vector(count):count 7
scalar PIM_SM_Network.Receiver2.udp passedUpPk:vector(count):sum 21
scalar PIM_SM_Network.Receiver2.udp passedUpPk:vector(count):sumweights 7
scalar PIM_SM_Network.Receiver2.udp passedUpPk:vector(count):mean 3
scalar PIM_SM_Network.Receiver2.udp passedUpPk:vector(count):stddev 2.1602468994692869
scalar PIM_SM_Network.Receiver2.udp passedUpPk:vector(count):min 0
scalar PIM_SM_Network.Receiver2.udp passedUpPk:vector(count):max 6
scalar PIM_SM_Network.Receiver2.udp passedUpPk:vector(count):starttime 0
scalar PIM_SM_Network.Receiver2.udp passedUpPk:vector(count):endtime 163.00006185000004
scalar PIM_SM_Network.Receiver2.udp droppedPkWrongPort:vector(count):count 1
scalar PIM_SM_Network.Receiver2.udp droppedPkWrongPort:vector(count):sum 0
scalar PIM_SM_Network.Receiver2.udp droppedPkWrongPort:vector(count):sumweights 1
scalar PIM_SM_Network.Receiver2.udp droppedPkWrongPort:vector(count):mean 0
scalar PIM_SM_Network.Receiver2.udp droppedPkWrongPort:vector(count):stddev nan
scalar PIM_SM_Network.Receiver2.udp droppedPkWrongPort:vector(count):min 0
scalar PIM_SM_Network.Receiver2.udp droppedPkWrongPort:vector(count):max 0
scalar PIM_SM_Network.Receiver2.udp droppedPkWrongPort:vector(count):starttime 0
scalar PIM_SM_Network.Receiver2.udp droppedPkWrongPort:vector(count):endtime 0
scalar PIM_SM_Network.Receiver2.udp droppedPkBadChecksum:vector(count):count 1
scalar PIM_SM_Network.Receiver2.udp droppedPkBadChecksum:vector(count):sum 0
scalar PIM_SM_Network.Receiver2.udp droppedPkBadChecksum:vector(count):sumweights 1
scalar PIM_SM_Network.Receiver2.udp droppedPkBadChecksum:vector(count):mean 0
scalar PIM_SM_Network.Receiver2.udp droppedPkBadChecksum:vector(count):stddev nan
scalar PIM_SM_Network.Receiver2.udp droppedPkBadChecksum:vector(count):min 0
scalar PIM_SM_Network.Receiver2.udp droppedPkBadChecksum:vector(count):max 0
scalar PIM_SM_Network.Receiver2.udp droppedPkBadChecksum:vector(count):starttime 0
scalar PIM_SM_Network.Receiver2.udp droppedPkBadChecksum:vector(count):endtime 0
scalar PIM_SM_Network.Receiver2.app[0] packetReceived:vector(packetBytes):count 6
scalar PIM_SM_Network.Receiver2.app[0] packetReceived:vector(packetBytes):sum 600
scalar PIM_SM_Network.Receiver2.app[0] packetReceived:vector(packetBytes):sumweights 6
scalar PIM_SM_Network.Receiver2.app[0] packetReceived:vector(packetBytes):mean 100
scalar PIM_SM_Network.Receiver2.app[0] packetReceived:vector(packetBytes):stddev 0
scalar PIM_SM_Network.Receiver2.app[0] packetReceived:vector(packetBytes):min 100
scalar PIM_SM_Network.Receiver2.app[0] packetReceived:vector(packetBytes):max 100
scalar PIM_SM_Network.Receiver2.app[0] packetReceived:vector(packetBytes):starttime 38.000061850000009
scalar PIM_SM_Network.Receiver2.app[0] packetReceived:vector(packetBytes):endtime 163.00006185000004
scalar PIM_SM_Network.Receiver2.app[0] throughput:vector:count 3000
scalar PIM_SM_Network.Receiver2.app[0] throughput:vector:sum 48000.000000000007
scalar PIM_SM_Network.Receiver2.app[0] throughput:vector:sumweights 3000
scalar PIM_SM_Network.Receiver2.app[0] throughput:vector:mean 16.000000000000004
scalar PIM_SM_Network.Receiver2.app[0] throughput:vector:stddev 357.47251017643856
scalar PIM_SM_Network.Receiver2.app[0] throughput:vector:min 0
scalar PIM_SM_Network.Receiver2.app[0] throughput:vector:max 8000.0000000000009
scalar PIM_SM_Network.Receiver2.app[0] throughput:vector:starttime 0.10000000000000001
scalar PIM_SM_Network.Receiver2.app[0] throughput:vector:endtime 300
scalar PIM_SM_Network.Receiver2.app[0] endToEndDelay:vector:count 6
scalar PIM_SM_Network.Receiver2.app[0] endToEndDelay:vector:sum 0.00037110000000000002
scalar PIM_SM_Network.Receiver2.app[0] endToEndDelay:vector:sumweights 6
scalar PIM_SM_Network.Receiver2.app[0] endToEndDelay:vector:mean 6.1849999999999999e-05
scalar PIM_SM_Network.Receiver2.app[0] endToEndDelay:vector:stddev 0
scalar PIM_SM_Network.Receiver2.app[0] endToEndDelay:vector:min 6.1849999999999999e-05
scalar PIM_SM_Network.Receiver2.app[0] endToEndDelay:vector:max 6.1849999999999999e-05
scalar PIM_SM_Network.Receiver2.app[0] endToEndDelay:vector:starttime 38.000061850000009
scalar PIM_SM_Network.Receiver2.app[0] endToEndDelay:vector:endtime 163.00006185000004
scalar PIM_SM_Network.Receiver2.app[0] rcvdPkSeqNo:vector:count 6
scalar PIM_SM_Network.Receiver2.app[0] rcvdPkSeqNo:vector:sum 21
scalar PIM_SM_Network.Receiver2.app[0] rcvdPkSeqNo:vector:sumweights 6
scalar PIM_SM_Network.Receiver2.app[0] rcvdPkSeqNo:vector:mean 3.5
scalar PIM_SM_Network.Receiver2.app[0] rcvdPkSeqNo:vector:stddev 1.8708286933869707
scalar PIM_SM_Network.Receiver2.app[0] rcvdPkSeqNo:vector:min 1
scalar PIM_SM_Network.Receiver2.app[0] rcvdPkSeqNo:vector:max 6
scalar PIM_SM_Network.Receiver2.app[0] rcvdPkSeqNo:vector:starttime 38.000061850000009
scalar PIM_SM_Network.Receiver2.app[0] rcvdPkSeqNo:vector:endtime 163.00006185000004

