version 3
run MacQos-0-20240115-11:28:40-15352
attr configname MacQos
attr datetime 20240115-11:28:40
attr datetimef 20240115-112840
attr experiment MacQos
attr inifile omnetpp.ini
attr iterationvars ""
attr iterationvarsd ""
attr iterationvarsf ""
attr measurement ""
attr network QosThroughput
attr processid 15352
attr repetition 0
attr replication #0
attr resultdir results
attr runnumber 0
attr seedset 0
config **.param-recording false
config **.vector-recording false
config image-path /home/levy/workspace/inet/images
config output-scalar-file results/omnetpp.ini-MacQos-#0.sca
config sim-time-limit 10s
config sim-time-limit 10s
config extends MacNonQos
config **.wlan[*].classifier.typename ExampleQosClassifier
config **.mac.hcf.edca.edcaf[*].pendingQueue.packetCapacity -1
config **.mac.qosStation true
config **.mac.hcf.originatorMacDataService.msduAggregationPolicy.typename BasicMsduAggregationPolicy
config sim-time-limit 10s
config **.wlan[*].mac.typename Ieee80211Mac
config **.mac.dcf.channelAccess.pendingQueue.packetCapacity -1
config network QosThroughput
config **.constraintAreaMinX 0m
config **.constraintAreaMinY 0m
config **.constraintAreaMinZ 0m
config **.constraintAreaMaxX 400m
config **.constraintAreaMaxY 400m
config **.constraintAreaMaxZ 0m
config **.mobility.initFromDisplayString false
config **.cliHost.mobility.initialX 100m
config **.cliHost.mobility.initialY 100m
config **.srvHost.mobility.initialX 300m
config **.srvHost.mobility.initialY 100m
config **.ap.mobility.initialX 200m
config **.ap.mobility.initialY 200m
config **.mobility.initialZ 0m
config **.opMode "\"g(mixed)\""
config **.ap.wlan[*].address "\"10:00:00:00:00:00\""
config **.radio.transmitter.power 2000mW
config **.radio.receiver.sensitivity -85dBm
config **.radio.receiver.snirThreshold 4dB
config **.cliHost.numApps 4
config **.cliHost.app[*].typename UdpBasicApp
config **.cliHost.app[*].destAddresses "\"srvHost\""
config **.cliHost.app[0].destPort 21
config **.cliHost.app[1].destPort 80
config **.cliHost.app[2].destPort 4000
config **.cliHost.app[3].destPort 5000
config **.cliHost.app[0].packetName "\"FTP\""
config **.cliHost.app[1].packetName "\"WWW\""
config **.cliHost.app[2].packetName "\"Video\""
config **.cliHost.app[3].packetName "\"Voice\""
config **.cliHost.app[*].startTime 1.0s+this.sendInterval*index/4
config **.cliHost.app[*].stopTime 6.0s
config **.cliHost.app[*].messageLength 100B
config **.cliHost.app[*].sendInterval 0.001s
config **.srvHost.numApps 4
config **.srvHost.app[*].typename UdpSink
config **.srvHost.app[0].localPort 21
config **.srvHost.app[1].localPort 80
config **.srvHost.app[2].localPort 4000
config **.srvHost.app[3].localPort 5000

scalar QosThroughput.ap.wlan[0].mac.dcf.channelAccess.pendingQueue queueLength:last 0
attr autoWarmupFilter false
attr interpolationmode sample-hold
attr recordingmode last
attr source "warmup(atomic(constant0(packetPushEnded) + count(packetPushStarted) - count(packetPulled) - count(packetRemoved) - count(packetDropped)))"
attr title "queue length, last"
attr unit pk
scalar QosThroughput.ap.wlan[0].mac.dcf.channelAccess.pendingQueue queueLength:max 0
attr autoWarmupFilter false
attr interpolationmode sample-hold
attr recordingmode max
attr source "warmup(atomic(constant0(packetPushEnded) + count(packetPushStarted) - count(packetPulled) - count(packetRemoved) - count(packetDropped)))"
attr title "queue length, max"
attr unit pk
scalar QosThroughput.ap.wlan[0].mac.dcf.channelAccess.pendingQueue queueLength:timeavg 0
attr autoWarmupFilter false
attr interpolationmode sample-hold
attr recordingmode timeavg
attr source "warmup(atomic(constant0(packetPushEnded) + count(packetPushStarted) - count(packetPulled) - count(packetRemoved) - count(packetDropped)))"
attr title "queue length, timeavg"
attr unit pk
scalar QosThroughput.ap.wlan[0].mac.dcf.channelAccess.pendingQueue queueBitLength:last 0
attr autoWarmupFilter false
attr interpolationmode sample-hold
attr recordingmode last
attr source "warmup(atomic(constant0(packetPushEnded) + sum(packetLength(packetPushStarted)) - sum(packetLength(packetPulled)) - sum(packetLength(packetRemoved)) - sum(packetLength(packetDropped))))"
attr title "queue bit length, last"
attr unit b
scalar QosThroughput.ap.wlan[0].mac.dcf.channelAccess.pendingQueue queueBitLength:max 0
attr autoWarmupFilter false
attr interpolationmode sample-hold
attr recordingmode max
attr source "warmup(atomic(constant0(packetPushEnded) + sum(packetLength(packetPushStarted)) - sum(packetLength(packetPulled)) - sum(packetLength(packetRemoved)) - sum(packetLength(packetDropped))))"
attr title "queue bit length, max"
attr unit b
scalar QosThroughput.ap.wlan[0].mac.dcf.channelAccess.pendingQueue queueBitLength:timeavg 0
attr autoWarmupFilter false
attr interpolationmode sample-hold
attr recordingmode timeavg
attr source "warmup(atomic(constant0(packetPushEnded) + sum(packetLength(packetPushStarted)) - sum(packetLength(packetPulled)) - sum(packetLength(packetRemoved)) - sum(packetLength(packetDropped))))"
attr title "queue bit length, timeavg"
attr unit b
statistic QosThroughput.ap.wlan[0].mac.dcf.channelAccess.pendingQueue queueingTime:histogram
field count 0
field mean -nan
field stddev nan
field min nan
field max nan
field sum 0
field sqrsum 0
attr interpolationmode none
attr recordingmode histogram
attr source queueingTime(packetPulled)
attr title "queueing times"
attr unit s
bin	-inf	0
bin	0	0
bin	1	0
scalar QosThroughput.ap.wlan[0].mac.dcf.channelAccess.pendingQueue outgoingPackets:count 0
attr recordingmode count
attr source packetPulled
attr title "outgoing packets, count"
attr unit pk
scalar QosThroughput.ap.wlan[0].mac.dcf.channelAccess.pendingQueue outgoingPacketLengths:sum 0
attr interpolationmode none
attr recordingmode sum
attr source packetLength(packetPulled)
attr title "outgoing packet lengths, sum"
attr unit b
statistic QosThroughput.ap.wlan[0].mac.dcf.channelAccess.pendingQueue outgoingPacketLengths:histogram
field count 0
field mean -nan
field stddev nan
field min nan
field max nan
field sum 0
field sqrsum 0
attr interpolationmode none
attr recordingmode histogram
attr source packetLength(packetPulled)
attr title "outgoing packet lengths"
attr unit b
bin	-inf	0
bin	0	0
bin	1	0
statistic QosThroughput.ap.wlan[0].mac.dcf.channelAccess.pendingQueue flowQueueingTime:histogram
field count 0
field mean -nan
field stddev nan
field min nan
field max nan
field sum 0
field sqrsum 0
attr interpolationmode none
attr recordingmode histogram
attr source queueingTime(demuxFlow(packetPulled))
attr title "flow queueing times"
attr unit s
bin	-inf	0
bin	0	0
bin	1	0
scalar QosThroughput.ap.wlan[0].mac.dcf.channelAccess.pendingQueue incomingPackets:count 0
attr recordingmode count
attr source packetPushStarted
attr title "incoming packets, count"
attr unit pk
scalar QosThroughput.ap.wlan[0].mac.dcf.channelAccess.pendingQueue incomingPacketLengths:sum 0
attr interpolationmode none
attr recordingmode sum
attr source packetLength(packetPushStarted)
attr title "incoming packet lengths, sum"
attr unit b
statistic QosThroughput.ap.wlan[0].mac.dcf.channelAccess.pendingQueue incomingPacketLengths:histogram
field count 0
field mean -nan
field stddev nan
field min nan
field max nan
field sum 0
field sqrsum 0
attr interpolationmode none
attr recordingmode histogram
attr source packetLength(packetPushStarted)
attr title "incoming packet lengths"
attr unit b
bin	-inf	0
bin	0	0
bin	1	0
scalar QosThroughput.ap.wlan[0].mac.dcf.channelAccess.pendingQueue droppedPacketsQueueOverflow:count 0
attr interpolationmode none
attr recordingmode count
attr source packetDropReasonIsQueueOverflow(packetDropped)
attr title "dropped packets: queue overflow, count"
attr unit pk
scalar QosThroughput.ap.wlan[0].mac.dcf.channelAccess.pendingQueue droppedPacketLengthsQueueOverflow:sum 0
attr interpolationmode none
attr recordingmode sum
attr source packetLength(packetDropReasonIsQueueOverflow(packetDropped))
attr title "dropped packet lengths: queue overflow, sum"
attr unit b
statistic QosThroughput.ap.wlan[0].mac.dcf.channelAccess.inProgressFrames queueingTime:histogram
field count 0
field mean -nan
field stddev nan
field min nan
field max nan
field sum 0
field sqrsum 0
attr interpolationmode none
attr recordingmode histogram
attr source queueingTime(packetDequeued)
attr title "queueing times"
bin	-inf	0
bin	0	0
bin	1	0
scalar QosThroughput.ap.wlan[0].mac.dcf.channelAccess.inProgressFrames queueLength:max 0
attr autoWarmupFilter false
attr interpolationmode sample-hold
attr recordingmode max
attr source "warmup(count(packetEnqueued) - count(packetDequeued))"
attr title "queue length, max"
scalar QosThroughput.ap.wlan[0].mac.dcf.channelAccess.inProgressFrames queueLength:timeavg 0
attr autoWarmupFilter false
attr interpolationmode sample-hold
attr recordingmode timeavg
attr source "warmup(count(packetEnqueued) - count(packetDequeued))"
attr title "queue length, timeavg"
scalar QosThroughput.ap.wlan[0].mac.dcf.channelAccess.contention channelAccessGranted:count 0
attr recordingmode count
attr title "channel access granted, count"
scalar QosThroughput.ap.wlan[0].mac.dcf.channelAccess.contention stateChanged:count 94382
attr enum IDLE,DEFER,IFS_AND_BACKOFF
attr interpolationmode none
attr recordingmode count
attr title "contention state changed, count"
attr type enum
scalar QosThroughput.ap.wlan[0].mac.dcf.channelAccess channelOwnershipChanged:count 0
attr interpolationmode sample-hold
attr recordingmode count
attr title "channel ownership, count"
scalar QosThroughput.ap.wlan[0].mac.dcf.originatorMacDataService packetAggregated:count 0
attr recordingmode count
attr title "packets aggregated, count"
scalar QosThroughput.ap.wlan[0].mac.dcf.originatorMacDataService packetFragmented:count 0
attr recordingmode count
attr title "packets fragmented, count"
scalar QosThroughput.ap.wlan[0].mac.dcf.recipientMacDataService packetDeaggregated:count 0
attr recordingmode count
attr title "packets deaggregated, count"
scalar QosThroughput.ap.wlan[0].mac.dcf.recipientMacDataService packetDefragmented:count 0
attr recordingmode count
attr title "packets defragmented, count"
scalar QosThroughput.ap.wlan[0].mac.dcf.recipientMacDataService packetDropDuplicateDetected:count 0
attr interpolationmode none
attr recordingmode count
attr source packetDropReasonIsDuplicateDetected(packetDropped)
attr title "packet drops: duplicate detected, count"
scalar QosThroughput.ap.wlan[0].mac.dcf.recipientMacDataService packetDropDuplicateDetected:sum(packetBytes) 0
attr interpolationmode none
attr recordingmode sum(packetBytes)
attr source packetDropReasonIsDuplicateDetected(packetDropped)
attr title "packet drops: duplicate detected, sum(packetBytes)"
scalar QosThroughput.ap.wlan[0].mac.dcf.recoveryProcedure retryLimitReached:count 0
attr recordingmode count
attr title "retry limit reached, count"
scalar QosThroughput.ap.wlan[0].mac.dcf frameSequenceFinished:count 0
attr recordingmode count
attr title "finished frame sequences, count"
statistic QosThroughput.ap.wlan[0].mac.dcf frameSequenceDuration:histogram
field count 0
field mean -nan
field stddev nan
field min nan
field max nan
field sum 0
field sqrsum 0
attr recordingmode histogram
attr source frameSequenceDuration(frameSequenceFinished)
attr title "frame sequence durations"
bin	-inf	0
bin	0	0
bin	1	0
statistic QosThroughput.ap.wlan[0].mac.dcf frameSequenceNumPackets:histogram
field count 0
field mean -nan
field stddev nan
field min nan
field max nan
field sum 0
field sqrsum 0
attr recordingmode histogram
attr source frameSequenceNumPackets(frameSequenceFinished)
attr title "frame sequences: number of packets"
bin	-inf	0
bin	0	0
bin	1	0
scalar QosThroughput.ap.wlan[0].mac.dcf packetReceivedFromPeer:count 0
attr interpolationmode none
attr recordingmode count
attr title "packets received, count"
scalar QosThroughput.ap.wlan[0].mac.dcf packetReceivedFromPeer:sum(packetBytes) 0
attr interpolationmode none
attr recordingmode sum(packetBytes)
attr title "packets received, sum(packetBytes)"
scalar QosThroughput.ap.wlan[0].mac.dcf packetReceivedFromPeerUnicast:count 0
attr interpolationmode none
attr recordingmode count
attr source ieee80211Unicast(packetReceivedFromPeer)
attr title "packets received: unicast, count"
scalar QosThroughput.ap.wlan[0].mac.dcf packetReceivedFromPeerUnicast:sum(packetBytes) 0
attr interpolationmode none
attr recordingmode sum(packetBytes)
attr source ieee80211Unicast(packetReceivedFromPeer)
attr title "packets received: unicast, sum(packetBytes)"
scalar QosThroughput.ap.wlan[0].mac.dcf packetReceivedFromPeerMulticast:count 0
attr interpolationmode none
attr recordingmode count
attr source ieee80211Multicast(packetReceivedFromPeer)
attr title "packets received: multicast, count"
scalar QosThroughput.ap.wlan[0].mac.dcf packetReceivedFromPeerMulticast:sum(packetBytes) 0
attr interpolationmode none
attr recordingmode sum(packetBytes)
attr source ieee80211Multicast(packetReceivedFromPeer)
attr title "packets received: multicast, sum(packetBytes)"
scalar QosThroughput.ap.wlan[0].mac.dcf packetReceivedFromPeerBroadcast:count 0
attr interpolationmode none
attr recordingmode count
attr source ieee80211Broadcast(packetReceivedFromPeer)
attr title "packets received: broadcast, count"
scalar QosThroughput.ap.wlan[0].mac.dcf packetReceivedFromPeerBroadcast:sum(packetBytes) 0
attr interpolationmode none
attr recordingmode sum(packetBytes)
attr source ieee80211Broadcast(packetReceivedFromPeer)
attr title "packets received: broadcast, sum(packetBytes)"
scalar QosThroughput.ap.wlan[0].mac.dcf packetReceivedFromPeerWithRetry:count 0
attr interpolationmode none
attr recordingmode count
attr source ieee80211Retry(packetReceivedFromPeer)
attr title "packets received: with retry, count"
scalar QosThroughput.ap.wlan[0].mac.dcf packetReceivedFromPeerWithRetry:sum(packetBytes) 0
attr interpolationmode none
attr recordingmode sum(packetBytes)
attr source ieee80211Retry(packetReceivedFromPeer)
attr title "packets received: with retry, sum(packetBytes)"
scalar QosThroughput.ap.wlan[0].mac.dcf packetReceivedFromPeerWithoutRetry:count 0
attr interpolationmode none
attr recordingmode count
attr source ieee80211NotRetry(packetReceivedFromPeer)
attr title "packets received: without retry, count"
scalar QosThroughput.ap.wlan[0].mac.dcf packetReceivedFromPeerWithoutRetry:sum(packetBytes) 0
attr interpolationmode none
attr recordingmode sum(packetBytes)
attr source ieee80211NotRetry(packetReceivedFromPeer)
attr title "packets received: without retry, sum(packetBytes)"
scalar QosThroughput.ap.wlan[0].mac.dcf packetSentToPeer:count 0
attr interpolationmode none
attr recordingmode count
attr title "packets sent, count"
scalar QosThroughput.ap.wlan[0].mac.dcf packetSentToPeer:sum(packetBytes) 0
attr interpolationmode none
attr recordingmode sum(packetBytes)
attr title "packets sent, sum(packetBytes)"
scalar QosThroughput.ap.wlan[0].mac.dcf packetSentToPeerUnicast:count 0
attr interpolationmode none
attr recordingmode count
attr source ieee80211Unicast(packetSentToPeer)
attr title "packets sent: unicast, count"
scalar QosThroughput.ap.wlan[0].mac.dcf packetSentToPeerUnicast:sum(packetBytes) 0
attr interpolationmode none
attr recordingmode sum(packetBytes)
attr source ieee80211Unicast(packetSentToPeer)
attr title "packets sent: unicast, sum(packetBytes)"
scalar QosThroughput.ap.wlan[0].mac.dcf packetSentToPeerMulticast:count 0
attr interpolationmode none
attr recordingmode count
attr source ieee80211Multicast(packetSentToPeer)
attr title "packets sent: multicast, count"
scalar QosThroughput.ap.wlan[0].mac.dcf packetSentToPeerMulticast:sum(packetBytes) 0
attr interpolationmode none
attr recordingmode sum(packetBytes)
attr source ieee80211Multicast(packetSentToPeer)
attr title "packets sent: multicast, sum(packetBytes)"
scalar QosThroughput.ap.wlan[0].mac.dcf packetSentToPeerBroadcast:count 0
attr interpolationmode none
attr recordingmode count
attr source ieee80211Broadcast(packetSentToPeer)
attr title "packets sent: broadcast , count"
scalar QosThroughput.ap.wlan[0].mac.dcf packetSentToPeerBroadcast:sum(packetBytes) 0
attr interpolationmode none
attr recordingmode sum(packetBytes)
attr source ieee80211Broadcast(packetSentToPeer)
attr title "packets sent: broadcast , sum(packetBytes)"
scalar QosThroughput.ap.wlan[0].mac.dcf packetSentToPeerWithRetry:count 0
attr interpolationmode none
attr recordingmode count
attr source ieee80211Retry(packetSentToPeer)
attr title "packets sent: with retry, count"
scalar QosThroughput.ap.wlan[0].mac.dcf packetSentToPeerWithRetry:sum(packetBytes) 0
attr interpolationmode none
attr recordingmode sum(packetBytes)
attr source ieee80211Retry(packetSentToPeer)
attr title "packets sent: with retry, sum(packetBytes)"
scalar QosThroughput.ap.wlan[0].mac.dcf packetSentToPeerWithoutRetry:count 0
attr interpolationmode none
attr recordingmode count
attr source ieee80211NotRetry(packetSentToPeer)
attr title "packets sent: without retry, count"
scalar QosThroughput.ap.wlan[0].mac.dcf packetSentToPeerWithoutRetry:sum(packetBytes) 0
attr interpolationmode none
attr recordingmode sum(packetBytes)
attr source ieee80211NotRetry(packetSentToPeer)
attr title "packets sent: without retry, sum(packetBytes)"
scalar QosThroughput.ap.wlan[0].mac.dcf packetDrop:count 0
attr interpolationmode none
attr recordingmode count
attr source packetDropped
attr title "packet drops, count"
scalar QosThroughput.ap.wlan[0].mac.dcf packetDrop:sum(packetBytes) 0
attr interpolationmode none
attr recordingmode sum(packetBytes)
attr source packetDropped
attr title "packet drops, sum(packetBytes)"
scalar QosThroughput.ap.wlan[0].mac.dcf packetDropNotAddressedToUs:count 0
attr interpolationmode none
attr recordingmode count
attr source packetDropReasonIsNotAddressedToUs(packetDropped)
attr title "packet drops: not addressed to us, count"
scalar QosThroughput.ap.wlan[0].mac.dcf packetDropNotAddressedToUs:sum(packetBytes) 0
attr interpolationmode none
attr recordingmode sum(packetBytes)
attr source packetDropReasonIsNotAddressedToUs(packetDropped)
attr title "packet drops: not addressed to us, sum(packetBytes)"
scalar QosThroughput.ap.wlan[0].mac.dcf packetDropQueueOverflow:count 0
attr interpolationmode none
attr recordingmode count
attr source packetDropReasonIsQueueOverflow(packetDropped)
attr title "packet drops: queue overflow, count"
scalar QosThroughput.ap.wlan[0].mac.dcf packetDropQueueOverflow:sum(packetBytes) 0
attr interpolationmode none
attr recordingmode sum(packetBytes)
attr source packetDropReasonIsQueueOverflow(packetDropped)
attr title "packet drops: queue overflow, sum(packetBytes)"
scalar QosThroughput.ap.wlan[0].mac.dcf packetDropRetryLimitReached:count 0
attr interpolationmode none
attr recordingmode count
attr source packetDropReasonIsRetryLimitReached(packetDropped)
attr title "packet drops: retry limit reached, count"
scalar QosThroughput.ap.wlan[0].mac.dcf packetDropRetryLimitReached:sum(packetBytes) 0
attr interpolationmode none
attr recordingmode sum(packetBytes)
attr source packetDropReasonIsRetryLimitReached(packetDropped)
attr title "packet drops: retry limit reached, sum(packetBytes)"
scalar QosThroughput.ap.wlan[0].mac.dcf linkBroken:count 0
attr interpolationmode none
attr recordingmode count
attr title "link breaks, count"
scalar QosThroughput.ap.wlan[0].mac.hcf.edca.edcaf[0].pendingQueue queueLength:last 0
attr autoWarmupFilter false
attr interpolationmode sample-hold
attr recordingmode last
attr source "warmup(atomic(constant0(packetPushEnded) + count(packetPushStarted) - count(packetPulled) - count(packetRemoved) - count(packetDropped)))"
attr title "queue length, last"
attr unit pk
scalar QosThroughput.ap.wlan[0].mac.hcf.edca.edcaf[0].pendingQueue queueLength:max 135
attr autoWarmupFilter false
attr interpolationmode sample-hold
attr recordingmode max
attr source "warmup(atomic(constant0(packetPushEnded) + count(packetPushStarted) - count(packetPulled) - count(packetRemoved) - count(packetDropped)))"
attr title "queue length, max"
attr unit pk
scalar QosThroughput.ap.wlan[0].mac.hcf.edca.edcaf[0].pendingQueue queueLength:timeavg 14.358705877957
attr autoWarmupFilter false
attr interpolationmode sample-hold
attr recordingmode timeavg
attr source "warmup(atomic(constant0(packetPushEnded) + count(packetPushStarted) - count(packetPulled) - count(packetRemoved) - count(packetDropped)))"
attr title "queue length, timeavg"
attr unit pk
scalar QosThroughput.ap.wlan[0].mac.hcf.edca.edcaf[0].pendingQueue queueBitLength:last 0
attr autoWarmupFilter false
attr interpolationmode sample-hold
attr recordingmode last
attr source "warmup(atomic(constant0(packetPushEnded) + sum(packetLength(packetPushStarted)) - sum(packetLength(packetPulled)) - sum(packetLength(packetRemoved)) - sum(packetLength(packetDropped))))"
attr title "queue bit length, last"
attr unit b
scalar QosThroughput.ap.wlan[0].mac.hcf.edca.edcaf[0].pendingQueue queueBitLength:max 179280
attr autoWarmupFilter false
attr interpolationmode sample-hold
attr recordingmode max
attr source "warmup(atomic(constant0(packetPushEnded) + sum(packetLength(packetPushStarted)) - sum(packetLength(packetPulled)) - sum(packetLength(packetRemoved)) - sum(packetLength(packetDropped))))"
attr title "queue bit length, max"
attr unit b
scalar QosThroughput.ap.wlan[0].mac.hcf.edca.edcaf[0].pendingQueue queueBitLength:timeavg 19068.361405927
attr autoWarmupFilter false
attr interpolationmode sample-hold
attr recordingmode timeavg
attr source "warmup(atomic(constant0(packetPushEnded) + sum(packetLength(packetPushStarted)) - sum(packetLength(packetPulled)) - sum(packetLength(packetRemoved)) - sum(packetLength(packetDropped))))"
attr title "queue bit length, timeavg"
attr unit b
statistic QosThroughput.ap.wlan[0].mac.hcf.edca.edcaf[0].pendingQueue queueingTime:histogram
field count 0
field mean -nan
field stddev nan
field min nan
field max nan
field sum 0
field sqrsum 0
attr interpolationmode none
attr recordingmode histogram
attr source queueingTime(packetPulled)
attr title "queueing times"
attr unit s
bin	-inf	0
bin	0	0
bin	1	0
scalar QosThroughput.ap.wlan[0].mac.hcf.edca.edcaf[0].pendingQueue outgoingPackets:count 0
attr recordingmode count
attr source packetPulled
attr title "outgoing packets, count"
attr unit pk
scalar QosThroughput.ap.wlan[0].mac.hcf.edca.edcaf[0].pendingQueue outgoingPacketLengths:sum 0
attr interpolationmode none
attr recordingmode sum
attr source packetLength(packetPulled)
attr title "outgoing packet lengths, sum"
attr unit b
statistic QosThroughput.ap.wlan[0].mac.hcf.edca.edcaf[0].pendingQueue outgoingPacketLengths:histogram
field count 0
field mean -nan
field stddev nan
field min nan
field max nan
field sum 0
field sqrsum 0
attr interpolationmode none
attr recordingmode histogram
attr source packetLength(packetPulled)
attr title "outgoing packet lengths"
attr unit b
bin	-inf	0
bin	0	0
bin	1	0
statistic QosThroughput.ap.wlan[0].mac.hcf.edca.edcaf[0].pendingQueue flowQueueingTime:histogram
field count 0
field mean -nan
field stddev nan
field min nan
field max nan
field sum 0
field sqrsum 0
attr interpolationmode none
attr recordingmode histogram
attr source queueingTime(demuxFlow(packetPulled))
attr title "flow queueing times"
attr unit s
bin	-inf	0
bin	0	0
bin	1	0
scalar QosThroughput.ap.wlan[0].mac.hcf.edca.edcaf[0].pendingQueue incomingPackets:count 5000
attr recordingmode count
attr source packetPushStarted
attr title "incoming packets, count"
attr unit pk
scalar QosThroughput.ap.wlan[0].mac.hcf.edca.edcaf[0].pendingQueue incomingPacketLengths:sum 6640000
attr interpolationmode none
attr recordingmode sum
attr source packetLength(packetPushStarted)
attr title "incoming packet lengths, sum"
attr unit b
statistic QosThroughput.ap.wlan[0].mac.hcf.edca.edcaf[0].pendingQueue incomingPacketLengths:histogram
field count 5000
field mean 1328
field stddev 0
field min 1328
field max 1328
field sum 6640000
field sqrsum 8817920000
attr interpolationmode none
attr recordingmode histogram
attr source packetLength(packetPushStarted)
attr title "incoming packet lengths"
attr unit b
bin	-inf	0
bin	1327	0
bin	1328	5000
bin	1329	0
scalar QosThroughput.ap.wlan[0].mac.hcf.edca.edcaf[0].pendingQueue droppedPacketsQueueOverflow:count 0
attr interpolationmode none
attr recordingmode count
attr source packetDropReasonIsQueueOverflow(packetDropped)
attr title "dropped packets: queue overflow, count"
attr unit pk
scalar QosThroughput.ap.wlan[0].mac.hcf.edca.edcaf[0].pendingQueue droppedPacketLengthsQueueOverflow:sum 0
attr interpolationmode none
attr recordingmode sum
attr source packetLength(packetDropReasonIsQueueOverflow(packetDropped))
attr title "dropped packet lengths: queue overflow, sum"
attr unit b
statistic QosThroughput.ap.wlan[0].mac.hcf.edca.edcaf[0].inProgressFrames queueingTime:histogram
field count 556
field mean 0.019613534736547
field stddev 0.049783072737364
field min 0.000574943462
field max 0.461940474038
field sum 10.90512531352
field sqrsum 1.5893747079445
attr interpolationmode none
attr recordingmode histogram
attr source queueingTime(packetDequeued)
attr title "queueing times"
bin	-inf	0
bin	0	444
bin	0.01	44
bin	0.02	7
bin	0.03	2
bin	0.04	7
bin	0.05	8
bin	0.06	4
bin	0.07	1
bin	0.08	3
bin	0.09	2
bin	0.1	7
bin	0.11	2
bin	0.12	2
bin	0.13	3
bin	0.14	0
bin	0.15	1
bin	0.16	2
bin	0.17	1
bin	0.18	1
bin	0.19	3
bin	0.2	1
bin	0.21	1
bin	0.22	2
bin	0.23	2
bin	0.24	1
bin	0.25	0
bin	0.26	1
bin	0.27	0
bin	0.28	1
bin	0.29	0
bin	0.3	0
bin	0.31	0
bin	0.32	1
bin	0.33	0
bin	0.34	0
bin	0.35	0
bin	0.36	0
bin	0.37	0
bin	0.38	0
bin	0.39	0
bin	0.4	0
bin	0.41	0
bin	0.42	0
bin	0.43	1
bin	0.44	0
bin	0.45	0
bin	0.46	1
bin	0.47	0
bin	0.48	0
bin	0.49	0
bin	0.5	0
bin	0.51	0
bin	0.52	0
bin	0.53	0
bin	0.54	0
bin	0.55	0
bin	0.56	0
bin	0.57	0
bin	0.58	0
scalar QosThroughput.ap.wlan[0].mac.hcf.edca.edcaf[0].inProgressFrames queueLength:max 4
attr autoWarmupFilter false
attr interpolationmode sample-hold
attr recordingmode max
attr source "warmup(count(packetEnqueued) - count(packetDequeued))"
attr title "queue length, max"
scalar QosThroughput.ap.wlan[0].mac.hcf.edca.edcaf[0].inProgressFrames queueLength:timeavg 1.090512531352
attr autoWarmupFilter false
attr interpolationmode sample-hold
attr recordingmode timeavg
attr source "warmup(count(packetEnqueued) - count(packetDequeued))"
attr title "queue length, timeavg"
scalar QosThroughput.ap.wlan[0].mac.hcf.edca.edcaf[0].contention channelAccessGranted:count 587
attr recordingmode count
attr title "channel access granted, count"
scalar QosThroughput.ap.wlan[0].mac.hcf.edca.edcaf[0].contention stateChanged:count 96730
attr enum IDLE,DEFER,IFS_AND_BACKOFF
attr interpolationmode none
attr recordingmode count
attr title "contention state changed, count"
attr type enum
scalar QosThroughput.ap.wlan[0].mac.hcf.edca.edcaf[0].txopProcedure txopEnded:count 568
attr interpolationmode none
attr recordingmode count
attr source txopEnded
attr title "txops ended, count"
statistic QosThroughput.ap.wlan[0].mac.hcf.edca.edcaf[0].txopProcedure txopDuration:histogram
field count 568
field mean 0.00054049395223943
field stddev 5.0235450097331e-05
field min 0.000266943462
field max 0.000585
field sum 0.307000564872
field sqrsum 0.00016736283010056
attr interpolationmode none
attr recordingmode histogram
attr source txopDuration(txopEnded)
attr title "txop duration"
bin	-inf	0
bin	0.00018	0
bin	0.00019	0
bin	0.0002	0
bin	0.00021	0
bin	0.00022	0
bin	0.00023	0
bin	0.00024	0
bin	0.00025	0
bin	0.00026	1
bin	0.00027	0
bin	0.00028	0
bin	0.00029	0
bin	0.0003	0
bin	0.00031	0
bin	0.00032	0
bin	0.00033	0
bin	0.00034	0
bin	0.00035	0
bin	0.00036	0
bin	0.00037	0
bin	0.00038	0
bin	0.00039	0
bin	0.0004	0
bin	0.00041	0
bin	0.00042	0
bin	0.00043	0
bin	0.00044	0
bin	0.00045	0
bin	0.00046	0
bin	0.00047	184
bin	0.00048	2
bin	0.00049	0
bin	0.0005	0
bin	0.00051	0
bin	0.00052	0
bin	0.00053	1
bin	0.00054	0
bin	0.00055	0
bin	0.00056	0
bin	0.00057	370
bin	0.00058	10
bin	0.00059	0
bin	0.0006	0
bin	0.00061	0
bin	0.00062	0
bin	0.00063	0
bin	0.00064	0
bin	0.00065	0
bin	0.00066	0
bin	0.00067	0
scalar QosThroughput.ap.wlan[0].mac.hcf.edca.edcaf[0].recoveryProcedure retryLimitReached:count 0
attr recordingmode count
attr title "retry limit reached, count"
scalar QosThroughput.ap.wlan[0].mac.hcf.edca.edcaf[0] channelOwnershipChanged:count 1136
attr interpolationmode sample-hold
attr recordingmode count
attr title "channel ownership, count"
scalar QosThroughput.ap.wlan[0].mac.hcf.edca.edcaf[0] packetSentToPeer:count 568
attr interpolationmode none
attr recordingmode count
attr title "packets sent, count"
scalar QosThroughput.ap.wlan[0].mac.hcf.edca.edcaf[0] packetSentToPeer:sum(packetBytes) 793692
attr interpolationmode none
attr recordingmode sum(packetBytes)
attr title "packets sent, sum(packetBytes)"
scalar QosThroughput.ap.wlan[0].mac.hcf.edca.edcaf[0] packetSentToPeerUnicast:count 568
attr interpolationmode none
attr recordingmode count
attr source ieee80211Unicast(packetSentToPeer)
attr title "packets sent: unicast, count"
scalar QosThroughput.ap.wlan[0].mac.hcf.edca.edcaf[0] packetSentToPeerUnicast:sum(packetBytes) 793692
attr interpolationmode none
attr recordingmode sum(packetBytes)
attr source ieee80211Unicast(packetSentToPeer)
attr title "packets sent: unicast, sum(packetBytes)"
scalar QosThroughput.ap.wlan[0].mac.hcf.edca.edcaf[0] packetSentToPeerMulticast:count 0
attr interpolationmode none
attr recordingmode count
attr source ieee80211Multicast(packetSentToPeer)
attr title "packets sent: multicast, count"
scalar QosThroughput.ap.wlan[0].mac.hcf.edca.edcaf[0] packetSentToPeerMulticast:sum(packetBytes) 0
attr interpolationmode none
attr recordingmode sum(packetBytes)
attr source ieee80211Multicast(packetSentToPeer)
attr title "packets sent: multicast, sum(packetBytes)"
scalar QosThroughput.ap.wlan[0].mac.hcf.edca.edcaf[0] packetSentToPeerBroadcast:count 0
attr interpolationmode none
attr recordingmode count
attr source ieee80211Broadcast(packetSentToPeer)
attr title "packets sent: broadcast , count"
scalar QosThroughput.ap.wlan[0].mac.hcf.edca.edcaf[0] packetSentToPeerBroadcast:sum(packetBytes) 0
attr interpolationmode none
attr recordingmode sum(packetBytes)
attr source ieee80211Broadcast(packetSentToPeer)
attr title "packets sent: broadcast , sum(packetBytes)"
scalar QosThroughput.ap.wlan[0].mac.hcf.edca.edcaf[0] packetSentToPeerWithRetry:count 12
attr interpolationmode none
attr recordingmode count
attr source ieee80211Retry(packetSentToPeer)
attr title "packets sent: with retry, count"
scalar QosThroughput.ap.wlan[0].mac.hcf.edca.edcaf[0] packetSentToPeerWithRetry:sum(packetBytes) 17384
attr interpolationmode none
attr recordingmode sum(packetBytes)
attr source ieee80211Retry(packetSentToPeer)
attr title "packets sent: with retry, sum(packetBytes)"
scalar QosThroughput.ap.wlan[0].mac.hcf.edca.edcaf[0] packetSentToPeerWithoutRetry:count 556
attr interpolationmode none
attr recordingmode count
attr source ieee80211NotRetry(packetSentToPeer)
attr title "packets sent: without retry, count"
scalar QosThroughput.ap.wlan[0].mac.hcf.edca.edcaf[0] packetSentToPeerWithoutRetry:sum(packetBytes) 776308
attr interpolationmode none
attr recordingmode sum(packetBytes)
attr source ieee80211NotRetry(packetSentToPeer)
attr title "packets sent: without retry, sum(packetBytes)"
scalar QosThroughput.ap.wlan[0].mac.hcf.edca.edcaf[1].pendingQueue queueLength:last 0
attr autoWarmupFilter false
attr interpolationmode sample-hold
attr recordingmode last
attr source "warmup(atomic(constant0(packetPushEnded) + count(packetPushStarted) - count(packetPulled) - count(packetRemoved) - count(packetDropped)))"
attr title "queue length, last"
attr unit pk
scalar QosThroughput.ap.wlan[0].mac.hcf.edca.edcaf[1].pendingQueue queueLength:max 207
attr autoWarmupFilter false
attr interpolationmode sample-hold
attr recordingmode max
attr source "warmup(atomic(constant0(packetPushEnded) + count(packetPushStarted) - count(packetPulled) - count(packetRemoved) - count(packetDropped)))"
attr title "queue length, max"
attr unit pk
scalar QosThroughput.ap.wlan[0].mac.hcf.edca.edcaf[1].pendingQueue queueLength:timeavg 13.909490776185
attr autoWarmupFilter false
attr interpolationmode sample-hold
attr recordingmode timeavg
attr source "warmup(atomic(constant0(packetPushEnded) + count(packetPushStarted) - count(packetPulled) - count(packetRemoved) - count(packetDropped)))"
attr title "queue length, timeavg"
attr unit pk
scalar QosThroughput.ap.wlan[0].mac.hcf.edca.edcaf[1].pendingQueue queueBitLength:last 0
attr autoWarmupFilter false
attr interpolationmode sample-hold
attr recordingmode last
attr source "warmup(atomic(constant0(packetPushEnded) + sum(packetLength(packetPushStarted)) - sum(packetLength(packetPulled)) - sum(packetLength(packetRemoved)) - sum(packetLength(packetDropped))))"
attr title "queue bit length, last"
attr unit b
scalar QosThroughput.ap.wlan[0].mac.hcf.edca.edcaf[1].pendingQueue queueBitLength:max 274896
attr autoWarmupFilter false
attr interpolationmode sample-hold
attr recordingmode max
attr source "warmup(atomic(constant0(packetPushEnded) + sum(packetLength(packetPushStarted)) - sum(packetLength(packetPulled)) - sum(packetLength(packetRemoved)) - sum(packetLength(packetDropped))))"
attr title "queue bit length, max"
attr unit b
scalar QosThroughput.ap.wlan[0].mac.hcf.edca.edcaf[1].pendingQueue queueBitLength:timeavg 18471.729510773
attr autoWarmupFilter false
attr interpolationmode sample-hold
attr recordingmode timeavg
attr source "warmup(atomic(constant0(packetPushEnded) + sum(packetLength(packetPushStarted)) - sum(packetLength(packetPulled)) - sum(packetLength(packetRemoved)) - sum(packetLength(packetDropped))))"
attr title "queue bit length, timeavg"
attr unit b
statistic QosThroughput.ap.wlan[0].mac.hcf.edca.edcaf[1].pendingQueue queueingTime:histogram
field count 11
field mean 1.9567877628508
field stddev 0.81665195347622
field min 1.000564471731
field max 3.704376852581
field sum 21.524665391359
field sqrsum 48.788405968435
attr interpolationmode none
attr recordingmode histogram
attr source queueingTime(packetPulled)
attr title "queueing times"
attr unit s
bin	-inf	0
bin	0.3	0
bin	0.35	0
bin	0.4	0
bin	0.45	0
bin	0.5	0
bin	0.55	0
bin	0.6	0
bin	0.65	0
bin	0.7	0
bin	0.75	0
bin	0.8	0
bin	0.85	0
bin	0.9	0
bin	0.95	0
bin	1	3
bin	1.05	0
bin	1.1	0
bin	1.15	0
bin	1.2	0
bin	1.25	0
bin	1.3	0
bin	1.35	0
bin	1.4	0
bin	1.45	0
bin	1.5	0
bin	1.55	0
bin	1.6	0
bin	1.65	0
bin	1.7	1
bin	1.75	1
bin	1.8	0
bin	1.85	0
bin	1.9	0
bin	1.95	1
bin	2	1
bin	2.05	0
bin	2.1	0
bin	2.15	0
bin	2.2	1
bin	2.25	0
bin	2.3	1
bin	2.35	0
bin	2.4	0
bin	2.45	0
bin	2.5	0
bin	2.55	0
bin	2.6	0
bin	2.65	0
bin	2.7	1
bin	2.75	0
bin	2.8	0
bin	2.85	0
bin	2.9	0
bin	2.95	0
bin	3	0
bin	3.05	0
bin	3.1	0
bin	3.15	0
bin	3.2	0
bin	3.25	0
bin	3.3	0
bin	3.35	0
bin	3.4	0
bin	3.45	0
bin	3.5	0
bin	3.55	0
bin	3.6	0
bin	3.65	0
bin	3.7	1
bin	3.75	0
bin	3.8	0
bin	3.85	0
bin	3.9	0
bin	3.95	0
bin	4	0
bin	4.05	0
bin	4.1	0
bin	4.15	0
bin	4.2	0
bin	4.25	0
bin	4.3	0
bin	4.35	0
bin	4.4	0
scalar QosThroughput.ap.wlan[0].mac.hcf.edca.edcaf[1].pendingQueue outgoingPackets:count 11
attr recordingmode count
attr source packetPulled
attr title "outgoing packets, count"
attr unit pk
scalar QosThroughput.ap.wlan[0].mac.hcf.edca.edcaf[1].pendingQueue outgoingPacketLengths:sum 13008
attr interpolationmode none
attr recordingmode sum
attr source packetLength(packetPulled)
attr title "outgoing packet lengths, sum"
attr unit b
statistic QosThroughput.ap.wlan[0].mac.hcf.edca.edcaf[1].pendingQueue outgoingPacketLengths:histogram
field count 11
field mean 1182.5454545455
field stddev 323.61593398236
field min 528
field max 1328
field sum 13008
field sqrsum 16429824
attr interpolationmode none
attr recordingmode histogram
attr source packetLength(packetPulled)
attr title "outgoing packet lengths"
attr unit b
bin	-inf	0
bin	320	0
bin	340	0
bin	360	0
bin	380	0
bin	400	0
bin	420	0
bin	440	0
bin	460	0
bin	480	0
bin	500	0
bin	520	2
bin	540	0
bin	560	0
bin	580	0
bin	600	0
bin	620	0
bin	640	0
bin	660	0
bin	680	0
bin	700	0
bin	720	0
bin	740	0
bin	760	0
bin	780	0
bin	800	0
bin	820	0
bin	840	0
bin	860	0
bin	880	0
bin	900	0
bin	920	0
bin	940	0
bin	960	0
bin	980	0
bin	1000	0
bin	1020	0
bin	1040	0
bin	1060	0
bin	1080	0
bin	1100	0
bin	1120	0
bin	1140	0
bin	1160	0
bin	1180	0
bin	1200	0
bin	1220	0
bin	1240	0
bin	1260	0
bin	1280	0
bin	1300	0
bin	1320	9
bin	1340	0
bin	1360	0
bin	1380	0
bin	1400	0
bin	1420	0
bin	1440	0
bin	1460	0
bin	1480	0
bin	1500	0
bin	1520	0
bin	1540	0
statistic QosThroughput.ap.wlan[0].mac.hcf.edca.edcaf[1].pendingQueue flowQueueingTime:histogram
field count 0
field mean -nan
field stddev nan
field min nan
field max nan
field sum 0
field sqrsum 0
attr interpolationmode none
attr recordingmode histogram
attr source queueingTime(demuxFlow(packetPulled))
attr title "flow queueing times"
attr unit s
bin	-inf	0
bin	0	0
bin	1	0
scalar QosThroughput.ap.wlan[0].mac.hcf.edca.edcaf[1].pendingQueue incomingPackets:count 5002
attr recordingmode count
attr source packetPushStarted
attr title "incoming packets, count"
attr unit pk
scalar QosThroughput.ap.wlan[0].mac.hcf.edca.edcaf[1].pendingQueue incomingPacketLengths:sum 6641056
attr interpolationmode none
attr recordingmode sum
attr source packetLength(packetPushStarted)
attr title "incoming packet lengths, sum"
attr unit b
statistic QosThroughput.ap.wlan[0].mac.hcf.edca.edcaf[1].pendingQueue incomingPacketLengths:histogram
field count 5002
field mean 1327.6801279488
field stddev 15.995201519493
field min 528
field max 1328
field sum 6641056
field sqrsum 8818477568
attr interpolationmode none
attr recordingmode histogram
attr source packetLength(packetPushStarted)
attr title "incoming packet lengths"
attr unit b
bin	-inf	0
bin	320	0
bin	340	0
bin	360	0
bin	380	0
bin	400	0
bin	420	0
bin	440	0
bin	460	0
bin	480	0
bin	500	0
bin	520	2
bin	540	0
bin	560	0
bin	580	0
bin	600	0
bin	620	0
bin	640	0
bin	660	0
bin	680	0
bin	700	0
bin	720	0
bin	740	0
bin	760	0
bin	780	0
bin	800	0
bin	820	0
bin	840	0
bin	860	0
bin	880	0
bin	900	0
bin	920	0
bin	940	0
bin	960	0
bin	980	0
bin	1000	0
bin	1020	0
bin	1040	0
bin	1060	0
bin	1080	0
bin	1100	0
bin	1120	0
bin	1140	0
bin	1160	0
bin	1180	0
bin	1200	0
bin	1220	0
bin	1240	0
bin	1260	0
bin	1280	0
bin	1300	0
bin	1320	5000
bin	1340	0
bin	1360	0
bin	1380	0
bin	1400	0
bin	1420	0
bin	1440	0
bin	1460	0
bin	1480	0
bin	1500	0
bin	1520	0
bin	1540	0
scalar QosThroughput.ap.wlan[0].mac.hcf.edca.edcaf[1].pendingQueue droppedPacketsQueueOverflow:count 0
attr interpolationmode none
attr recordingmode count
attr source packetDropReasonIsQueueOverflow(packetDropped)
attr title "dropped packets: queue overflow, count"
attr unit pk
scalar QosThroughput.ap.wlan[0].mac.hcf.edca.edcaf[1].pendingQueue droppedPacketLengthsQueueOverflow:sum 0
attr interpolationmode none
attr recordingmode sum
attr source packetLength(packetDropReasonIsQueueOverflow(packetDropped))
attr title "dropped packet lengths: queue overflow, sum"
attr unit b
statistic QosThroughput.ap.wlan[0].mac.hcf.edca.edcaf[1].inProgressFrames queueingTime:histogram
field count 645
field mean 0.012669097497256
field stddev 0.015430924602905
field min 5e-05
field max 0.129449958378
field sum 8.17156788573
field sqrsum 0.2568714418105
attr interpolationmode none
attr recordingmode histogram
attr source queueingTime(packetDequeued)
attr title "queueing times"
bin	-inf	0
bin	0	118
bin	0.003	126
bin	0.006	99
bin	0.009	75
bin	0.012	45
bin	0.015	55
bin	0.018	31
bin	0.021	21
bin	0.024	12
bin	0.027	8
bin	0.03	14
bin	0.033	5
bin	0.036	5
bin	0.039	4
bin	0.042	3
bin	0.045	2
bin	0.048	1
bin	0.051	5
bin	0.054	2
bin	0.057	1
bin	0.06	0
bin	0.063	1
bin	0.066	0
bin	0.069	2
bin	0.072	1
bin	0.075	1
bin	0.078	0
bin	0.081	0
bin	0.084	1
bin	0.087	2
bin	0.09	1
bin	0.093	0
bin	0.096	0
bin	0.099	0
bin	0.102	0
bin	0.105	1
bin	0.108	0
bin	0.111	1
bin	0.114	0
bin	0.117	0
bin	0.12	0
bin	0.123	1
bin	0.126	0
bin	0.129	1
bin	0.132	0
scalar QosThroughput.ap.wlan[0].mac.hcf.edca.edcaf[1].inProgressFrames queueLength:max 4
attr autoWarmupFilter false
attr interpolationmode sample-hold
attr recordingmode max
attr source "warmup(count(packetEnqueued) - count(packetDequeued))"
attr title "queue length, max"
scalar QosThroughput.ap.wlan[0].mac.hcf.edca.edcaf[1].inProgressFrames queueLength:timeavg 0.817156788573
attr autoWarmupFilter false
attr interpolationmode sample-hold
attr recordingmode timeavg
attr source "warmup(count(packetEnqueued) - count(packetDequeued))"
attr title "queue length, timeavg"
scalar QosThroughput.ap.wlan[0].mac.hcf.edca.edcaf[1].contention channelAccessGranted:count 859
attr recordingmode count
attr title "channel access granted, count"
scalar QosThroughput.ap.wlan[0].mac.hcf.edca.edcaf[1].contention stateChanged:count 97818
attr enum IDLE,DEFER,IFS_AND_BACKOFF
attr interpolationmode none
attr recordingmode count
attr title "contention state changed, count"
attr type enum
scalar QosThroughput.ap.wlan[0].mac.hcf.edca.edcaf[1].txopProcedure txopEnded:count 732
attr interpolationmode none
attr recordingmode count
attr source txopEnded
attr title "txops ended, count"
statistic QosThroughput.ap.wlan[0].mac.hcf.edca.edcaf[1].txopProcedure txopDuration:histogram
field count 732
field mean 0.00047645373937705
field stddev 0.00014275674678283
field min 5e-05
field max 0.000666943462
field sum 0.348764137224
field sqrsum 0.00018106738361871
attr interpolationmode none
attr recordingmode histogram
attr source txopDuration(txopEnded)
attr title "txop duration"
bin	-inf	0
bin	0	0
bin	1e-05	0
bin	2e-05	0
bin	3e-05	0
bin	4e-05	1
bin	5e-05	0
bin	6e-05	0
bin	7e-05	0
bin	8e-05	0
bin	9e-05	12
bin	0.0001	2
bin	0.00011	4
bin	0.00012	1
bin	0.00013	9
bin	0.00014	0
bin	0.00015	9
bin	0.00016	8
bin	0.00017	5
bin	0.00018	10
bin	0.00019	2
bin	0.0002	10
bin	0.00021	7
bin	0.00022	1
bin	0.00023	8
bin	0.00024	0
bin	0.00025	8
bin	0.00026	4
bin	0.00027	0
bin	0.00028	13
bin	0.00029	4
bin	0.0003	5
bin	0.00031	2
bin	0.00032	0
bin	0.00033	10
bin	0.00034	1
bin	0.00035	5
bin	0.00036	1
bin	0.00037	6
bin	0.00038	11
bin	0.00039	2
bin	0.0004	8
bin	0.00041	3
bin	0.00042	0
bin	0.00043	11
bin	0.00044	2
bin	0.00045	6
bin	0.00046	1
bin	0.00047	108
bin	0.00048	26
bin	0.00049	1
bin	0.0005	2
bin	0.00051	0
bin	0.00052	0
bin	0.00053	2
bin	0.00054	0
bin	0.00055	8
bin	0.00056	1
bin	0.00057	346
bin	0.00058	39
bin	0.00059	0
bin	0.0006	0
bin	0.00061	0
bin	0.00062	0
bin	0.00063	0
bin	0.00064	0
bin	0.00065	0
bin	0.00066	7
bin	0.00067	0
bin	0.00068	0
bin	0.00069	0
bin	0.0007	0
bin	0.00071	0
bin	0.00072	0
scalar QosThroughput.ap.wlan[0].mac.hcf.edca.edcaf[1].recoveryProcedure retryLimitReached:count 0
attr recordingmode count
attr title "retry limit reached, count"
scalar QosThroughput.ap.wlan[0].mac.hcf.edca.edcaf[1] channelOwnershipChanged:count 1464
attr interpolationmode sample-hold
attr recordingmode count
attr title "channel ownership, count"
scalar QosThroughput.ap.wlan[0].mac.hcf.edca.edcaf[1] packetSentToPeer:count 732
attr interpolationmode none
attr recordingmode count
attr title "packets sent, count"
scalar QosThroughput.ap.wlan[0].mac.hcf.edca.edcaf[1] packetSentToPeer:sum(packetBytes) 878508
attr interpolationmode none
attr recordingmode sum(packetBytes)
attr title "packets sent, sum(packetBytes)"
scalar QosThroughput.ap.wlan[0].mac.hcf.edca.edcaf[1] packetSentToPeerUnicast:count 731
attr interpolationmode none
attr recordingmode count
attr source ieee80211Unicast(packetSentToPeer)
attr title "packets sent: unicast, count"
scalar QosThroughput.ap.wlan[0].mac.hcf.edca.edcaf[1] packetSentToPeerUnicast:sum(packetBytes) 878442
attr interpolationmode none
attr recordingmode sum(packetBytes)
attr source ieee80211Unicast(packetSentToPeer)
attr title "packets sent: unicast, sum(packetBytes)"
scalar QosThroughput.ap.wlan[0].mac.hcf.edca.edcaf[1] packetSentToPeerMulticast:count 1
attr interpolationmode none
attr recordingmode count
attr source ieee80211Multicast(packetSentToPeer)
attr title "packets sent: multicast, count"
scalar QosThroughput.ap.wlan[0].mac.hcf.edca.edcaf[1] packetSentToPeerMulticast:sum(packetBytes) 66
attr interpolationmode none
attr recordingmode sum(packetBytes)
attr source ieee80211Multicast(packetSentToPeer)
attr title "packets sent: multicast, sum(packetBytes)"
scalar QosThroughput.ap.wlan[0].mac.hcf.edca.edcaf[1] packetSentToPeerBroadcast:count 1
attr interpolationmode none
attr recordingmode count
attr source ieee80211Broadcast(packetSentToPeer)
attr title "packets sent: broadcast , count"
scalar QosThroughput.ap.wlan[0].mac.hcf.edca.edcaf[1] packetSentToPeerBroadcast:sum(packetBytes) 66
attr interpolationmode none
attr recordingmode sum(packetBytes)
attr source ieee80211Broadcast(packetSentToPeer)
attr title "packets sent: broadcast , sum(packetBytes)"
scalar QosThroughput.ap.wlan[0].mac.hcf.edca.edcaf[1] packetSentToPeerWithRetry:count 87
attr interpolationmode none
attr recordingmode count
attr source ieee80211Retry(packetSentToPeer)
attr title "packets sent: with retry, count"
scalar QosThroughput.ap.wlan[0].mac.hcf.edca.edcaf[1] packetSentToPeerWithRetry:sum(packetBytes) 99806
attr interpolationmode none
attr recordingmode sum(packetBytes)
attr source ieee80211Retry(packetSentToPeer)
attr title "packets sent: with retry, sum(packetBytes)"
scalar QosThroughput.ap.wlan[0].mac.hcf.edca.edcaf[1] packetSentToPeerWithoutRetry:count 645
attr interpolationmode none
attr recordingmode count
attr source ieee80211NotRetry(packetSentToPeer)
attr title "packets sent: without retry, count"
scalar QosThroughput.ap.wlan[0].mac.hcf.edca.edcaf[1] packetSentToPeerWithoutRetry:sum(packetBytes) 778702
attr interpolationmode none
attr recordingmode sum(packetBytes)
attr source ieee80211NotRetry(packetSentToPeer)
attr title "packets sent: without retry, sum(packetBytes)"
scalar QosThroughput.ap.wlan[0].mac.hcf.edca.edcaf[2].pendingQueue queueLength:last 0
attr autoWarmupFilter false
attr interpolationmode sample-hold
attr recordingmode last
attr source "warmup(atomic(constant0(packetPushEnded) + count(packetPushStarted) - count(packetPulled) - count(packetRemoved) - count(packetDropped)))"
attr title "queue length, last"
attr unit pk
scalar QosThroughput.ap.wlan[0].mac.hcf.edca.edcaf[2].pendingQueue queueLength:max 11
attr autoWarmupFilter false
attr interpolationmode sample-hold
attr recordingmode max
attr source "warmup(atomic(constant0(packetPushEnded) + count(packetPushStarted) - count(packetPulled) - count(packetRemoved) - count(packetDropped)))"
attr title "queue length, max"
attr unit pk
scalar QosThroughput.ap.wlan[0].mac.hcf.edca.edcaf[2].pendingQueue queueLength:timeavg 0.4672996677272
attr autoWarmupFilter false
attr interpolationmode sample-hold
attr recordingmode timeavg
attr source "warmup(atomic(constant0(packetPushEnded) + count(packetPushStarted) - count(packetPulled) - count(packetRemoved) - count(packetDropped)))"
attr title "queue length, timeavg"
attr unit pk
scalar QosThroughput.ap.wlan[0].mac.hcf.edca.edcaf[2].pendingQueue queueBitLength:last 0
attr autoWarmupFilter false
attr interpolationmode sample-hold
attr recordingmode last
attr source "warmup(atomic(constant0(packetPushEnded) + sum(packetLength(packetPushStarted)) - sum(packetLength(packetPulled)) - sum(packetLength(packetRemoved)) - sum(packetLength(packetDropped))))"
attr title "queue bit length, last"
attr unit b
scalar QosThroughput.ap.wlan[0].mac.hcf.edca.edcaf[2].pendingQueue queueBitLength:max 14608
attr autoWarmupFilter false
attr interpolationmode sample-hold
attr recordingmode max
attr source "warmup(atomic(constant0(packetPushEnded) + sum(packetLength(packetPushStarted)) - sum(packetLength(packetPulled)) - sum(packetLength(packetRemoved)) - sum(packetLength(packetDropped))))"
attr title "queue bit length, max"
attr unit b
scalar QosThroughput.ap.wlan[0].mac.hcf.edca.edcaf[2].pendingQueue queueBitLength:timeavg 620.57395874172
attr autoWarmupFilter false
attr interpolationmode sample-hold
attr recordingmode timeavg
attr source "warmup(atomic(constant0(packetPushEnded) + sum(packetLength(packetPushStarted)) - sum(packetLength(packetPulled)) - sum(packetLength(packetRemoved)) - sum(packetLength(packetDropped))))"
attr title "queue bit length, timeavg"
attr unit b
statistic QosThroughput.ap.wlan[0].mac.hcf.edca.edcaf[2].pendingQueue queueingTime:histogram
field count 645
field mean 3.4803726561913
field stddev 1.469275043098
field min 1.004334020811
field max 6.002567744477
field sum 2244.8403632434
field sqrsum 9203.1283518092
attr interpolationmode none
attr recordingmode histogram
attr source queueingTime(packetPulled)
attr title "queueing times"
attr unit s
bin	-inf	0
bin	0	0
bin	0.1	0
bin	0.2	0
bin	0.3	0
bin	0.4	0
bin	0.5	0
bin	0.6	0
bin	0.7	0
bin	0.8	0
bin	0.9	0
bin	1	24
bin	1.1	7
bin	1.2	11
bin	1.3	18
bin	1.4	11
bin	1.5	29
bin	1.6	10
bin	1.7	12
bin	1.8	12
bin	1.9	12
bin	2	14
bin	2.1	16
bin	2.2	8
bin	2.3	13
bin	2.4	14
bin	2.5	14
bin	2.6	7
bin	2.7	12
bin	2.8	5
bin	2.9	12
bin	3	3
bin	3.1	8
bin	3.2	7
bin	3.3	17
bin	3.4	16
bin	3.5	5
bin	3.6	9
bin	3.7	11
bin	3.8	6
bin	3.9	12
bin	4	17
bin	4.1	17
bin	4.2	12
bin	4.3	28
bin	4.4	18
bin	4.5	10
bin	4.6	31
bin	4.7	9
bin	4.8	12
bin	4.9	19
bin	5	19
bin	5.1	13
bin	5.2	11
bin	5.3	16
bin	5.4	7
bin	5.5	10
bin	5.6	9
bin	5.7	12
bin	5.8	9
bin	5.9	10
bin	6	1
bin	6.1	0
bin	6.2	0
bin	6.3	0
bin	6.4	0
bin	6.5	0
bin	6.6	0
bin	6.7	0
bin	6.8	0
bin	6.9	0
bin	7	0
bin	7.1	0
bin	7.2	0
bin	7.3	0
scalar QosThroughput.ap.wlan[0].mac.hcf.edca.edcaf[2].pendingQueue outgoingPackets:count 645
attr recordingmode count
attr source packetPulled
attr title "outgoing packets, count"
attr unit pk
scalar QosThroughput.ap.wlan[0].mac.hcf.edca.edcaf[2].pendingQueue outgoingPacketLengths:sum 856560
attr interpolationmode none
attr recordingmode sum
attr source packetLength(packetPulled)
attr title "outgoing packet lengths, sum"
attr unit b
statistic QosThroughput.ap.wlan[0].mac.hcf.edca.edcaf[2].pendingQueue outgoingPacketLengths:histogram
field count 645
field mean 1328
field stddev 0
field min 1328
field max 1328
field sum 856560
field sqrsum 1137511680
attr interpolationmode none
attr recordingmode histogram
attr source packetLength(packetPulled)
attr title "outgoing packet lengths"
attr unit b
bin	-inf	0
bin	1327	0
bin	1328	645
bin	1329	0
statistic QosThroughput.ap.wlan[0].mac.hcf.edca.edcaf[2].pendingQueue flowQueueingTime:histogram
field count 0
field mean -nan
field stddev nan
field min nan
field max nan
field sum 0
field sqrsum 0
attr interpolationmode none
attr recordingmode histogram
attr source queueingTime(demuxFlow(packetPulled))
attr title "flow queueing times"
attr unit s
bin	-inf	0
bin	0	0
bin	1	0
scalar QosThroughput.ap.wlan[0].mac.hcf.edca.edcaf[2].pendingQueue incomingPackets:count 5000
attr recordingmode count
attr source packetPushStarted
attr title "incoming packets, count"
attr unit pk
scalar QosThroughput.ap.wlan[0].mac.hcf.edca.edcaf[2].pendingQueue incomingPacketLengths:sum 6640000
attr interpolationmode none
attr recordingmode sum
attr source packetLength(packetPushStarted)
attr title "incoming packet lengths, sum"
attr unit b
statistic QosThroughput.ap.wlan[0].mac.hcf.edca.edcaf[2].pendingQueue incomingPacketLengths:histogram
field count 5000
field mean 1328
field stddev 0
field min 1328
field max 1328
field sum 6640000
field sqrsum 8817920000
attr interpolationmode none
attr recordingmode histogram
attr source packetLength(packetPushStarted)
attr title "incoming packet lengths"
attr unit b
bin	-inf	0
bin	1327	0
bin	1328	5000
bin	1329	0
scalar QosThroughput.ap.wlan[0].mac.hcf.edca.edcaf[2].pendingQueue droppedPacketsQueueOverflow:count 0
attr interpolationmode none
attr recordingmode count
attr source packetDropReasonIsQueueOverflow(packetDropped)
attr title "dropped packets: queue overflow, count"
attr unit pk
scalar QosThroughput.ap.wlan[0].mac.hcf.edca.edcaf[2].pendingQueue droppedPacketLengthsQueueOverflow:sum 0
attr interpolationmode none
attr recordingmode sum
attr source packetLength(packetDropReasonIsQueueOverflow(packetDropped))
attr title "dropped packet lengths: queue overflow, sum"
attr unit b
statistic QosThroughput.ap.wlan[0].mac.hcf.edca.edcaf[2].inProgressFrames queueingTime:histogram
field count 2033
field mean 0.00050014290901328
field stddev 0.00096374107594591
field min 0.000130943462
field max 0.00949309816
field sum 1.016790534024
field sqrsum 0.0023958557980416
attr interpolationmode none
attr recordingmode histogram
attr source queueingTime(packetDequeued)
attr title "queueing times"
bin	-inf	0
bin	0	1003
bin	0.0002	665
bin	0.0004	127
bin	0.0006	26
bin	0.0008	19
bin	0.001	9
bin	0.0012	19
bin	0.0014	9
bin	0.0016	10
bin	0.0018	11
bin	0.002	14
bin	0.0022	11
bin	0.0024	16
bin	0.0026	10
bin	0.0028	8
bin	0.003	5
bin	0.0032	9
bin	0.0034	11
bin	0.0036	6
bin	0.0038	4
bin	0.004	6
bin	0.0042	3
bin	0.0044	2
bin	0.0046	1
bin	0.0048	4
bin	0.005	3
bin	0.0052	3
bin	0.0054	4
bin	0.0056	4
bin	0.0058	0
bin	0.006	1
bin	0.0062	1
bin	0.0064	1
bin	0.0066	1
bin	0.0068	1
bin	0.007	1
bin	0.0072	0
bin	0.0074	0
bin	0.0076	1
bin	0.0078	1
bin	0.008	1
bin	0.0082	0
bin	0.0084	0
bin	0.0086	0
bin	0.0088	1
bin	0.009	0
bin	0.0092	0
bin	0.0094	1
bin	0.0096	0
scalar QosThroughput.ap.wlan[0].mac.hcf.edca.edcaf[2].inProgressFrames queueLength:max 3
attr autoWarmupFilter false
attr interpolationmode sample-hold
attr recordingmode max
attr source "warmup(count(packetEnqueued) - count(packetDequeued))"
attr title "queue length, max"
scalar QosThroughput.ap.wlan[0].mac.hcf.edca.edcaf[2].inProgressFrames queueLength:timeavg 0.1016790534024
attr autoWarmupFilter false
attr interpolationmode sample-hold
attr recordingmode timeavg
attr source "warmup(count(packetEnqueued) - count(packetDequeued))"
attr title "queue length, timeavg"
scalar QosThroughput.ap.wlan[0].mac.hcf.edca.edcaf[2].contention channelAccessGranted:count 2135
attr recordingmode count
attr title "channel access granted, count"
scalar QosThroughput.ap.wlan[0].mac.hcf.edca.edcaf[2].contention stateChanged:count 102922
attr enum IDLE,DEFER,IFS_AND_BACKOFF
attr interpolationmode none
attr recordingmode count
attr title "contention state changed, count"
attr type enum
scalar QosThroughput.ap.wlan[0].mac.hcf.edca.edcaf[2].txopProcedure txopEnded:count 1967
attr interpolationmode none
attr recordingmode count
attr source txopEnded
attr title "txops ended, count"
statistic QosThroughput.ap.wlan[0].mac.hcf.edca.edcaf[2].txopProcedure txopDuration:histogram
field count 1967
field mean 0.00022482200743874
field stddev 0.00010686770028208
field min 0.000130943462
field max 0.000935886924
field sum 0.44222488863199
field sqrsum 0.00012187499394641
attr interpolationmode none
attr recordingmode histogram
attr source txopDuration(txopEnded)
attr title "txop duration"
bin	-inf	0
bin	1e-05	0
bin	3e-05	0
bin	5e-05	0
bin	7e-05	0
bin	9e-05	0
bin	0.00011	0
bin	0.00013	600
bin	0.00015	0
bin	0.00017	483
bin	0.00019	18
bin	0.00021	0
bin	0.00023	380
bin	0.00025	0
bin	0.00027	163
bin	0.00029	10
bin	0.00031	22
bin	0.00033	74
bin	0.00035	0
bin	0.00037	83
bin	0.00039	1
bin	0.00041	26
bin	0.00043	21
bin	0.00045	0
bin	0.00047	38
bin	0.00049	0
bin	0.00051	5
bin	0.00053	14
bin	0.00055	1
bin	0.00057	9
bin	0.00059	0
bin	0.00061	0
bin	0.00063	5
bin	0.00065	0
bin	0.00067	5
bin	0.00069	0
bin	0.00071	2
bin	0.00073	2
bin	0.00075	0
bin	0.00077	3
bin	0.00079	0
bin	0.00081	0
bin	0.00083	0
bin	0.00085	0
bin	0.00087	0
bin	0.00089	0
bin	0.00091	1
bin	0.00093	1
bin	0.00095	0
scalar QosThroughput.ap.wlan[0].mac.hcf.edca.edcaf[2].recoveryProcedure retryLimitReached:count 0
attr recordingmode count
attr title "retry limit reached, count"
scalar QosThroughput.ap.wlan[0].mac.hcf.edca.edcaf[2] channelOwnershipChanged:count 3934
attr interpolationmode sample-hold
attr recordingmode count
attr title "channel ownership, count"
scalar QosThroughput.ap.wlan[0].mac.hcf.edca.edcaf[2] packetSentToPeer:count 2130
attr interpolationmode none
attr recordingmode count
attr title "packets sent, count"
scalar QosThroughput.ap.wlan[0].mac.hcf.edca.edcaf[2] packetSentToPeer:sum(packetBytes) 845514
attr interpolationmode none
attr recordingmode sum(packetBytes)
attr title "packets sent, sum(packetBytes)"
scalar QosThroughput.ap.wlan[0].mac.hcf.edca.edcaf[2] packetSentToPeerUnicast:count 2130
attr interpolationmode none
attr recordingmode count
attr source ieee80211Unicast(packetSentToPeer)
attr title "packets sent: unicast, count"
scalar QosThroughput.ap.wlan[0].mac.hcf.edca.edcaf[2] packetSentToPeerUnicast:sum(packetBytes) 845514
attr interpolationmode none
attr recordingmode sum(packetBytes)
attr source ieee80211Unicast(packetSentToPeer)
attr title "packets sent: unicast, sum(packetBytes)"
scalar QosThroughput.ap.wlan[0].mac.hcf.edca.edcaf[2] packetSentToPeerMulticast:count 0
attr interpolationmode none
attr recordingmode count
attr source ieee80211Multicast(packetSentToPeer)
attr title "packets sent: multicast, count"
scalar QosThroughput.ap.wlan[0].mac.hcf.edca.edcaf[2] packetSentToPeerMulticast:sum(packetBytes) 0
attr interpolationmode none
attr recordingmode sum(packetBytes)
attr source ieee80211Multicast(packetSentToPeer)
attr title "packets sent: multicast, sum(packetBytes)"
scalar QosThroughput.ap.wlan[0].mac.hcf.edca.edcaf[2] packetSentToPeerBroadcast:count 0
attr interpolationmode none
attr recordingmode count
attr source ieee80211Broadcast(packetSentToPeer)
attr title "packets sent: broadcast , count"
scalar QosThroughput.ap.wlan[0].mac.hcf.edca.edcaf[2] packetSentToPeerBroadcast:sum(packetBytes) 0
attr interpolationmode none
attr recordingmode sum(packetBytes)
attr source ieee80211Broadcast(packetSentToPeer)
attr title "packets sent: broadcast , sum(packetBytes)"
scalar QosThroughput.ap.wlan[0].mac.hcf.edca.edcaf[2] packetSentToPeerWithRetry:count 100
attr interpolationmode none
attr recordingmode count
attr source ieee80211Retry(packetSentToPeer)
attr title "packets sent: with retry, count"
scalar QosThroughput.ap.wlan[0].mac.hcf.edca.edcaf[2] packetSentToPeerWithRetry:sum(packetBytes) 38112
attr interpolationmode none
attr recordingmode sum(packetBytes)
attr source ieee80211Retry(packetSentToPeer)
attr title "packets sent: with retry, sum(packetBytes)"
scalar QosThroughput.ap.wlan[0].mac.hcf.edca.edcaf[2] packetSentToPeerWithoutRetry:count 2030
attr interpolationmode none
attr recordingmode count
attr source ieee80211NotRetry(packetSentToPeer)
attr title "packets sent: without retry, count"
scalar QosThroughput.ap.wlan[0].mac.hcf.edca.edcaf[2] packetSentToPeerWithoutRetry:sum(packetBytes) 807402
attr interpolationmode none
attr recordingmode sum(packetBytes)
attr source ieee80211NotRetry(packetSentToPeer)
attr title "packets sent: without retry, sum(packetBytes)"
scalar QosThroughput.ap.wlan[0].mac.hcf.edca.edcaf[3].pendingQueue queueLength:last 0
attr autoWarmupFilter false
attr interpolationmode sample-hold
attr recordingmode last
attr source "warmup(atomic(constant0(packetPushEnded) + count(packetPushStarted) - count(packetPulled) - count(packetRemoved) - count(packetDropped)))"
attr title "queue length, last"
attr unit pk
scalar QosThroughput.ap.wlan[0].mac.hcf.edca.edcaf[3].pendingQueue queueLength:max 5
attr autoWarmupFilter false
attr interpolationmode sample-hold
attr recordingmode max
attr source "warmup(atomic(constant0(packetPushEnded) + count(packetPushStarted) - count(packetPulled) - count(packetRemoved) - count(packetDropped)))"
attr title "queue length, max"
attr unit pk
scalar QosThroughput.ap.wlan[0].mac.hcf.edca.edcaf[3].pendingQueue queueLength:timeavg 0.1999176680292
attr autoWarmupFilter false
attr interpolationmode sample-hold
attr recordingmode timeavg
attr source "warmup(atomic(constant0(packetPushEnded) + count(packetPushStarted) - count(packetPulled) - count(packetRemoved) - count(packetDropped)))"
attr title "queue length, timeavg"
attr unit pk
scalar QosThroughput.ap.wlan[0].mac.hcf.edca.edcaf[3].pendingQueue queueBitLength:last 0
attr autoWarmupFilter false
attr interpolationmode sample-hold
attr recordingmode last
attr source "warmup(atomic(constant0(packetPushEnded) + sum(packetLength(packetPushStarted)) - sum(packetLength(packetPulled)) - sum(packetLength(packetRemoved)) - sum(packetLength(packetDropped))))"
attr title "queue bit length, last"
attr unit b
scalar QosThroughput.ap.wlan[0].mac.hcf.edca.edcaf[3].pendingQueue queueBitLength:max 6640
attr autoWarmupFilter false
attr interpolationmode sample-hold
attr recordingmode max
attr source "warmup(atomic(constant0(packetPushEnded) + sum(packetLength(packetPushStarted)) - sum(packetLength(packetPulled)) - sum(packetLength(packetRemoved)) - sum(packetLength(packetDropped))))"
attr title "queue bit length, max"
attr unit b
scalar QosThroughput.ap.wlan[0].mac.hcf.edca.edcaf[3].pendingQueue queueBitLength:timeavg 262.14184132045
attr autoWarmupFilter false
attr interpolationmode sample-hold
attr recordingmode timeavg
attr source "warmup(atomic(constant0(packetPushEnded) + sum(packetLength(packetPushStarted)) - sum(packetLength(packetPulled)) - sum(packetLength(packetRemoved)) - sum(packetLength(packetDropped))))"
attr title "queue bit length, timeavg"
attr unit b
statistic QosThroughput.ap.wlan[0].mac.hcf.edca.edcaf[3].pendingQueue queueingTime:histogram
field count 2508
field mean 3.2736606657555
field stddev 1.5860649454024
field min 0
field max 5.999206636373
field sum 8210.3409497147
field sqrsum 33184.484461186
attr interpolationmode none
attr recordingmode histogram
attr source queueingTime(packetPulled)
attr title "queueing times"
attr unit s
bin	-inf	0
bin	0	108
bin	0.1	0
bin	0.2	0
bin	0.3	0
bin	0.4	0
bin	0.5	0
bin	0.6	0
bin	0.7	0
bin	0.8	0
bin	0.9	0
bin	1	53
bin	1.1	58
bin	1.2	55
bin	1.3	51
bin	1.4	54
bin	1.5	61
bin	1.6	40
bin	1.7	55
bin	1.8	47
bin	1.9	48
bin	2	53
bin	2.1	53
bin	2.2	46
bin	2.3	61
bin	2.4	48
bin	2.5	46
bin	2.6	50
bin	2.7	54
bin	2.8	48
bin	2.9	61
bin	3	29
bin	3.1	52
bin	3.2	46
bin	3.3	40
bin	3.4	56
bin	3.5	37
bin	3.6	45
bin	3.7	44
bin	3.8	36
bin	3.9	46
bin	4	43
bin	4.1	43
bin	4.2	45
bin	4.3	64
bin	4.4	43
bin	4.5	41
bin	4.6	69
bin	4.7	39
bin	4.8	46
bin	4.9	48
bin	5	43
bin	5.1	41
bin	5.2	49
bin	5.3	56
bin	5.4	45
bin	5.5	34
bin	5.6	29
bin	5.7	51
bin	5.8	44
bin	5.9	54
bin	6	0
scalar QosThroughput.ap.wlan[0].mac.hcf.edca.edcaf[3].pendingQueue outgoingPackets:count 2508
attr recordingmode count
attr source packetPulled
attr title "outgoing packets, count"
attr unit pk
scalar QosThroughput.ap.wlan[0].mac.hcf.edca.edcaf[3].pendingQueue outgoingPacketLengths:sum 3228032
attr interpolationmode none
attr recordingmode sum
attr source packetLength(packetPulled)
attr title "outgoing packet lengths, sum"
attr unit b
statistic QosThroughput.ap.wlan[0].mac.hcf.edca.edcaf[3].pendingQueue outgoingPacketLengths:histogram
field count 2508
field mean 1287.0940988836
field stddev 192.93773400581
field min 272
field max 1328
field sum 3228032
field sqrsum 4248103936
attr interpolationmode none
attr recordingmode histogram
attr source packetLength(packetPulled)
attr title "outgoing packet lengths"
attr unit b
bin	-inf	0
bin	0	0
bin	20	0
bin	40	0
bin	60	0
bin	80	0
bin	100	0
bin	120	0
bin	140	0
bin	160	0
bin	180	0
bin	200	0
bin	220	0
bin	240	0
bin	260	4
bin	280	2
bin	300	0
bin	320	0
bin	340	0
bin	360	0
bin	380	102
bin	400	0
bin	420	0
bin	440	0
bin	460	0
bin	480	0
bin	500	0
bin	520	0
bin	540	0
bin	560	0
bin	580	0
bin	600	0
bin	620	0
bin	640	0
bin	660	0
bin	680	0
bin	700	0
bin	720	0
bin	740	0
bin	760	0
bin	780	0
bin	800	0
bin	820	0
bin	840	0
bin	860	0
bin	880	0
bin	900	0
bin	920	0
bin	940	0
bin	960	0
bin	980	0
bin	1000	0
bin	1020	0
bin	1040	0
bin	1060	0
bin	1080	0
bin	1100	0
bin	1120	0
bin	1140	0
bin	1160	0
bin	1180	0
bin	1200	0
bin	1220	0
bin	1240	0
bin	1260	0
bin	1280	0
bin	1300	0
bin	1320	2400
bin	1340	0
bin	1360	0
bin	1380	0
bin	1400	0
bin	1420	0
bin	1440	0
bin	1460	0
bin	1480	0
bin	1500	0
bin	1520	0
bin	1540	0
bin	1560	0
bin	1580	0
bin	1600	0
statistic QosThroughput.ap.wlan[0].mac.hcf.edca.edcaf[3].pendingQueue flowQueueingTime:histogram
field count 0
field mean -nan
field stddev nan
field min nan
field max nan
field sum 0
field sqrsum 0
attr interpolationmode none
attr recordingmode histogram
attr source queueingTime(demuxFlow(packetPulled))
attr title "flow queueing times"
attr unit s
bin	-inf	0
bin	0	0
bin	1	0
scalar QosThroughput.ap.wlan[0].mac.hcf.edca.edcaf[3].pendingQueue incomingPackets:count 5108
attr recordingmode count
attr source packetPushStarted
attr title "incoming packets, count"
attr unit pk
scalar QosThroughput.ap.wlan[0].mac.hcf.edca.edcaf[3].pendingQueue incomingPacketLengths:sum 6680832
attr interpolationmode none
attr recordingmode sum
attr source packetLength(packetPushStarted)
attr title "incoming packet lengths, sum"
attr unit b
statistic QosThroughput.ap.wlan[0].mac.hcf.edca.edcaf[3].pendingQueue incomingPacketLengths:histogram
field count 5108
field mean 1307.9154267815
field stddev 136.71801289803
field min 272
field max 1328
field sum 6680832
field sqrsum 8833422336
attr interpolationmode none
attr recordingmode histogram
attr source packetLength(packetPushStarted)
attr title "incoming packet lengths"
attr unit b
bin	-inf	0
bin	0	0
bin	20	0
bin	40	0
bin	60	0
bin	80	0
bin	100	0
bin	120	0
bin	140	0
bin	160	0
bin	180	0
bin	200	0
bin	220	0
bin	240	0
bin	260	4
bin	280	2
bin	300	0
bin	320	0
bin	340	0
bin	360	0
bin	380	102
bin	400	0
bin	420	0
bin	440	0
bin	460	0
bin	480	0
bin	500	0
bin	520	0
bin	540	0
bin	560	0
bin	580	0
bin	600	0
bin	620	0
bin	640	0
bin	660	0
bin	680	0
bin	700	0
bin	720	0
bin	740	0
bin	760	0
bin	780	0
bin	800	0
bin	820	0
bin	840	0
bin	860	0
bin	880	0
bin	900	0
bin	920	0
bin	940	0
bin	960	0
bin	980	0
bin	1000	0
bin	1020	0
bin	1040	0
bin	1060	0
bin	1080	0
bin	1100	0
bin	1120	0
bin	1140	0
bin	1160	0
bin	1180	0
bin	1200	0
bin	1220	0
bin	1240	0
bin	1260	0
bin	1280	0
bin	1300	0
bin	1320	5000
bin	1340	0
bin	1360	0
bin	1380	0
bin	1400	0
bin	1420	0
bin	1440	0
bin	1460	0
bin	1480	0
bin	1500	0
bin	1520	0
bin	1540	0
bin	1560	0
bin	1580	0
bin	1600	0
scalar QosThroughput.ap.wlan[0].mac.hcf.edca.edcaf[3].pendingQueue droppedPacketsQueueOverflow:count 0
attr interpolationmode none
attr recordingmode count
attr source packetDropReasonIsQueueOverflow(packetDropped)
attr title "dropped packets: queue overflow, count"
attr unit pk
scalar QosThroughput.ap.wlan[0].mac.hcf.edca.edcaf[3].pendingQueue droppedPacketLengthsQueueOverflow:sum 0
attr interpolationmode none
attr recordingmode sum
attr source packetLength(packetDropReasonIsQueueOverflow(packetDropped))
attr title "dropped packet lengths: queue overflow, sum"
attr unit b
statistic QosThroughput.ap.wlan[0].mac.hcf.edca.edcaf[3].inProgressFrames queueingTime:histogram
field count 3667
field mean 0.00017471387077666
field stddev 0.00018796268765676
field min 4.6e-05
field max 0.004802440976
field sum 0.640675764138
field sqrsum 0.00024145461983826
attr interpolationmode none
attr recordingmode histogram
attr source queueingTime(packetDequeued)
attr title "queueing times"
bin	-inf	0
bin	0	102
bin	0.00012	3379
bin	0.00024	74
bin	0.00036	24
bin	0.00048	11
bin	0.0006	22
bin	0.00072	14
bin	0.00084	7
bin	0.00096	6
bin	0.00108	3
bin	0.0012	5
bin	0.00132	5
bin	0.00144	1
bin	0.00156	1
bin	0.00168	0
bin	0.0018	4
bin	0.00192	0
bin	0.00204	1
bin	0.00216	3
bin	0.00228	0
bin	0.0024	0
bin	0.00252	0
bin	0.00264	0
bin	0.00276	1
bin	0.00288	1
bin	0.003	1
bin	0.00312	1
bin	0.00324	0
bin	0.00336	0
bin	0.00348	0
bin	0.0036	0
bin	0.00372	0
bin	0.00384	0
bin	0.00396	0
bin	0.00408	0
bin	0.0042	0
bin	0.00432	0
bin	0.00444	0
bin	0.00456	0
bin	0.00468	0
bin	0.0048	1
bin	0.00492	0
scalar QosThroughput.ap.wlan[0].mac.hcf.edca.edcaf[3].inProgressFrames queueLength:max 2
attr autoWarmupFilter false
attr interpolationmode sample-hold
attr recordingmode max
attr source "warmup(count(packetEnqueued) - count(packetDequeued))"
attr title "queue length, max"
scalar QosThroughput.ap.wlan[0].mac.hcf.edca.edcaf[3].inProgressFrames queueLength:timeavg 0.0640675764138
attr autoWarmupFilter false
attr interpolationmode sample-hold
attr recordingmode timeavg
attr source "warmup(count(packetEnqueued) - count(packetDequeued))"
attr title "queue length, timeavg"
scalar QosThroughput.ap.wlan[0].mac.hcf.edca.edcaf[3].contention channelAccessGranted:count 3686
attr recordingmode count
attr title "channel access granted, count"
scalar QosThroughput.ap.wlan[0].mac.hcf.edca.edcaf[3].contention stateChanged:count 109126
attr enum IDLE,DEFER,IFS_AND_BACKOFF
attr interpolationmode none
attr recordingmode count
attr title "contention state changed, count"
attr type enum
scalar QosThroughput.ap.wlan[0].mac.hcf.edca.edcaf[3].txopProcedure txopEnded:count 3686
attr interpolationmode none
attr recordingmode count
attr source txopEnded
attr title "txops ended, count"
statistic QosThroughput.ap.wlan[0].mac.hcf.edca.edcaf[3].txopProcedure txopDuration:histogram
field count 3686
field mean 0.00015136359627726
field stddev 4.2744580853195e-05
field min 4.6e-05
field max 0.000475886924
field sum 0.55792621587798
field sqrsum 9.1182579016337e-05
attr interpolationmode none
attr recordingmode histogram
attr source txopDuration(txopEnded)
attr title "txop duration"
bin	-inf	0
bin	0	0
bin	1e-05	0
bin	2e-05	0
bin	3e-05	0
bin	4e-05	100
bin	5e-05	0
bin	6e-05	0
bin	7e-05	0
bin	8e-05	6
bin	9e-05	2
bin	0.0001	0
bin	0.00011	0
bin	0.00012	0
bin	0.00013	2335
bin	0.00014	41
bin	0.00015	0
bin	0.00016	0
bin	0.00017	0
bin	0.00018	904
bin	0.00019	20
bin	0.0002	0
bin	0.00021	0
bin	0.00022	0
bin	0.00023	187
bin	0.00024	3
bin	0.00025	0
bin	0.00026	0
bin	0.00027	23
bin	0.00028	29
bin	0.00029	1
bin	0.0003	0
bin	0.00031	0
bin	0.00032	14
bin	0.00033	9
bin	0.00034	0
bin	0.00035	0
bin	0.00036	0
bin	0.00037	9
bin	0.00038	0
bin	0.00039	0
bin	0.0004	0
bin	0.00041	0
bin	0.00042	1
bin	0.00043	0
bin	0.00044	0
bin	0.00045	0
bin	0.00046	1
bin	0.00047	1
bin	0.00048	0
scalar QosThroughput.ap.wlan[0].mac.hcf.edca.edcaf[3].recoveryProcedure retryLimitReached:count 0
attr recordingmode count
attr title "retry limit reached, count"
scalar QosThroughput.ap.wlan[0].mac.hcf.edca.edcaf[3] channelOwnershipChanged:count 7372
attr interpolationmode sample-hold
attr recordingmode count
attr title "channel ownership, count"
scalar QosThroughput.ap.wlan[0].mac.hcf.edca.edcaf[3] packetSentToPeer:count 3734
attr interpolationmode none
attr recordingmode count
attr title "packets sent, count"
scalar QosThroughput.ap.wlan[0].mac.hcf.edca.edcaf[3] packetSentToPeer:sum(packetBytes) 847354
attr interpolationmode none
attr recordingmode sum(packetBytes)
attr title "packets sent, sum(packetBytes)"
scalar QosThroughput.ap.wlan[0].mac.hcf.edca.edcaf[3] packetSentToPeerUnicast:count 3634
attr interpolationmode none
attr recordingmode count
attr source ieee80211Unicast(packetSentToPeer)
attr title "packets sent: unicast, count"
scalar QosThroughput.ap.wlan[0].mac.hcf.edca.edcaf[3] packetSentToPeerUnicast:sum(packetBytes) 842554
attr interpolationmode none
attr recordingmode sum(packetBytes)
attr source ieee80211Unicast(packetSentToPeer)
attr title "packets sent: unicast, sum(packetBytes)"
scalar QosThroughput.ap.wlan[0].mac.hcf.edca.edcaf[3] packetSentToPeerMulticast:count 100
attr interpolationmode none
attr recordingmode count
attr source ieee80211Multicast(packetSentToPeer)
attr title "packets sent: multicast, count"
scalar QosThroughput.ap.wlan[0].mac.hcf.edca.edcaf[3] packetSentToPeerMulticast:sum(packetBytes) 4800
attr interpolationmode none
attr recordingmode sum(packetBytes)
attr source ieee80211Multicast(packetSentToPeer)
attr title "packets sent: multicast, sum(packetBytes)"
scalar QosThroughput.ap.wlan[0].mac.hcf.edca.edcaf[3] packetSentToPeerBroadcast:count 100
attr interpolationmode none
attr recordingmode count
attr source ieee80211Broadcast(packetSentToPeer)
attr title "packets sent: broadcast , count"
scalar QosThroughput.ap.wlan[0].mac.hcf.edca.edcaf[3] packetSentToPeerBroadcast:sum(packetBytes) 4800
attr interpolationmode none
attr recordingmode sum(packetBytes)
attr source ieee80211Broadcast(packetSentToPeer)
attr title "packets sent: broadcast , sum(packetBytes)"
scalar QosThroughput.ap.wlan[0].mac.hcf.edca.edcaf[3] packetSentToPeerWithRetry:count 88
attr interpolationmode none
attr recordingmode count
attr source ieee80211Retry(packetSentToPeer)
attr title "packets sent: with retry, count"
scalar QosThroughput.ap.wlan[0].mac.hcf.edca.edcaf[3] packetSentToPeerWithRetry:sum(packetBytes) 19684
attr interpolationmode none
attr recordingmode sum(packetBytes)
attr source ieee80211Retry(packetSentToPeer)
attr title "packets sent: with retry, sum(packetBytes)"
scalar QosThroughput.ap.wlan[0].mac.hcf.edca.edcaf[3] packetSentToPeerWithoutRetry:count 3646
attr interpolationmode none
attr recordingmode count
attr source ieee80211NotRetry(packetSentToPeer)
attr title "packets sent: without retry, count"
scalar QosThroughput.ap.wlan[0].mac.hcf.edca.edcaf[3] packetSentToPeerWithoutRetry:sum(packetBytes) 827670
attr interpolationmode none
attr recordingmode sum(packetBytes)
attr source ieee80211NotRetry(packetSentToPeer)
attr title "packets sent: without retry, sum(packetBytes)"
scalar QosThroughput.ap.wlan[0].mac.hcf.edca.mgmtAndNonQoSRecoveryProcedure retryLimitReached:count 0
attr recordingmode count
attr title "retry limit reached, count"
scalar QosThroughput.ap.wlan[0].mac.hcf.originatorMacDataService packetAggregated:count 3018
attr recordingmode count
attr title "packets aggregated, count"
scalar QosThroughput.ap.wlan[0].mac.hcf.originatorMacDataService packetFragmented:count 397
attr recordingmode count
attr title "packets fragmented, count"
scalar QosThroughput.ap.wlan[0].mac.hcf.recipientMacDataService packetDeaggregated:count 2712
attr recordingmode count
attr title "packets deaggregated, count"
scalar QosThroughput.ap.wlan[0].mac.hcf.recipientMacDataService packetDefragmented:count 8223
attr recordingmode count
attr title "packets defragmented, count"
scalar QosThroughput.ap.wlan[0].mac.hcf.recipientMacDataService packetDropDuplicateDetected:count 0
attr interpolationmode none
attr recordingmode count
attr source packetDropReasonIsDuplicateDetected(packetDropped)
attr title "packet drops: duplicate detected, count"
scalar QosThroughput.ap.wlan[0].mac.hcf.recipientMacDataService packetDropDuplicateDetected:sum(packetBytes) 0
attr interpolationmode none
attr recordingmode sum(packetBytes)
attr source packetDropReasonIsDuplicateDetected(packetDropped)
attr title "packet drops: duplicate detected, sum(packetBytes)"
scalar QosThroughput.ap.wlan[0].mac.hcf blockAckAgreementDeleted:count 0
attr recordingmode count
attr title "deleted block ack agreements, count"
scalar QosThroughput.ap.wlan[0].mac.hcf blockAckAgreementAdded:count 0
attr recordingmode count
attr title "added block ack agreements, count"
scalar QosThroughput.ap.wlan[0].mac.hcf edcaCollisionDetected:count 309
attr recordingmode count
attr title "EDCA collisions detected, count"
scalar QosThroughput.ap.wlan[0].mac.hcf frameSequenceFinished:count 6953
attr recordingmode count
attr title "finished frame sequences, count"
statistic QosThroughput.ap.wlan[0].mac.hcf frameSequenceDuration:histogram
field count 6953
field mean 0.00023815846492249
field stddev 0.00015504436247544
field min 4.6e-05
field max 0.000935886924
field sum 1.655915806606
field sqrsum 0.00056148778668199
attr recordingmode histogram
attr source frameSequenceDuration(frameSequenceFinished)
attr title "frame sequence durations"
bin	-inf	0
bin	0	0
bin	2e-05	0
bin	4e-05	101
bin	6e-05	0
bin	8e-05	20
bin	0.0001	6
bin	0.00012	2908
bin	0.00014	87
bin	0.00016	13
bin	0.00018	1437
bin	0.0002	17
bin	0.00022	556
bin	0.00024	31
bin	0.00026	38
bin	0.00028	210
bin	0.0003	7
bin	0.00032	123
bin	0.00034	12
bin	0.00036	53
bin	0.00038	60
bin	0.0004	11
bin	0.00042	57
bin	0.00044	10
bin	0.00046	319
bin	0.00048	43
bin	0.0005	2
bin	0.00052	22
bin	0.00054	8
bin	0.00056	726
bin	0.00058	50
bin	0.0006	0
bin	0.00062	5
bin	0.00064	0
bin	0.00066	7
bin	0.00068	5
bin	0.0007	0
bin	0.00072	4
bin	0.00074	0
bin	0.00076	1
bin	0.00078	2
bin	0.0008	0
bin	0.00082	0
bin	0.00084	0
bin	0.00086	0
bin	0.00088	0
bin	0.0009	0
bin	0.00092	2
bin	0.00094	0
statistic QosThroughput.ap.wlan[0].mac.hcf frameSequenceNumPackets:histogram
field count 6953
field mean 2.0461671221056
field stddev 0.37510649692316
field min 1
field max 6
field sum 14227
field sqrsum 30089
attr recordingmode histogram
attr source frameSequenceNumPackets(frameSequenceFinished)
attr title "frame sequences: number of packets"
bin	-inf	0
bin	0	0
bin	1	101
bin	2	6647
bin	3	0
bin	4	199
bin	5	0
bin	6	6
bin	7	0
scalar QosThroughput.ap.wlan[0].mac.hcf packetReceivedFromPeerUnicast:count 15616
attr interpolationmode none
attr recordingmode count
attr source ieee80211Unicast(packetReceivedFromPeer)
attr title "packets received: unicast, count"
scalar QosThroughput.ap.wlan[0].mac.hcf packetReceivedFromPeerUnicast:sum(packetBytes) 3306340
attr interpolationmode none
attr recordingmode sum(packetBytes)
attr source ieee80211Unicast(packetReceivedFromPeer)
attr title "packets received: unicast, sum(packetBytes)"
scalar QosThroughput.ap.wlan[0].mac.hcf packetReceivedFromPeerMulticast:count 2
attr interpolationmode none
attr recordingmode count
attr source ieee80211Multicast(packetReceivedFromPeer)
attr title "packets received: multicast, count"
scalar QosThroughput.ap.wlan[0].mac.hcf packetReceivedFromPeerMulticast:sum(packetBytes) 64
attr interpolationmode none
attr recordingmode sum(packetBytes)
attr source ieee80211Multicast(packetReceivedFromPeer)
attr title "packets received: multicast, sum(packetBytes)"
scalar QosThroughput.ap.wlan[0].mac.hcf packetReceivedFromPeerBroadcast:count 2
attr interpolationmode none
attr recordingmode count
attr source ieee80211Broadcast(packetReceivedFromPeer)
attr title "packets received: broadcast, count"
scalar QosThroughput.ap.wlan[0].mac.hcf packetReceivedFromPeerBroadcast:sum(packetBytes) 64
attr interpolationmode none
attr recordingmode sum(packetBytes)
attr source ieee80211Broadcast(packetReceivedFromPeer)
attr title "packets received: broadcast, sum(packetBytes)"
scalar QosThroughput.ap.wlan[0].mac.hcf packetReceivedFromPeerWithRetry:count 268
attr interpolationmode none
attr recordingmode count
attr source ieee80211Retry(packetReceivedFromPeer)
attr title "packets received: with retry, count"
scalar QosThroughput.ap.wlan[0].mac.hcf packetReceivedFromPeerWithRetry:sum(packetBytes) 110008
attr interpolationmode none
attr recordingmode sum(packetBytes)
attr source ieee80211Retry(packetReceivedFromPeer)
attr title "packets received: with retry, sum(packetBytes)"
scalar QosThroughput.ap.wlan[0].mac.hcf packetReceivedFromPeerWithoutRetry:count 15350
attr interpolationmode none
attr recordingmode count
attr source ieee80211NotRetry(packetReceivedFromPeer)
attr title "packets received: without retry, count"
scalar QosThroughput.ap.wlan[0].mac.hcf packetReceivedFromPeerWithoutRetry:sum(packetBytes) 3196396
attr interpolationmode none
attr recordingmode sum(packetBytes)
attr source ieee80211NotRetry(packetReceivedFromPeer)
attr title "packets received: without retry, sum(packetBytes)"
scalar QosThroughput.ap.wlan[0].mac.hcf packetSentToPeer:count 15980
attr interpolationmode none
attr recordingmode count
attr title "packets sent, count"
scalar QosThroughput.ap.wlan[0].mac.hcf packetSentToPeer:sum(packetBytes) 3488492
attr interpolationmode none
attr recordingmode sum(packetBytes)
attr title "packets sent, sum(packetBytes)"
scalar QosThroughput.ap.wlan[0].mac.hcf packetSentToPeerUnicast:count 15879
attr interpolationmode none
attr recordingmode count
attr source ieee80211Unicast(packetSentToPeer)
attr title "packets sent: unicast, count"
scalar QosThroughput.ap.wlan[0].mac.hcf packetSentToPeerUnicast:sum(packetBytes) 3483626
attr interpolationmode none
attr recordingmode sum(packetBytes)
attr source ieee80211Unicast(packetSentToPeer)
attr title "packets sent: unicast, sum(packetBytes)"
scalar QosThroughput.ap.wlan[0].mac.hcf packetSentToPeerMulticast:count 101
attr interpolationmode none
attr recordingmode count
attr source ieee80211Multicast(packetSentToPeer)
attr title "packets sent: multicast, count"
[...]
attr recordingmode count
attr source packetDropReasonIsIncorrectlyReceived(packetDropped)
attr title "packet drops: incorrectly received, count"
scalar QosThroughput.cliHost.wlan[0].mac packetDropIncorrectlyReceived:sum(packetBytes) 0
attr interpolationmode none
attr recordingmode sum(packetBytes)
attr source packetDropReasonIsIncorrectlyReceived(packetDropped)
attr title "packet drops: incorrectly received, sum(packetBytes)"
scalar QosThroughput.cliHost.wlan[0].mac packetDropNotAddressedToUs:count 13596
attr interpolationmode none
attr recordingmode count
attr source packetDropReasonIsNotAddressedToUs(packetDropped)
attr title "packet drops: not addressed to us, count"
scalar QosThroughput.cliHost.wlan[0].mac packetDropNotAddressedToUs:sum(packetBytes) 3283906
attr interpolationmode none
attr recordingmode sum(packetBytes)
attr source packetDropReasonIsNotAddressedToUs(packetDropped)
attr title "packet drops: not addressed to us, sum(packetBytes)"
scalar QosThroughput.cliHost.wlan[0].mac packetDropQueueOverflow:count 0
attr interpolationmode none
attr recordingmode count
attr source packetDropReasonIsQueueOverflow(packetDropped)
attr title "packet drops: queue overflow, count"
scalar QosThroughput.cliHost.wlan[0].mac packetDropQueueOverflow:sum(packetBytes) 0
attr interpolationmode none
attr recordingmode sum(packetBytes)
attr source packetDropReasonIsQueueOverflow(packetDropped)
attr title "packet drops: queue overflow, sum(packetBytes)"
scalar QosThroughput.cliHost.wlan[0].mac packetDropRetryLimitReached:count 0
attr interpolationmode none
attr recordingmode count
attr source packetDropReasonIsRetryLimitReached(packetDropped)
attr title "packet drops: retry limit reached, count"
scalar QosThroughput.cliHost.wlan[0].mac packetDropRetryLimitReached:sum(packetBytes) 0
attr interpolationmode none
attr recordingmode sum(packetBytes)
attr source packetDropReasonIsRetryLimitReached(packetDropped)
attr title "packet drops: retry limit reached, sum(packetBytes)"
scalar QosThroughput.cliHost.wlan[0].mac packetDropDuplicateDetected:count 0
attr interpolationmode none
attr recordingmode count
attr source packetDropReasonIsDuplicateDetected(packetDropped)
attr title "packet drops: duplicate detected, count"
scalar QosThroughput.cliHost.wlan[0].mac packetDropDuplicateDetected:sum(packetBytes) 0
attr interpolationmode none
attr recordingmode sum(packetBytes)
attr source packetDropReasonIsDuplicateDetected(packetDropped)
attr title "packet drops: duplicate detected, sum(packetBytes)"
scalar QosThroughput.cliHost.wlan[0].mac packetDropOther:count 0
attr interpolationmode none
attr recordingmode count
attr source packetDropReasonIsOther(packetDropped)
attr title "packet drops: other, count"
scalar QosThroughput.cliHost.wlan[0].mac packetDropOther:sum(packetBytes) 0
attr interpolationmode none
attr recordingmode sum(packetBytes)
attr source packetDropReasonIsOther(packetDropped)
attr title "packet drops: other, sum(packetBytes)"
scalar QosThroughput.cliHost.wlan[0].mac linkBroken:count 0
attr interpolationmode none
attr recordingmode count
attr title "link breaks, count"
statistic QosThroughput.cliHost.wlan[0].radio radioChannel:histogram
field count 4
field mean 0
field stddev 0
field min 0
field max 0
field sum 0
field sqrsum 0
attr interpolationmode sample-hold
attr recordingmode histogram
attr source radioChannelChanged
attr title "Radio channel"
bin	-inf	0
bin	-0.5	0
bin	-0.48	0
bin	-0.46	0
bin	-0.44	0
bin	-0.42	0
bin	-0.4	0
bin	-0.38	0
bin	-0.36	0
bin	-0.34	0
bin	-0.32	0
bin	-0.3	0
bin	-0.28	0
bin	-0.26	0
bin	-0.24	0
bin	-0.22	0
bin	-0.2	0
bin	-0.18	0
bin	-0.16	0
bin	-0.14	0
bin	-0.12	0
bin	-0.1	0
bin	-0.08	0
bin	-0.06	0
bin	-0.04	0
bin	-0.02	0
bin	0	4
bin	0.02	0
bin	0.04	0
bin	0.06	0
bin	0.08	0
bin	0.1	0
bin	0.12	0
bin	0.14	0
bin	0.16	0
bin	0.18	0
bin	0.2	0
bin	0.22	0
bin	0.24	0
bin	0.26	0
bin	0.28	0
bin	0.3	0
bin	0.32	0
bin	0.34	0
bin	0.36	0
bin	0.38	0
bin	0.4	0
bin	0.42	0
bin	0.44	0
bin	0.46	0
bin	0.48	0
bin	0.5	0
scalar QosThroughput.cliHost.wlan[0].radio radioMode:count 18197
attr interpolationmode sample-hold
attr recordingmode count
attr source radioModeChanged
attr title "Radio mode, count"
scalar QosThroughput.cliHost.wlan[0].radio receptionState:count 63423
attr interpolationmode sample-hold
attr recordingmode count
attr source receptionStateChanged
attr title "Radio reception state, count"
scalar QosThroughput.cliHost.wlan[0].radio transmissionState:count 36388
attr interpolationmode sample-hold
attr recordingmode count
attr source transmissionStateChanged
attr title "Radio transmission state, count"
statistic QosThroughput.cliHost.wlan[0].radio minSnir:histogram
field count 22514
field mean 830550.39821695
field stddev 224590.76240505
field min 489144.38802596
field max 978288.77605193
field sum 18699011665.456
field sqrsum 1.6666050055693e+16
attr recordingmode histogram
attr source minimumSnir(packetSentToUpper)
attr title "Min SNIR"
bin	-inf	0
bin	360000	0
bin	370000	0
bin	380000	0
bin	390000	0
bin	400000	0
bin	410000	0
bin	420000	0
bin	430000	0
bin	440000	0
bin	450000	0
bin	460000	0
bin	470000	0
bin	480000	6800
bin	490000	0
bin	500000	0
bin	510000	0
bin	520000	0
bin	530000	0
bin	540000	0
bin	550000	0
bin	560000	0
bin	570000	0
bin	580000	0
bin	590000	0
bin	600000	0
bin	610000	0
bin	620000	0
bin	630000	0
bin	640000	0
bin	650000	0
bin	660000	0
bin	670000	0
bin	680000	0
bin	690000	0
bin	700000	0
bin	710000	0
bin	720000	0
bin	730000	0
bin	740000	0
bin	750000	0
bin	760000	0
bin	770000	0
bin	780000	0
bin	790000	0
bin	800000	0
bin	810000	0
bin	820000	0
bin	830000	0
bin	840000	0
bin	850000	0
bin	860000	0
bin	870000	0
bin	880000	0
bin	890000	0
bin	900000	0
bin	910000	0
bin	920000	0
bin	930000	0
bin	940000	0
bin	950000	0
bin	960000	0
bin	970000	15714
bin	980000	0
bin	990000	0
bin	1000000	0
bin	1010000	0
bin	1020000	0
bin	1030000	0
bin	1040000	0
bin	1050000	0
bin	1060000	0
bin	1070000	0
bin	1080000	0
bin	1090000	0
bin	1100000	0
bin	1110000	0
statistic QosThroughput.cliHost.wlan[0].radio packetErrorRate:histogram
field count 22514
field mean 0
field stddev 0
field min 0
field max 0
field sum 0
field sqrsum 0
attr recordingmode histogram
attr source packetErrorRate(packetSentToUpper)
attr title "Packet error rate"
bin	-inf	0
bin	-0.5	0
bin	-0.48	0
bin	-0.46	0
bin	-0.44	0
bin	-0.42	0
bin	-0.4	0
bin	-0.38	0
bin	-0.36	0
bin	-0.34	0
bin	-0.32	0
bin	-0.3	0
bin	-0.28	0
bin	-0.26	0
bin	-0.24	0
bin	-0.22	0
bin	-0.2	0
bin	-0.18	0
bin	-0.16	0
bin	-0.14	0
bin	-0.12	0
bin	-0.1	0
bin	-0.08	0
bin	-0.06	0
bin	-0.04	0
bin	-0.02	0
bin	0	22514
bin	0.02	0
bin	0.04	0
bin	0.06	0
bin	0.08	0
bin	0.1	0
bin	0.12	0
bin	0.14	0
bin	0.16	0
bin	0.18	0
bin	0.2	0
bin	0.22	0
bin	0.24	0
bin	0.26	0
bin	0.28	0
bin	0.3	0
bin	0.32	0
bin	0.34	0
bin	0.36	0
bin	0.38	0
bin	0.4	0
bin	0.42	0
bin	0.44	0
bin	0.46	0
bin	0.48	0
bin	0.5	0
statistic QosThroughput.cliHost.wlan[0].radio bitErrorRate:histogram
field count 0
field mean -nan
field stddev nan
field min nan
field max nan
field sum 0
field sqrsum 0
attr recordingmode histogram
attr source bitErrorRate(packetSentToUpper)
attr title "Bit error rate"
bin	-inf	0
bin	0	0
bin	1	0
statistic QosThroughput.cliHost.wlan[0].radio symbolErrorRate:histogram
field count 0
field mean -nan
field stddev nan
field min nan
field max nan
field sum 0
field sqrsum 0
attr recordingmode histogram
attr source symbolErrorRate(packetSentToUpper)
attr title "Symbol error rate"
bin	-inf	0
bin	0	0
bin	1	0
scalar QosThroughput.cliHost.wlan[0] packetDropInterfaceDown:count 0
attr interpolationmode none
attr recordingmode count
attr source packetDropReasonIsInterfaceDown(packetDropped)
attr title "packet drops: interface down, count"
scalar QosThroughput.cliHost.wlan[0] packetDropInterfaceDown:sum(packetBytes) 0
attr interpolationmode none
attr recordingmode sum(packetBytes)
attr source packetDropReasonIsInterfaceDown(packetDropped)
attr title "packet drops: interface down, sum(packetBytes)"
scalar QosThroughput.cliHost.wlan[0] packetDropNoCarrier:count 0
attr interpolationmode none
attr recordingmode count
attr source packetDropReasonIsNoCarrier(packetDropped)
attr title "packet drops: no carrier, count"
scalar QosThroughput.cliHost.wlan[0] packetDropNoCarrier:sum(packetBytes) 0
attr interpolationmode none
attr recordingmode sum(packetBytes)
attr source packetDropReasonIsNoCarrier(packetDropped)
attr title "packet drops: no carrier, sum(packetBytes)"
scalar QosThroughput.cliHost.ipv4.ip packetDropAddressResolutionFailed:count 0
attr interpolationmode none
attr recordingmode count
attr source packetDropReasonIsAddressResolutionFailed(packetDropped)
attr title "packet drop: address resolution failed, count"
scalar QosThroughput.cliHost.ipv4.ip packetDropAddressResolutionFailed:sum(packetBytes) 0
attr interpolationmode none
attr recordingmode sum(packetBytes)
attr source packetDropReasonIsAddressResolutionFailed(packetDropped)
attr title "packet drop: address resolution failed, sum(packetBytes)"
scalar QosThroughput.cliHost.ipv4.ip packetDropHopLimitReached:count 0
attr interpolationmode none
attr recordingmode count
attr source packetDropReasonIsHopLimitReached(packetDropped)
attr title "packet drop: hop limit reached, count"
scalar QosThroughput.cliHost.ipv4.ip packetDropHopLimitReached:sum(packetBytes) 0
attr interpolationmode none
attr recordingmode sum(packetBytes)
attr source packetDropReasonIsHopLimitReached(packetDropped)
attr title "packet drop: hop limit reached, sum(packetBytes)"
scalar QosThroughput.cliHost.ipv4.ip packetDropForwardingDisabled:count 0
attr interpolationmode none
attr recordingmode count
attr source packetDropReasonIsForwardingDisabled(packetDropped)
attr title "packet drop: forwarding disabled, count"
scalar QosThroughput.cliHost.ipv4.ip packetDropForwardingDisabled:sum(packetBytes) 0
attr interpolationmode none
attr recordingmode sum(packetBytes)
attr source packetDropReasonIsForwardingDisabled(packetDropped)
attr title "packet drop: forwarding disabled, sum(packetBytes)"
scalar QosThroughput.cliHost.ipv4.ip packetDropLifetimeExpired:count 0
attr interpolationmode none
attr recordingmode count
attr source packetDropReasonIsLifetimeExpired(packetDropped)
attr title "packet drop: lifetime expired, count"
scalar QosThroughput.cliHost.ipv4.ip packetDropLifetimeExpired:sum(packetBytes) 0
attr interpolationmode none
attr recordingmode sum(packetBytes)
attr source packetDropReasonIsLifetimeExpired(packetDropped)
attr title "packet drop: lifetime expired, sum(packetBytes)"
scalar QosThroughput.cliHost.ipv4.ip packetDropNoInterfaceFound:count 0
attr interpolationmode none
attr recordingmode count
attr source packetDropReasonIsNoInterfaceFound(packetDropped)
attr title "packet drop: no interface found, count"
scalar QosThroughput.cliHost.ipv4.ip packetDropNoInterfaceFound:sum(packetBytes) 0
attr interpolationmode none
attr recordingmode sum(packetBytes)
attr source packetDropReasonIsNoInterfaceFound(packetDropped)
attr title "packet drop: no interface found, sum(packetBytes)"
scalar QosThroughput.cliHost.ipv4.ip packetDropNoRouteFound:count 0
attr interpolationmode none
attr recordingmode count
attr source packetDropReasonIsNoRouteFound(packetDropped)
attr title "packet drop: no route found, count"
scalar QosThroughput.cliHost.ipv4.ip packetDropNoRouteFound:sum(packetBytes) 0
attr interpolationmode none
attr recordingmode sum(packetBytes)
attr source packetDropReasonIsNoRouteFound(packetDropped)
attr title "packet drop: no route found, sum(packetBytes)"
scalar QosThroughput.cliHost.ipv4.ip packetDropUndefined:count 0
attr interpolationmode none
attr recordingmode count
attr source packetDropReasonIsUndefined(packetDropped)
attr title "packet drop: undefined, count"
scalar QosThroughput.cliHost.ipv4.ip packetDropUndefined:sum(packetBytes) 0
attr interpolationmode none
attr recordingmode sum(packetBytes)
attr source packetDropReasonIsUndefined(packetDropped)
attr title "packet drop: undefined, sum(packetBytes)"
scalar QosThroughput.cliHost.ipv4.arp arpResolutionFailed:count 0
attr recordingmode count
attr title "ARP failed resolutions, count"
scalar QosThroughput.cliHost.ipv4.arp arpResolutionCompleted:count 1
attr recordingmode count
attr title "ARP completed resolutions, count"
scalar QosThroughput.cliHost.ipv4.arp arpResolutionInitiated:count 1
attr recordingmode count
attr title "ARP initiated resolutions, count"
scalar QosThroughput.cliHost.ipv4.arp arpReplySent:count 0
attr recordingmode count
attr source arpReplySent
attr title "ARP replies sent, count"
scalar QosThroughput.cliHost.ipv4.arp arpReplySent:sum(packetBytes) 0
attr recordingmode sum(packetBytes)
attr source arpReplySent
attr title "ARP replies sent, sum(packetBytes)"
scalar QosThroughput.cliHost.ipv4.arp arpRequestSent:count 1
attr recordingmode count
attr source arpRequestSent
attr title "ARP request sent, count"
scalar QosThroughput.cliHost.ipv4.arp arpRequestSent:sum(packetBytes) 28
attr recordingmode sum(packetBytes)
attr source arpRequestSent
attr title "ARP request sent, sum(packetBytes)"
scalar QosThroughput.cliHost.udp packetReceived:count 0
attr interpolationmode none
attr recordingmode count
attr source packetReceived
attr title "packets received, count"
scalar QosThroughput.cliHost.udp packetReceived:sum(packetBytes) 0
attr interpolationmode none
attr recordingmode sum(packetBytes)
attr source packetReceived
attr title "packets received, sum(packetBytes)"
scalar QosThroughput.cliHost.udp packetSent:count 20000
attr interpolationmode none
attr recordingmode count
attr source packetSent
attr title "packets sent, count"
scalar QosThroughput.cliHost.udp packetSent:sum(packetBytes) 2160000
attr interpolationmode none
attr recordingmode sum(packetBytes)
attr source packetSent
attr title "packets sent, sum(packetBytes)"
scalar QosThroughput.cliHost.udp passedUpPk:count 0
attr interpolationmode none
attr recordingmode count
attr source packetSentToUpper
attr title "packets passed up, count"
scalar QosThroughput.cliHost.udp droppedPkWrongPort:count 0
attr interpolationmode none
attr recordingmode count
attr source packetDropReasonIsNoPortFound(packetDropped)
attr title "packets dropped (wrong port), count"
scalar QosThroughput.cliHost.udp droppedPkBadChecksum:count 0
attr interpolationmode none
attr recordingmode count
attr source packetDropReasonIsIncorrectlyReceived(packetDropped)
attr title "packets dropped (checksum error), count"
scalar QosThroughput.cliHost.app[0] "packets sent" 5000
scalar QosThroughput.cliHost.app[0] "packets received" 0
scalar QosThroughput.cliHost.app[0] packetReceived:count 0
attr interpolationmode none
attr recordingmode count
attr source packetReceived
attr title "packets received, count"
scalar QosThroughput.cliHost.app[0] packetReceived:sum(packetBytes) 0
attr interpolationmode none
attr recordingmode sum(packetBytes)
attr source packetReceived
attr title "packets received, sum(packetBytes)"
statistic QosThroughput.cliHost.app[0] rcvdPkLifetime:stats
field count 0
field mean -nan
field stddev nan
field min nan
field max nan
field sum 0
field sqrsum 0
attr interpolationmode none
attr recordingmode stats
attr source dataAge(packetReceived)
attr title "received packet lifetime"
attr unit s
scalar QosThroughput.cliHost.app[0] packetSent:count 5000
attr interpolationmode none
attr recordingmode count
attr source packetSent
attr title "packets sent, count"
scalar QosThroughput.cliHost.app[0] packetSent:sum(packetBytes) 500000
attr interpolationmode none
attr recordingmode sum(packetBytes)
attr source packetSent
attr title "packets sent, sum(packetBytes)"
scalar QosThroughput.cliHost.app[1] "packets sent" 5000
scalar QosThroughput.cliHost.app[1] "packets received" 0
scalar QosThroughput.cliHost.app[1] packetReceived:count 0
attr interpolationmode none
attr recordingmode count
attr source packetReceived
attr title "packets received, count"
scalar QosThroughput.cliHost.app[1] packetReceived:sum(packetBytes) 0
attr interpolationmode none
attr recordingmode sum(packetBytes)
attr source packetReceived
attr title "packets received, sum(packetBytes)"
statistic QosThroughput.cliHost.app[1] rcvdPkLifetime:stats
field count 0
field mean -nan
field stddev nan
field min nan
field max nan
field sum 0
field sqrsum 0
attr interpolationmode none
attr recordingmode stats
attr source dataAge(packetReceived)
attr title "received packet lifetime"
attr unit s
scalar QosThroughput.cliHost.app[1] packetSent:count 5000
attr interpolationmode none
attr recordingmode count
attr source packetSent
attr title "packets sent, count"
scalar QosThroughput.cliHost.app[1] packetSent:sum(packetBytes) 500000
attr interpolationmode none
attr recordingmode sum(packetBytes)
attr source packetSent
attr title "packets sent, sum(packetBytes)"
scalar QosThroughput.cliHost.app[2] "packets sent" 5000
scalar QosThroughput.cliHost.app[2] "packets received" 0
scalar QosThroughput.cliHost.app[2] packetReceived:count 0
attr interpolationmode none
attr recordingmode count
attr source packetReceived
attr title "packets received, count"
scalar QosThroughput.cliHost.app[2] packetReceived:sum(packetBytes) 0
attr interpolationmode none
attr recordingmode sum(packetBytes)
attr source packetReceived
attr title "packets received, sum(packetBytes)"
statistic QosThroughput.cliHost.app[2] rcvdPkLifetime:stats
field count 0
field mean -nan
field stddev nan
field min nan
field max nan
field sum 0
field sqrsum 0
attr interpolationmode none
attr recordingmode stats
attr source dataAge(packetReceived)
attr title "received packet lifetime"
attr unit s
scalar QosThroughput.cliHost.app[2] packetSent:count 5000
attr interpolationmode none
attr recordingmode count
attr source packetSent
attr title "packets sent, count"
scalar QosThroughput.cliHost.app[2] packetSent:sum(packetBytes) 500000
attr interpolationmode none
attr recordingmode sum(packetBytes)
attr source packetSent
attr title "packets sent, sum(packetBytes)"
scalar QosThroughput.cliHost.app[3] "packets sent" 5000
scalar QosThroughput.cliHost.app[3] "packets received" 0
scalar QosThroughput.cliHost.app[3] packetReceived:count 0
attr interpolationmode none
attr recordingmode count
attr source packetReceived
attr title "packets received, count"
scalar QosThroughput.cliHost.app[3] packetReceived:sum(packetBytes) 0
attr interpolationmode none
attr recordingmode sum(packetBytes)
attr source packetReceived
attr title "packets received, sum(packetBytes)"
statistic QosThroughput.cliHost.app[3] rcvdPkLifetime:stats
field count 0
field mean -nan
field stddev nan
field min nan
field max nan
field sum 0
field sqrsum 0
attr interpolationmode none
attr recordingmode stats
attr source dataAge(packetReceived)
attr title "received packet lifetime"
attr unit s
scalar QosThroughput.cliHost.app[3] packetSent:count 5000
attr interpolationmode none
attr recordingmode count
attr source packetSent
attr title "packets sent, count"
scalar QosThroughput.cliHost.app[3] packetSent:sum(packetBytes) 500000
attr interpolationmode none
attr recordingmode sum(packetBytes)
attr source packetSent
attr title "packets sent, sum(packetBytes)"
scalar QosThroughput.radioMedium.propagation "Arrival computation count" 63754
scalar QosThroughput.radioMedium "transmission count" 31877
scalar QosThroughput.radioMedium "signal send count" 63754
scalar QosThroughput.radioMedium "reception computation count" 63754
scalar QosThroughput.radioMedium "interference computation count" 221459
scalar QosThroughput.radioMedium "reception decision computation count" 62956
scalar QosThroughput.radioMedium "listening decision computation count" 95281
scalar QosThroughput.radioMedium "reception cache hit" 85.617084252654
attr unit %
scalar QosThroughput.radioMedium "interference cache hit" 66.666666666667
attr unit %
scalar QosThroughput.radioMedium "noise cache hit" 0
attr unit %
scalar QosThroughput.radioMedium "snir cache hit" 50
attr unit %
scalar QosThroughput.radioMedium "reception decision cache hit" 50
attr unit %
scalar QosThroughput.radioMedium "reception result cache hit" 0
attr unit %

