version 3
run General-0-20251027-12:28:00-29285
attr configname General
attr datetime 20251027-12:28:00
attr datetimef 20251027-122800
attr experiment General
attr inifile omnetpp.ini
attr iterationvars "$sound=\"husten.mp3\""
attr iterationvarsd sound=husten.mp3
attr iterationvarsf sound=husten.mp3-
attr measurement "$sound=\"husten.mp3\""
attr network VoIPStreamTrafficTest
attr processid 29285
attr repetition 0
attr replication #0
attr resultdir results
attr runnumber 0
attr seedset 0
itervar sound "\"husten.mp3\""
config **.param-recording false
config image-path /home/zoli/Projects/OMNET/inet/images
config output-scalar-file results/omnetpp.ini-General-#0.sca
config output-vector-file results/omnetpp.ini-General-#0.vec
config sim-time-limit 2s
config network VoIPStreamTrafficTest
config warnings true
config num-rngs 8
config rng-class cMersenneTwister
config sim-time-limit 2s
config total-stack 2MiB
config **.client.numApps 1
config **.client.app[0].typename VoipStreamReceiver
config **.client.app[0].localPort 1000
config **.client.app[0].resultFile "\"results/results.wav\""
config **.server.numApps 1
config **.server.app[0].typename VoipStreamSender
config **.server.app[0].packetTimeLength 20ms
config **.server.app[0].voipHeaderSize 40B
config **.server.app[0].sampleRate 8000Hz
config **.server.app[0].compressedBitRate 40000bps
config **.server.app[0].voipSilenceThreshold 100
config **.server.app[0].repeatCount 1
config **.server.app[0].traceFileName "\"results/VoIPtrace.wav\""
config **.server.app[0].soundFile "\"../soundFiles/\" +         \"husten.mp3\""
config **.server.app[0].localPort 1000
config **.server.app[0].destPort 1000
config **.server.app[0].destAddress "\"client\""
config **.host1.numApps 1
config **.host1.app[0].typename TcpSessionApp
config **.host1.app[0].active true
config **.host1.app[0].localPort -1
config **.host1.app[0].connectAddress "\"host2\""
config **.host1.app[0].connectPort 1000
config **.host1.app[0].tOpen 0.2s
config **.host1.app[0].tSend 0.4s
config **.host1.app[0].sendBytes 10000000B
config **.host1.app[0].sendScript "\"\""
config **.host1.app[0].tClose 100s
config **.host2.numApps 1
config **.host2.app[0].typename TcpEchoApp
config **.host2.app[0].localPort 1000
config **.host2.app[0].echoFactor 2.0
config **.host2.app[0].echoDelay 0s
config **.tcp.typename Tcp
config **.tcp.mss 1024
config **.tcp.advertisedWindow 14336
config **.forwarding false
config **.arp.retryTimeout 1s
config **.arp.retryCount 3
config **.arp.cacheTimeout 100s
config **.ipv4.arp.proxyArpInterfaces "\"*\""
config **.eth[*].duplexMode true
config **.eth[*].queue.typename EthernetQosQueue
config **.eth[*].queue.dataQueue.typename DropTailQueue
config **.eth[*].queue.dataQueue.packetCapacity 10
config **.switch*.bridging.typename MacRelayUnit

scalar VoIPStreamTrafficTest.client.ethernet pauseSent:count 0
scalar VoIPStreamTrafficTest.client.ethernet pauseSent:sum 0
scalar VoIPStreamTrafficTest.client.ethernet decapPk:count 101
scalar VoIPStreamTrafficTest.client.ethernet decapPk:sum(packetBytes) 12624
scalar VoIPStreamTrafficTest.client.ethernet encapPk:count 1
scalar VoIPStreamTrafficTest.client.ethernet encapPk:sum(packetBytes) 28
scalar VoIPStreamTrafficTest.client.lo[0].lo rcvdPkFromHl:count 0
scalar VoIPStreamTrafficTest.client.lo[0].lo rcvdPkFromHl:sum(packetBytes) 0
scalar VoIPStreamTrafficTest.client.lo[0].lo passedUpPk:count 0
scalar VoIPStreamTrafficTest.client.lo[0].lo passedUpPk:sum(packetBytes) 0
scalar VoIPStreamTrafficTest.client.lo[0] packetDropInterfaceDown:count 0
scalar VoIPStreamTrafficTest.client.lo[0] packetDropInterfaceDown:sum(packetBytes) 0
scalar VoIPStreamTrafficTest.client.lo[0] packetDropNoCarrier:count 0
scalar VoIPStreamTrafficTest.client.lo[0] packetDropNoCarrier:sum(packetBytes) 0
scalar VoIPStreamTrafficTest.client.eth[0].queue.classifier packets:count 1
scalar VoIPStreamTrafficTest.client.eth[0].queue.classifier packetLengths:sum 368
scalar VoIPStreamTrafficTest.client.eth[0].queue.pauseQueue queueLength:last 0
scalar VoIPStreamTrafficTest.client.eth[0].queue.pauseQueue queueLength:max 0
scalar VoIPStreamTrafficTest.client.eth[0].queue.pauseQueue queueLength:timeavg 0
scalar VoIPStreamTrafficTest.client.eth[0].queue.pauseQueue queueBitLength:last 0
scalar VoIPStreamTrafficTest.client.eth[0].queue.pauseQueue queueBitLength:max 0
scalar VoIPStreamTrafficTest.client.eth[0].queue.pauseQueue queueBitLength:timeavg 0
scalar VoIPStreamTrafficTest.client.eth[0].queue.pauseQueue outgoingPackets:count 0
scalar VoIPStreamTrafficTest.client.eth[0].queue.pauseQueue outgoingPacketLengths:sum 0
scalar VoIPStreamTrafficTest.client.eth[0].queue.pauseQueue incomingPackets:count 0
scalar VoIPStreamTrafficTest.client.eth[0].queue.pauseQueue incomingPacketLengths:sum 0
scalar VoIPStreamTrafficTest.client.eth[0].queue.pauseQueue droppedPacketsQueueOverflow:count 0
scalar VoIPStreamTrafficTest.client.eth[0].queue.pauseQueue droppedPacketLengthsQueueOverflow:sum 0
scalar VoIPStreamTrafficTest.client.eth[0].queue.dataQueue queueLength:last 0
scalar VoIPStreamTrafficTest.client.eth[0].queue.dataQueue queueLength:max 0
scalar VoIPStreamTrafficTest.client.eth[0].queue.dataQueue queueLength:timeavg 0
scalar VoIPStreamTrafficTest.client.eth[0].queue.dataQueue queueBitLength:last 0
scalar VoIPStreamTrafficTest.client.eth[0].queue.dataQueue queueBitLength:max 0
scalar VoIPStreamTrafficTest.client.eth[0].queue.dataQueue queueBitLength:timeavg 0
scalar VoIPStreamTrafficTest.client.eth[0].queue.dataQueue outgoingPackets:count 1
scalar VoIPStreamTrafficTest.client.eth[0].queue.dataQueue outgoingPacketLengths:sum 368
scalar VoIPStreamTrafficTest.client.eth[0].queue.dataQueue incomingPackets:count 1
scalar VoIPStreamTrafficTest.client.eth[0].queue.dataQueue incomingPacketLengths:sum 368
scalar VoIPStreamTrafficTest.client.eth[0].queue.dataQueue droppedPacketsQueueOverflow:count 0
scalar VoIPStreamTrafficTest.client.eth[0].queue.dataQueue droppedPacketLengthsQueueOverflow:sum 0
scalar VoIPStreamTrafficTest.client.eth[0].queue.scheduler packets:count 1
scalar VoIPStreamTrafficTest.client.eth[0].queue.scheduler packetLengths:sum 368
scalar VoIPStreamTrafficTest.client.eth[0].queue queueLength:last -1
scalar VoIPStreamTrafficTest.client.eth[0].queue queueLength:max 0
scalar VoIPStreamTrafficTest.client.eth[0].queue queueLength:timeavg -0.98968568
scalar VoIPStreamTrafficTest.client.eth[0].queue queueBitLength:last -368
scalar VoIPStreamTrafficTest.client.eth[0].queue queueBitLength:max 0
scalar VoIPStreamTrafficTest.client.eth[0].queue queueBitLength:timeavg -364.20433024
scalar VoIPStreamTrafficTest.client.eth[0].queue outgoingPackets:count 1
scalar VoIPStreamTrafficTest.client.eth[0].queue outgoingPacketLengths:sum 368
scalar VoIPStreamTrafficTest.client.eth[0].queue incomingPackets:count 0
scalar VoIPStreamTrafficTest.client.eth[0].queue incomingPacketLengths:sum 0
scalar VoIPStreamTrafficTest.client.eth[0].queue droppedPacketsQueueOverflow:count 0
scalar VoIPStreamTrafficTest.client.eth[0].queue droppedPacketLengthsQueueOverflow:sum 0
scalar VoIPStreamTrafficTest.client.eth[0].mac "simulated time" 2
scalar VoIPStreamTrafficTest.client.eth[0].mac full-duplex 1
scalar VoIPStreamTrafficTest.client.eth[0].mac "frames/sec sent" 0.5
scalar VoIPStreamTrafficTest.client.eth[0].mac "frames/sec rcvd" 50.5
scalar VoIPStreamTrafficTest.client.eth[0].mac "bits/sec sent" 256
scalar VoIPStreamTrafficTest.client.eth[0].mac "bits/sec rcvd" 57768
scalar VoIPStreamTrafficTest.client.eth[0].mac "rx channel idle (%)" 99.939
scalar VoIPStreamTrafficTest.client.eth[0].mac "rx channel utilization (%)" 0.061
scalar VoIPStreamTrafficTest.client.eth[0].mac rxPausePkUnits:count 0
scalar VoIPStreamTrafficTest.client.eth[0].mac rxPausePkUnits:sum 0
scalar VoIPStreamTrafficTest.client.eth[0].mac txPausePkUnits:count 0
scalar VoIPStreamTrafficTest.client.eth[0].mac txPausePkUnits:sum 0
scalar VoIPStreamTrafficTest.client.eth[0].mac rxPkOk:count 101
scalar VoIPStreamTrafficTest.client.eth[0].mac rxPkOk:sum(packetBytes) 14442
scalar VoIPStreamTrafficTest.client.eth[0].mac txPk:count 1
scalar VoIPStreamTrafficTest.client.eth[0].mac txPk:sum(packetBytes) 64
scalar VoIPStreamTrafficTest.client.eth[0].mac packetReceivedFromUpper:count 1
scalar VoIPStreamTrafficTest.client.eth[0].mac packetReceivedFromUpper:sum(packetBytes) 46
scalar VoIPStreamTrafficTest.client.eth[0].mac passedUpPk:count 101
scalar VoIPStreamTrafficTest.client.eth[0].mac passedUpPk:sum(packetBytes) 14442
scalar VoIPStreamTrafficTest.client.eth[0].mac packetDropIncorrectlyReceived:count 0
scalar VoIPStreamTrafficTest.client.eth[0].mac packetDropIncorrectlyReceived:sum(packetBytes) 0
scalar VoIPStreamTrafficTest.client.eth[0].mac packetDropInterfaceDown:count 0
scalar VoIPStreamTrafficTest.client.eth[0].mac packetDropInterfaceDown:sum(packetBytes) 0
scalar VoIPStreamTrafficTest.client.eth[0].mac packetDropNotAddressedToUs:count 0
scalar VoIPStreamTrafficTest.client.eth[0].mac packetDropNotAddressedToUs:sum(packetBytes) 0
scalar VoIPStreamTrafficTest.client.eth[0] packetDropInterfaceDown:count 0
scalar VoIPStreamTrafficTest.client.eth[0] packetDropInterfaceDown:sum(packetBytes) 0
scalar VoIPStreamTrafficTest.client.eth[0] packetDropNoCarrier:count 0
scalar VoIPStreamTrafficTest.client.eth[0] packetDropNoCarrier:sum(packetBytes) 0
scalar VoIPStreamTrafficTest.client.ipv4.ip packetDropAddressResolutionFailed:count 0
scalar VoIPStreamTrafficTest.client.ipv4.ip packetDropAddressResolutionFailed:sum(packetBytes) 0
scalar VoIPStreamTrafficTest.client.ipv4.ip packetDropHopLimitReached:count 0
scalar VoIPStreamTrafficTest.client.ipv4.ip packetDropHopLimitReached:sum(packetBytes) 0
scalar VoIPStreamTrafficTest.client.ipv4.ip packetDropForwardingDisabled:count 0
scalar VoIPStreamTrafficTest.client.ipv4.ip packetDropForwardingDisabled:sum(packetBytes) 0
scalar VoIPStreamTrafficTest.client.ipv4.ip packetDropLifetimeExpired:count 0
scalar VoIPStreamTrafficTest.client.ipv4.ip packetDropLifetimeExpired:sum(packetBytes) 0
scalar VoIPStreamTrafficTest.client.ipv4.ip packetDropNoInterfaceFound:count 0
scalar VoIPStreamTrafficTest.client.ipv4.ip packetDropNoInterfaceFound:sum(packetBytes) 0
scalar VoIPStreamTrafficTest.client.ipv4.ip packetDropNoRouteFound:count 0
scalar VoIPStreamTrafficTest.client.ipv4.ip packetDropNoRouteFound:sum(packetBytes) 0
scalar VoIPStreamTrafficTest.client.ipv4.ip packetDropUndefined:count 0
scalar VoIPStreamTrafficTest.client.ipv4.ip packetDropUndefined:sum(packetBytes) 0
scalar VoIPStreamTrafficTest.client.ipv4.arp arpResolutionFailed:count 0
scalar VoIPStreamTrafficTest.client.ipv4.arp arpResolutionCompleted:count 1
scalar VoIPStreamTrafficTest.client.ipv4.arp arpResolutionInitiated:count 0
scalar VoIPStreamTrafficTest.client.ipv4.arp arpReplySent:count 1
scalar VoIPStreamTrafficTest.client.ipv4.arp arpReplySent:sum(packetBytes) 28
scalar VoIPStreamTrafficTest.client.ipv4.arp arpRequestSent:count 0
scalar VoIPStreamTrafficTest.client.ipv4.arp arpRequestSent:sum(packetBytes) 0
scalar VoIPStreamTrafficTest.client.udp packetReceived:count 99
scalar VoIPStreamTrafficTest.client.udp packetReceived:sum(packetBytes) 10552
scalar VoIPStreamTrafficTest.client.udp packetSent:count 0
scalar VoIPStreamTrafficTest.client.udp packetSent:sum(packetBytes) 0
scalar VoIPStreamTrafficTest.client.udp passedUpPk:count 99
scalar VoIPStreamTrafficTest.client.udp droppedPkWrongPort:count 0
scalar VoIPStreamTrafficTest.client.udp droppedPkBadChecksum:count 0
scalar VoIPStreamTrafficTest.client.app[0] packetReceived:count 99
scalar VoIPStreamTrafficTest.client.app[0] packetReceived:sum(packetBytes) 9760
scalar VoIPStreamTrafficTest.client.app[0] dropPk:count 0
scalar VoIPStreamTrafficTest.client.app[0] dropPk:sum(packetBytes) 0
scalar VoIPStreamTrafficTest.client.app[0] numActiveSessions:max 1
scalar VoIPStreamTrafficTest.client.app[0] numActiveSessions:timeavg 0.9894724
scalar VoIPStreamTrafficTest.client.app[0] numSessions:last 1
scalar VoIPStreamTrafficTest.client.app[0] packetHasVoice:mean 0.58585858585859
scalar VoIPStreamTrafficTest.switch.bridging "processed frames" 20657
scalar VoIPStreamTrafficTest.switch.bridging "discarded frames" 0
scalar VoIPStreamTrafficTest.switch.bridging packetDropped:count 0
scalar VoIPStreamTrafficTest.switch.bridging packetDropped:sum(packetBytes) 0
scalar VoIPStreamTrafficTest.switch.ethernet pauseSent:count 0
scalar VoIPStreamTrafficTest.switch.ethernet pauseSent:sum 0
scalar VoIPStreamTrafficTest.switch.ethernet decapPk:count 20657
scalar VoIPStreamTrafficTest.switch.ethernet decapPk:sum(packetBytes) 11419802
scalar VoIPStreamTrafficTest.switch.ethernet encapPk:count 20659
scalar VoIPStreamTrafficTest.switch.ethernet encapPk:sum(packetBytes) 11419894
scalar VoIPStreamTrafficTest.switch.eth[0].queue.classifier packets:count 101
scalar VoIPStreamTrafficTest.switch.eth[0].queue.classifier packetLengths:sum 115536
scalar VoIPStreamTrafficTest.switch.eth[0].queue.pauseQueue queueLength:last 0
scalar VoIPStreamTrafficTest.switch.eth[0].queue.pauseQueue queueLength:max 0
scalar VoIPStreamTrafficTest.switch.eth[0].queue.pauseQueue queueLength:timeavg 0
scalar VoIPStreamTrafficTest.switch.eth[0].queue.pauseQueue queueBitLength:last 0
scalar VoIPStreamTrafficTest.switch.eth[0].queue.pauseQueue queueBitLength:max 0
scalar VoIPStreamTrafficTest.switch.eth[0].queue.pauseQueue queueBitLength:timeavg 0
scalar VoIPStreamTrafficTest.switch.eth[0].queue.pauseQueue outgoingPackets:count 0
scalar VoIPStreamTrafficTest.switch.eth[0].queue.pauseQueue outgoingPacketLengths:sum 0
scalar VoIPStreamTrafficTest.switch.eth[0].queue.pauseQueue incomingPackets:count 0
scalar VoIPStreamTrafficTest.switch.eth[0].queue.pauseQueue incomingPacketLengths:sum 0
scalar VoIPStreamTrafficTest.switch.eth[0].queue.pauseQueue droppedPacketsQueueOverflow:count 0
scalar VoIPStreamTrafficTest.switch.eth[0].queue.pauseQueue droppedPacketLengthsQueueOverflow:sum 0
scalar VoIPStreamTrafficTest.switch.eth[0].queue.dataQueue queueLength:last 0
scalar VoIPStreamTrafficTest.switch.eth[0].queue.dataQueue queueLength:max 0
scalar VoIPStreamTrafficTest.switch.eth[0].queue.dataQueue queueLength:timeavg 0
scalar VoIPStreamTrafficTest.switch.eth[0].queue.dataQueue queueBitLength:last 0
scalar VoIPStreamTrafficTest.switch.eth[0].queue.dataQueue queueBitLength:max 0
scalar VoIPStreamTrafficTest.switch.eth[0].queue.dataQueue queueBitLength:timeavg 0
scalar VoIPStreamTrafficTest.switch.eth[0].queue.dataQueue outgoingPackets:count 101
scalar VoIPStreamTrafficTest.switch.eth[0].queue.dataQueue outgoingPacketLengths:sum 115536
scalar VoIPStreamTrafficTest.switch.eth[0].queue.dataQueue incomingPackets:count 101
scalar VoIPStreamTrafficTest.switch.eth[0].queue.dataQueue incomingPacketLengths:sum 115536
scalar VoIPStreamTrafficTest.switch.eth[0].queue.dataQueue droppedPacketsQueueOverflow:count 0
scalar VoIPStreamTrafficTest.switch.eth[0].queue.dataQueue droppedPacketLengthsQueueOverflow:sum 0
scalar VoIPStreamTrafficTest.switch.eth[0].queue.scheduler packets:count 101
scalar VoIPStreamTrafficTest.switch.eth[0].queue.scheduler packetLengths:sum 115536
scalar VoIPStreamTrafficTest.switch.eth[0].queue queueLength:last -101
scalar VoIPStreamTrafficTest.switch.eth[0].queue queueLength:max 0
scalar VoIPStreamTrafficTest.switch.eth[0].queue queueLength:timeavg -51.375862608857
scalar VoIPStreamTrafficTest.switch.eth[0].queue queueBitLength:last -115536
scalar VoIPStreamTrafficTest.switch.eth[0].queue queueBitLength:max 0
scalar VoIPStreamTrafficTest.switch.eth[0].queue queueBitLength:timeavg -50591.332418299
scalar VoIPStreamTrafficTest.switch.eth[0].queue outgoingPackets:count 101
scalar VoIPStreamTrafficTest.switch.eth[0].queue outgoingPacketLengths:sum 115536
scalar VoIPStreamTrafficTest.switch.eth[0].queue incomingPackets:count 0
scalar VoIPStreamTrafficTest.switch.eth[0].queue incomingPacketLengths:sum 0
scalar VoIPStreamTrafficTest.switch.eth[0].queue droppedPacketsQueueOverflow:count 0
scalar VoIPStreamTrafficTest.switch.eth[0].queue droppedPacketLengthsQueueOverflow:sum 0
scalar VoIPStreamTrafficTest.switch.eth[0].mac "simulated time" 2
scalar VoIPStreamTrafficTest.switch.eth[0].mac full-duplex 1
scalar VoIPStreamTrafficTest.switch.eth[0].mac "frames/sec sent" 50.5
scalar VoIPStreamTrafficTest.switch.eth[0].mac "frames/sec rcvd" 0.5
scalar VoIPStreamTrafficTest.switch.eth[0].mac "bits/sec sent" 57768
scalar VoIPStreamTrafficTest.switch.eth[0].mac "bits/sec rcvd" 256
scalar VoIPStreamTrafficTest.switch.eth[0].mac "rx channel idle (%)" 99.999712
scalar VoIPStreamTrafficTest.switch.eth[0].mac "rx channel utilization (%)" 0.000288
scalar VoIPStreamTrafficTest.switch.eth[0].mac rxPausePkUnits:count 0
scalar VoIPStreamTrafficTest.switch.eth[0].mac rxPausePkUnits:sum 0
scalar VoIPStreamTrafficTest.switch.eth[0].mac txPausePkUnits:count 0
scalar VoIPStreamTrafficTest.switch.eth[0].mac txPausePkUnits:sum 0
scalar VoIPStreamTrafficTest.switch.eth[0].mac rxPkOk:count 1
scalar VoIPStreamTrafficTest.switch.eth[0].mac rxPkOk:sum(packetBytes) 64
scalar VoIPStreamTrafficTest.switch.eth[0].mac txPk:count 101
scalar VoIPStreamTrafficTest.switch.eth[0].mac txPk:sum(packetBytes) 14442
scalar VoIPStreamTrafficTest.switch.eth[0].mac packetReceivedFromUpper:count 101
scalar VoIPStreamTrafficTest.switch.eth[0].mac packetReceivedFromUpper:sum(packetBytes) 14442
scalar VoIPStreamTrafficTest.switch.eth[0].mac passedUpPk:count 1
scalar VoIPStreamTrafficTest.switch.eth[0].mac passedUpPk:sum(packetBytes) 64
scalar VoIPStreamTrafficTest.switch.eth[0].mac packetDropIncorrectlyReceived:count 0
scalar VoIPStreamTrafficTest.switch.eth[0].mac packetDropIncorrectlyReceived:sum(packetBytes) 0
scalar VoIPStreamTrafficTest.switch.eth[0].mac packetDropInterfaceDown:count 0
scalar VoIPStreamTrafficTest.switch.eth[0].mac packetDropInterfaceDown:sum(packetBytes) 0
scalar VoIPStreamTrafficTest.switch.eth[0].mac packetDropNotAddressedToUs:count 0
scalar VoIPStreamTrafficTest.switch.eth[0].mac packetDropNotAddressedToUs:sum(packetBytes) 0
scalar VoIPStreamTrafficTest.switch.eth[0] packetDropInterfaceDown:count 0
scalar VoIPStreamTrafficTest.switch.eth[0] packetDropInterfaceDown:sum(packetBytes) 0
scalar VoIPStreamTrafficTest.switch.eth[0] packetDropNoCarrier:count 0
scalar VoIPStreamTrafficTest.switch.eth[0] packetDropNoCarrier:sum(packetBytes) 0
scalar VoIPStreamTrafficTest.switch.eth[1].queue.classifier packets:count 10278
scalar VoIPStreamTrafficTest.switch.eth[1].queue.classifier packetLengths:sum 84793568
scalar VoIPStreamTrafficTest.switch.eth[1].queue.pauseQueue queueLength:last 0
scalar VoIPStreamTrafficTest.switch.eth[1].queue.pauseQueue queueLength:max 0
scalar VoIPStreamTrafficTest.switch.eth[1].queue.pauseQueue queueLength:timeavg 0
scalar VoIPStreamTrafficTest.switch.eth[1].queue.pauseQueue queueBitLength:last 0
scalar VoIPStreamTrafficTest.switch.eth[1].queue.pauseQueue queueBitLength:max 0
scalar VoIPStreamTrafficTest.switch.eth[1].queue.pauseQueue queueBitLength:timeavg 0
scalar VoIPStreamTrafficTest.switch.eth[1].queue.pauseQueue outgoingPackets:count 0
scalar VoIPStreamTrafficTest.switch.eth[1].queue.pauseQueue outgoingPacketLengths:sum 0
scalar VoIPStreamTrafficTest.switch.eth[1].queue.pauseQueue incomingPackets:count 0
scalar VoIPStreamTrafficTest.switch.eth[1].queue.pauseQueue incomingPacketLengths:sum 0
scalar VoIPStreamTrafficTest.switch.eth[1].queue.pauseQueue droppedPacketsQueueOverflow:count 0
scalar VoIPStreamTrafficTest.switch.eth[1].queue.pauseQueue droppedPacketLengthsQueueOverflow:sum 0
scalar VoIPStreamTrafficTest.switch.eth[1].queue.dataQueue queueLength:last 0
scalar VoIPStreamTrafficTest.switch.eth[1].queue.dataQueue queueLength:max 8
scalar VoIPStreamTrafficTest.switch.eth[1].queue.dataQueue queueLength:timeavg 0.00070872
scalar VoIPStreamTrafficTest.switch.eth[1].queue.dataQueue queueBitLength:last 0
scalar VoIPStreamTrafficTest.switch.eth[1].queue.dataQueue queueBitLength:max 4096
scalar VoIPStreamTrafficTest.switch.eth[1].queue.dataQueue queueBitLength:timeavg 0.36286464
scalar VoIPStreamTrafficTest.switch.eth[1].queue.dataQueue outgoingPackets:count 10278
scalar VoIPStreamTrafficTest.switch.eth[1].queue.dataQueue outgoingPacketLengths:sum 84793568
scalar VoIPStreamTrafficTest.switch.eth[1].queue.dataQueue incomingPackets:count 10278
scalar VoIPStreamTrafficTest.switch.eth[1].queue.dataQueue incomingPacketLengths:sum 84793568
scalar VoIPStreamTrafficTest.switch.eth[1].queue.dataQueue droppedPacketsQueueOverflow:count 0
scalar VoIPStreamTrafficTest.switch.eth[1].queue.dataQueue droppedPacketLengthsQueueOverflow:sum 0
scalar VoIPStreamTrafficTest.switch.eth[1].queue.scheduler packets:count 10278
scalar VoIPStreamTrafficTest.switch.eth[1].queue.scheduler packetLengths:sum 84793568
scalar VoIPStreamTrafficTest.switch.eth[1].queue queueLength:last -10278
scalar VoIPStreamTrafficTest.switch.eth[1].queue queueLength:max 0
scalar VoIPStreamTrafficTest.switch.eth[1].queue queueLength:timeavg -5727.206102577
scalar VoIPStreamTrafficTest.switch.eth[1].queue queueBitLength:last -84793568
scalar VoIPStreamTrafficTest.switch.eth[1].queue queueBitLength:max 0
scalar VoIPStreamTrafficTest.switch.eth[1].queue queueBitLength:timeavg -49250820.227629
scalar VoIPStreamTrafficTest.switch.eth[1].queue outgoingPackets:count 10278
scalar VoIPStreamTrafficTest.switch.eth[1].queue outgoingPacketLengths:sum 84793568
scalar VoIPStreamTrafficTest.switch.eth[1].queue incomingPackets:count 0
scalar VoIPStreamTrafficTest.switch.eth[1].queue incomingPacketLengths:sum 0
scalar VoIPStreamTrafficTest.switch.eth[1].queue droppedPacketsQueueOverflow:count 0
scalar VoIPStreamTrafficTest.switch.eth[1].queue droppedPacketLengthsQueueOverflow:sum 0
scalar VoIPStreamTrafficTest.switch.eth[1].mac "simulated time" 2
scalar VoIPStreamTrafficTest.switch.eth[1].mac full-duplex 1
scalar VoIPStreamTrafficTest.switch.eth[1].mac "frames/sec sent" 5139
scalar VoIPStreamTrafficTest.switch.eth[1].mac "frames/sec rcvd" 5189.5
scalar VoIPStreamTrafficTest.switch.eth[1].mac "bits/sec sent" 42396784
scalar VoIPStreamTrafficTest.switch.eth[1].mac "bits/sec rcvd" 4769728
scalar VoIPStreamTrafficTest.switch.eth[1].mac "rx channel idle (%)" 94.898144
scalar VoIPStreamTrafficTest.switch.eth[1].mac "rx channel utilization (%)" 5.101856
scalar VoIPStreamTrafficTest.switch.eth[1].mac rxPausePkUnits:count 0
scalar VoIPStreamTrafficTest.switch.eth[1].mac rxPausePkUnits:sum 0
scalar VoIPStreamTrafficTest.switch.eth[1].mac txPausePkUnits:count 0
scalar VoIPStreamTrafficTest.switch.eth[1].mac txPausePkUnits:sum 0
scalar VoIPStreamTrafficTest.switch.eth[1].mac rxPkOk:count 10379
scalar VoIPStreamTrafficTest.switch.eth[1].mac rxPkOk:sum(packetBytes) 1192432
scalar VoIPStreamTrafficTest.switch.eth[1].mac txPk:count 10278
scalar VoIPStreamTrafficTest.switch.eth[1].mac txPk:sum(packetBytes) 10599196
scalar VoIPStreamTrafficTest.switch.eth[1].mac packetReceivedFromUpper:count 10278
scalar VoIPStreamTrafficTest.switch.eth[1].mac packetReceivedFromUpper:sum(packetBytes) 10599196
scalar VoIPStreamTrafficTest.switch.eth[1].mac passedUpPk:count 10379
scalar VoIPStreamTrafficTest.switch.eth[1].mac passedUpPk:sum(packetBytes) 1192432
scalar VoIPStreamTrafficTest.switch.eth[1].mac packetDropIncorrectlyReceived:count 0
scalar VoIPStreamTrafficTest.switch.eth[1].mac packetDropIncorrectlyReceived:sum(packetBytes) 0
scalar VoIPStreamTrafficTest.switch.eth[1].mac packetDropInterfaceDown:count 0
scalar VoIPStreamTrafficTest.switch.eth[1].mac packetDropInterfaceDown:sum(packetBytes) 0
scalar VoIPStreamTrafficTest.switch.eth[1].mac packetDropNotAddressedToUs:count 0
scalar VoIPStreamTrafficTest.switch.eth[1].mac packetDropNotAddressedToUs:sum(packetBytes) 0
scalar VoIPStreamTrafficTest.switch.eth[1] packetDropInterfaceDown:count 0
scalar VoIPStreamTrafficTest.switch.eth[1] packetDropInterfaceDown:sum(packetBytes) 0
scalar VoIPStreamTrafficTest.switch.eth[1] packetDropNoCarrier:count 0
scalar VoIPStreamTrafficTest.switch.eth[1] packetDropNoCarrier:sum(packetBytes) 0
scalar VoIPStreamTrafficTest.switch.eth[2].queue.classifier packets:count 10280
scalar VoIPStreamTrafficTest.switch.eth[2].queue.classifier packetLengths:sum 9424944
scalar VoIPStreamTrafficTest.switch.eth[2].queue.pauseQueue queueLength:last 0
scalar VoIPStreamTrafficTest.switch.eth[2].queue.pauseQueue queueLength:max 0
scalar VoIPStreamTrafficTest.switch.eth[2].queue.pauseQueue queueLength:timeavg 0
scalar VoIPStreamTrafficTest.switch.eth[2].queue.pauseQueue queueBitLength:last 0
scalar VoIPStreamTrafficTest.switch.eth[2].queue.pauseQueue queueBitLength:max 0
scalar VoIPStreamTrafficTest.switch.eth[2].queue.pauseQueue queueBitLength:timeavg 0
scalar VoIPStreamTrafficTest.switch.eth[2].queue.pauseQueue outgoingPackets:count 0
scalar VoIPStreamTrafficTest.switch.eth[2].queue.pauseQueue outgoingPacketLengths:sum 0
scalar VoIPStreamTrafficTest.switch.eth[2].queue.pauseQueue incomingPackets:count 0
scalar VoIPStreamTrafficTest.switch.eth[2].queue.pauseQueue incomingPacketLengths:sum 0
scalar VoIPStreamTrafficTest.switch.eth[2].queue.pauseQueue droppedPacketsQueueOverflow:count 0
scalar VoIPStreamTrafficTest.switch.eth[2].queue.pauseQueue droppedPacketLengthsQueueOverflow:sum 0
scalar VoIPStreamTrafficTest.switch.eth[2].queue.dataQueue queueLength:last 0
scalar VoIPStreamTrafficTest.switch.eth[2].queue.dataQueue queueLength:max 10
scalar VoIPStreamTrafficTest.switch.eth[2].queue.dataQueue queueLength:timeavg 0.00095352
scalar VoIPStreamTrafficTest.switch.eth[2].queue.dataQueue queueBitLength:last 0
scalar VoIPStreamTrafficTest.switch.eth[2].queue.dataQueue queueBitLength:max 5120
scalar VoIPStreamTrafficTest.switch.eth[2].queue.dataQueue queueBitLength:timeavg 0.48820224
scalar VoIPStreamTrafficTest.switch.eth[2].queue.dataQueue outgoingPackets:count 10280
scalar VoIPStreamTrafficTest.switch.eth[2].queue.dataQueue outgoingPacketLengths:sum 9424944
scalar VoIPStreamTrafficTest.switch.eth[2].queue.dataQueue incomingPackets:count 10280
scalar VoIPStreamTrafficTest.switch.eth[2].queue.dataQueue incomingPacketLengths:sum 9424944
scalar VoIPStreamTrafficTest.switch.eth[2].queue.dataQueue droppedPacketsQueueOverflow:count 0
scalar VoIPStreamTrafficTest.switch.eth[2].queue.dataQueue droppedPacketLengthsQueueOverflow:sum 0
scalar VoIPStreamTrafficTest.switch.eth[2].queue.scheduler packets:count 10280
scalar VoIPStreamTrafficTest.switch.eth[2].queue.scheduler packetLengths:sum 9424944
scalar VoIPStreamTrafficTest.switch.eth[2].queue queueLength:last -10280
scalar VoIPStreamTrafficTest.switch.eth[2].queue queueLength:max 0
scalar VoIPStreamTrafficTest.switch.eth[2].queue queueLength:timeavg -5722.4146717703
scalar VoIPStreamTrafficTest.switch.eth[2].queue queueBitLength:last -9424944
scalar VoIPStreamTrafficTest.switch.eth[2].queue queueBitLength:max 0
scalar VoIPStreamTrafficTest.switch.eth[2].queue queueBitLength:timeavg -3223212.234115
scalar VoIPStreamTrafficTest.switch.eth[2].queue outgoingPackets:count 10280
scalar VoIPStreamTrafficTest.switch.eth[2].queue outgoingPacketLengths:sum 9424944
scalar VoIPStreamTrafficTest.switch.eth[2].queue incomingPackets:count 0
scalar VoIPStreamTrafficTest.switch.eth[2].queue incomingPacketLengths:sum 0
scalar VoIPStreamTrafficTest.switch.eth[2].queue droppedPacketsQueueOverflow:count 0
scalar VoIPStreamTrafficTest.switch.eth[2].queue droppedPacketLengthsQueueOverflow:sum 0
scalar VoIPStreamTrafficTest.switch.eth[2].mac "simulated time" 2
scalar VoIPStreamTrafficTest.switch.eth[2].mac full-duplex 1
scalar VoIPStreamTrafficTest.switch.eth[2].mac "frames/sec sent" 5139.5
scalar VoIPStreamTrafficTest.switch.eth[2].mac "frames/sec rcvd" 5138.5
scalar VoIPStreamTrafficTest.switch.eth[2].mac "bits/sec sent" 4708144
scalar VoIPStreamTrafficTest.switch.eth[2].mac "bits/sec rcvd" 42396528
scalar VoIPStreamTrafficTest.switch.eth[2].mac "rx channel idle (%)" 57.274608
scalar VoIPStreamTrafficTest.switch.eth[2].mac "rx channel utilization (%)" 42.725392
scalar VoIPStreamTrafficTest.switch.eth[2].mac rxPausePkUnits:count 0
scalar VoIPStreamTrafficTest.switch.eth[2].mac rxPausePkUnits:sum 0
scalar VoIPStreamTrafficTest.switch.eth[2].mac txPausePkUnits:count 0
scalar VoIPStreamTrafficTest.switch.eth[2].mac txPausePkUnits:sum 0
scalar VoIPStreamTrafficTest.switch.eth[2].mac rxPkOk:count 10277
scalar VoIPStreamTrafficTest.switch.eth[2].mac rxPkOk:sum(packetBytes) 10599132
scalar VoIPStreamTrafficTest.switch.eth[2].mac txPk:count 10279
scalar VoIPStreamTrafficTest.switch.eth[2].mac txPk:sum(packetBytes) 1177036
scalar VoIPStreamTrafficTest.switch.eth[2].mac packetReceivedFromUpper:count 10280
scalar VoIPStreamTrafficTest.switch.eth[2].mac packetReceivedFromUpper:sum(packetBytes) 1178118
scalar VoIPStreamTrafficTest.switch.eth[2].mac passedUpPk:count 10277
scalar VoIPStreamTrafficTest.switch.eth[2].mac passedUpPk:sum(packetBytes) 10599132
scalar VoIPStreamTrafficTest.switch.eth[2].mac packetDropIncorrectlyReceived:count 0
scalar VoIPStreamTrafficTest.switch.eth[2].mac packetDropIncorrectlyReceived:sum(packetBytes) 0
scalar VoIPStreamTrafficTest.switch.eth[2].mac packetDropInterfaceDown:count 0
scalar VoIPStreamTrafficTest.switch.eth[2].mac packetDropInterfaceDown:sum(packetBytes) 0
scalar VoIPStreamTrafficTest.switch.eth[2].mac packetDropNotAddressedToUs:count 0
scalar VoIPStreamTrafficTest.switch.eth[2].mac packetDropNotAddressedToUs:sum(packetBytes) 0
scalar VoIPStreamTrafficTest.switch.eth[2] packetDropInterfaceDown:count 0
scalar VoIPStreamTrafficTest.switch.eth[2] packetDropInterfaceDown:sum(packetBytes) 0
scalar VoIPStreamTrafficTest.switch.eth[2] packetDropNoCarrier:count 0
scalar VoIPStreamTrafficTest.switch.eth[2] packetDropNoCarrier:sum(packetBytes) 0
scalar VoIPStreamTrafficTest.router2.ethernet pauseSent:count 0
scalar VoIPStreamTrafficTest.router2.ethernet pauseSent:sum 0
scalar VoIPStreamTrafficTest.router2.ethernet decapPk:count 20657
scalar VoIPStreamTrafficTest.router2.ethernet decapPk:sum(packetBytes) 11422856
scalar VoIPStreamTrafficTest.router2.ethernet encapPk:count 20657
scalar VoIPStreamTrafficTest.router2.ethernet encapPk:sum(packetBytes) 11361160
scalar VoIPStreamTrafficTest.router2.lo[0].lo rcvdPkFromHl:count 0
scalar VoIPStreamTrafficTest.router2.lo[0].lo rcvdPkFromHl:sum(packetBytes) 0
scalar VoIPStreamTrafficTest.router2.lo[0].lo passedUpPk:count 0
scalar VoIPStreamTrafficTest.router2.lo[0].lo passedUpPk:sum(packetBytes) 0
scalar VoIPStreamTrafficTest.router2.lo[0] packetDropInterfaceDown:count 0
scalar VoIPStreamTrafficTest.router2.lo[0] packetDropInterfaceDown:sum(packetBytes) 0
scalar VoIPStreamTrafficTest.router2.lo[0] packetDropNoCarrier:count 0
scalar VoIPStreamTrafficTest.router2.lo[0] packetDropNoCarrier:sum(packetBytes) 0
scalar VoIPStreamTrafficTest.router2.eth[0].queue.classifier packets:count 10381
scalar VoIPStreamTrafficTest.router2.eth[0].queue.classifier packetLengths:sum 9095984
scalar VoIPStreamTrafficTest.router2.eth[0].queue.pauseQueue queueLength:last 0
scalar VoIPStreamTrafficTest.router2.eth[0].queue.pauseQueue queueLength:max 0
scalar VoIPStreamTrafficTest.router2.eth[0].queue.pauseQueue queueLength:timeavg 0
scalar VoIPStreamTrafficTest.router2.eth[0].queue.pauseQueue queueBitLength:last 0
scalar VoIPStreamTrafficTest.router2.eth[0].queue.pauseQueue queueBitLength:max 0
scalar VoIPStreamTrafficTest.router2.eth[0].queue.pauseQueue queueBitLength:timeavg 0
scalar VoIPStreamTrafficTest.router2.eth[0].queue.pauseQueue outgoingPackets:count 0
scalar VoIPStreamTrafficTest.router2.eth[0].queue.pauseQueue outgoingPacketLengths:sum 0
scalar VoIPStreamTrafficTest.router2.eth[0].queue.pauseQueue incomingPackets:count 0
scalar VoIPStreamTrafficTest.router2.eth[0].queue.pauseQueue incomingPacketLengths:sum 0
scalar VoIPStreamTrafficTest.router2.eth[0].queue.pauseQueue droppedPacketsQueueOverflow:count 0
scalar VoIPStreamTrafficTest.router2.eth[0].queue.pauseQueue droppedPacketLengthsQueueOverflow:sum 0
scalar VoIPStreamTrafficTest.router2.eth[0].queue.dataQueue queueLength:last 0
scalar VoIPStreamTrafficTest.router2.eth[0].queue.dataQueue queueLength:max 9
scalar VoIPStreamTrafficTest.router2.eth[0].queue.dataQueue queueLength:timeavg 0.00080384
scalar VoIPStreamTrafficTest.router2.eth[0].queue.dataQueue queueBitLength:last 0
scalar VoIPStreamTrafficTest.router2.eth[0].queue.dataQueue queueBitLength:max 4176
scalar VoIPStreamTrafficTest.router2.eth[0].queue.dataQueue queueBitLength:timeavg 0.44638208
scalar VoIPStreamTrafficTest.router2.eth[0].queue.dataQueue outgoingPackets:count 10381
scalar VoIPStreamTrafficTest.router2.eth[0].queue.dataQueue outgoingPacketLengths:sum 9095984
scalar VoIPStreamTrafficTest.router2.eth[0].queue.dataQueue incomingPackets:count 10381
scalar VoIPStreamTrafficTest.router2.eth[0].queue.dataQueue incomingPacketLengths:sum 9095984
scalar VoIPStreamTrafficTest.router2.eth[0].queue.dataQueue droppedPacketsQueueOverflow:count 0
scalar VoIPStreamTrafficTest.router2.eth[0].queue.dataQueue droppedPacketLengthsQueueOverflow:sum 0
scalar VoIPStreamTrafficTest.router2.eth[0].queue.scheduler packets:count 10381
scalar VoIPStreamTrafficTest.router2.eth[0].queue.scheduler packetLengths:sum 9095984
scalar VoIPStreamTrafficTest.router2.eth[0].queue queueLength:last -10381
scalar VoIPStreamTrafficTest.router2.eth[0].queue queueLength:max 0
scalar VoIPStreamTrafficTest.router2.eth[0].queue queueLength:timeavg -5771.6762027324
scalar VoIPStreamTrafficTest.router2.eth[0].queue queueBitLength:last -9095984
scalar VoIPStreamTrafficTest.router2.eth[0].queue queueBitLength:max 0
scalar VoIPStreamTrafficTest.router2.eth[0].queue queueBitLength:timeavg -3000320.7944694
scalar VoIPStreamTrafficTest.router2.eth[0].queue outgoingPackets:count 10381
scalar VoIPStreamTrafficTest.router2.eth[0].queue outgoingPacketLengths:sum 9095984
scalar VoIPStreamTrafficTest.router2.eth[0].queue incomingPackets:count 0
scalar VoIPStreamTrafficTest.router2.eth[0].queue incomingPacketLengths:sum 0
scalar VoIPStreamTrafficTest.router2.eth[0].queue droppedPacketsQueueOverflow:count 0
scalar VoIPStreamTrafficTest.router2.eth[0].queue droppedPacketLengthsQueueOverflow:sum 0
scalar VoIPStreamTrafficTest.router2.eth[0].mac "simulated time" 2
scalar VoIPStreamTrafficTest.router2.eth[0].mac full-duplex 1
scalar VoIPStreamTrafficTest.router2.eth[0].mac "frames/sec sent" 5190
scalar VoIPStreamTrafficTest.router2.eth[0].mac "frames/sec rcvd" 5137.5
scalar VoIPStreamTrafficTest.router2.eth[0].mac "bits/sec sent" 4778128
scalar VoIPStreamTrafficTest.router2.eth[0].mac "bits/sec rcvd" 42396016
scalar VoIPStreamTrafficTest.router2.eth[0].mac "rx channel idle (%)" 57.275184
scalar VoIPStreamTrafficTest.router2.eth[0].mac "rx channel utilization (%)" 42.724816
scalar VoIPStreamTrafficTest.router2.eth[0].mac rxPausePkUnits:count 0
scalar VoIPStreamTrafficTest.router2.eth[0].mac rxPausePkUnits:sum 0
scalar VoIPStreamTrafficTest.router2.eth[0].mac txPausePkUnits:count 0
scalar VoIPStreamTrafficTest.router2.eth[0].mac txPausePkUnits:sum 0
scalar VoIPStreamTrafficTest.router2.eth[0].mac rxPkOk:count 10275
scalar VoIPStreamTrafficTest.router2.eth[0].mac rxPkOk:sum(packetBytes) 10599004
scalar VoIPStreamTrafficTest.router2.eth[0].mac txPk:count 10380
scalar VoIPStreamTrafficTest.router2.eth[0].mac txPk:sum(packetBytes) 1194532
scalar VoIPStreamTrafficTest.router2.eth[0].mac packetReceivedFromUpper:count 10381
scalar VoIPStreamTrafficTest.router2.eth[0].mac packetReceivedFromUpper:sum(packetBytes) 1136998
scalar VoIPStreamTrafficTest.router2.eth[0].mac passedUpPk:count 10275
scalar VoIPStreamTrafficTest.router2.eth[0].mac passedUpPk:sum(packetBytes) 10599004
scalar VoIPStreamTrafficTest.router2.eth[0].mac packetDropIncorrectlyReceived:count 0
scalar VoIPStreamTrafficTest.router2.eth[0].mac packetDropIncorrectlyReceived:sum(packetBytes) 0
scalar VoIPStreamTrafficTest.router2.eth[0].mac packetDropInterfaceDown:count 0
scalar VoIPStreamTrafficTest.router2.eth[0].mac packetDropInterfaceDown:sum(packetBytes) 0
scalar VoIPStreamTrafficTest.router2.eth[0].mac packetDropNotAddressedToUs:count 0
scalar VoIPStreamTrafficTest.router2.eth[0].mac packetDropNotAddressedToUs:sum(packetBytes) 0
scalar VoIPStreamTrafficTest.router2.eth[0] packetDropInterfaceDown:count 0
scalar VoIPStreamTrafficTest.router2.eth[0] packetDropInterfaceDown:sum(packetBytes) 0
scalar VoIPStreamTrafficTest.router2.eth[0] packetDropNoCarrier:count 0
scalar VoIPStreamTrafficTest.router2.eth[0] packetDropNoCarrier:sum(packetBytes) 0
scalar VoIPStreamTrafficTest.router2.eth[1].queue.classifier packets:count 10276
scalar VoIPStreamTrafficTest.router2.eth[1].queue.classifier packetLengths:sum 84767904
scalar VoIPStreamTrafficTest.router2.eth[1].queue.pauseQueue queueLength:last 0
scalar VoIPStreamTrafficTest.router2.eth[1].queue.pauseQueue queueLength:max 0
scalar VoIPStreamTrafficTest.router2.eth[1].queue.pauseQueue queueLength:timeavg 0
scalar VoIPStreamTrafficTest.router2.eth[1].queue.pauseQueue queueBitLength:last 0
scalar VoIPStreamTrafficTest.router2.eth[1].queue.pauseQueue queueBitLength:max 0
scalar VoIPStreamTrafficTest.router2.eth[1].queue.pauseQueue queueBitLength:timeavg 0
scalar VoIPStreamTrafficTest.router2.eth[1].queue.pauseQueue outgoingPackets:count 0
scalar VoIPStreamTrafficTest.router2.eth[1].queue.pauseQueue outgoingPacketLengths:sum 0
scalar VoIPStreamTrafficTest.router2.eth[1].queue.pauseQueue incomingPackets:count 0
scalar VoIPStreamTrafficTest.router2.eth[1].queue.pauseQueue incomingPacketLengths:sum 0
scalar VoIPStreamTrafficTest.router2.eth[1].queue.pauseQueue droppedPacketsQueueOverflow:count 0
scalar VoIPStreamTrafficTest.router2.eth[1].queue.pauseQueue droppedPacketLengthsQueueOverflow:sum 0
scalar VoIPStreamTrafficTest.router2.eth[1].queue.dataQueue queueLength:last 0
scalar VoIPStreamTrafficTest.router2.eth[1].queue.dataQueue queueLength:max 10
scalar VoIPStreamTrafficTest.router2.eth[1].queue.dataQueue queueLength:timeavg 0.00108528
scalar VoIPStreamTrafficTest.router2.eth[1].queue.dataQueue queueBitLength:last 0
scalar VoIPStreamTrafficTest.router2.eth[1].queue.dataQueue queueBitLength:max 4640
scalar VoIPStreamTrafficTest.router2.eth[1].queue.dataQueue queueBitLength:timeavg 0.50356992
scalar VoIPStreamTrafficTest.router2.eth[1].queue.dataQueue outgoingPackets:count 10276
scalar VoIPStreamTrafficTest.router2.eth[1].queue.dataQueue outgoingPacketLengths:sum 84767904
scalar VoIPStreamTrafficTest.router2.eth[1].queue.dataQueue incomingPackets:count 10276
scalar VoIPStreamTrafficTest.router2.eth[1].queue.dataQueue incomingPacketLengths:sum 84767904
scalar VoIPStreamTrafficTest.router2.eth[1].queue.dataQueue droppedPacketsQueueOverflow:count 0
scalar VoIPStreamTrafficTest.router2.eth[1].queue.dataQueue droppedPacketLengthsQueueOverflow:sum 0
scalar VoIPStreamTrafficTest.router2.eth[1].queue.scheduler packets:count 10276
scalar VoIPStreamTrafficTest.router2.eth[1].queue.scheduler packetLengths:sum 84767904
scalar VoIPStreamTrafficTest.router2.eth[1].queue queueLength:last -10276
scalar VoIPStreamTrafficTest.router2.eth[1].queue queueLength:max 0
scalar VoIPStreamTrafficTest.router2.eth[1].queue queueLength:timeavg -5725.7844139681
scalar VoIPStreamTrafficTest.router2.eth[1].queue queueBitLength:last -84767904
scalar VoIPStreamTrafficTest.router2.eth[1].queue queueBitLength:max 0
scalar VoIPStreamTrafficTest.router2.eth[1].queue queueBitLength:timeavg -49236729.848402
scalar VoIPStreamTrafficTest.router2.eth[1].queue outgoingPackets:count 10276
scalar VoIPStreamTrafficTest.router2.eth[1].queue outgoingPacketLengths:sum 84767904
scalar VoIPStreamTrafficTest.router2.eth[1].queue incomingPackets:count 0
scalar VoIPStreamTrafficTest.router2.eth[1].queue incomingPacketLengths:sum 0
scalar VoIPStreamTrafficTest.router2.eth[1].queue droppedPacketsQueueOverflow:count 0
scalar VoIPStreamTrafficTest.router2.eth[1].queue droppedPacketLengthsQueueOverflow:sum 0
scalar VoIPStreamTrafficTest.router2.eth[1].mac "simulated time" 2
scalar VoIPStreamTrafficTest.router2.eth[1].mac full-duplex 1
scalar VoIPStreamTrafficTest.router2.eth[1].mac "frames/sec sent" 5138
scalar VoIPStreamTrafficTest.router2.eth[1].mac "frames/sec rcvd" 5191
scalar VoIPStreamTrafficTest.router2.eth[1].mac "bits/sec sent" 42396272
scalar VoIPStreamTrafficTest.router2.eth[1].mac "bits/sec rcvd" 4782712
scalar VoIPStreamTrafficTest.router2.eth[1].mac "rx channel idle (%)" 94.885064
scalar VoIPStreamTrafficTest.router2.eth[1].mac "rx channel utilization (%)" 5.114936
scalar VoIPStreamTrafficTest.router2.eth[1].mac rxPausePkUnits:count 0
scalar VoIPStreamTrafficTest.router2.eth[1].mac rxPausePkUnits:sum 0
scalar VoIPStreamTrafficTest.router2.eth[1].mac txPausePkUnits:count 0
scalar VoIPStreamTrafficTest.router2.eth[1].mac txPausePkUnits:sum 0
scalar VoIPStreamTrafficTest.router2.eth[1].mac rxPkOk:count 10382
scalar VoIPStreamTrafficTest.router2.eth[1].mac rxPkOk:sum(packetBytes) 1195678
scalar VoIPStreamTrafficTest.router2.eth[1].mac txPk:count 10276
scalar VoIPStreamTrafficTest.router2.eth[1].mac txPk:sum(packetBytes) 10599068
scalar VoIPStreamTrafficTest.router2.eth[1].mac packetReceivedFromUpper:count 10276
scalar VoIPStreamTrafficTest.router2.eth[1].mac packetReceivedFromUpper:sum(packetBytes) 10595988
scalar VoIPStreamTrafficTest.router2.eth[1].mac passedUpPk:count 10382
scalar VoIPStreamTrafficTest.router2.eth[1].mac passedUpPk:sum(packetBytes) 1195678
scalar VoIPStreamTrafficTest.router2.eth[1].mac packetDropIncorrectlyReceived:count 0
scalar VoIPStreamTrafficTest.router2.eth[1].mac packetDropIncorrectlyReceived:sum(packetBytes) 0
scalar VoIPStreamTrafficTest.router2.eth[1].mac packetDropInterfaceDown:count 0
scalar VoIPStreamTrafficTest.router2.eth[1].mac packetDropInterfaceDown:sum(packetBytes) 0
scalar VoIPStreamTrafficTest.router2.eth[1].mac packetDropNotAddressedToUs:count 0
scalar VoIPStreamTrafficTest.router2.eth[1].mac packetDropNotAddressedToUs:sum(packetBytes) 0
scalar VoIPStreamTrafficTest.router2.eth[1] packetDropInterfaceDown:count 0
scalar VoIPStreamTrafficTest.router2.eth[1] packetDropInterfaceDown:sum(packetBytes) 0
scalar VoIPStreamTrafficTest.router2.eth[1] packetDropNoCarrier:count 0
scalar VoIPStreamTrafficTest.router2.eth[1] packetDropNoCarrier:sum(packetBytes) 0
scalar VoIPStreamTrafficTest.router2.ipv4.ip packetDropAddressResolutionFailed:count 0
scalar VoIPStreamTrafficTest.router2.ipv4.ip packetDropAddressResolutionFailed:sum(packetBytes) 0
scalar VoIPStreamTrafficTest.router2.ipv4.ip packetDropHopLimitReached:count 0
scalar VoIPStreamTrafficTest.router2.ipv4.ip packetDropHopLimitReached:sum(packetBytes) 0
scalar VoIPStreamTrafficTest.router2.ipv4.ip packetDropForwardingDisabled:count 0
scalar VoIPStreamTrafficTest.router2.ipv4.ip packetDropForwardingDisabled:sum(packetBytes) 0
scalar VoIPStreamTrafficTest.router2.ipv4.ip packetDropLifetimeExpired:count 0
scalar VoIPStreamTrafficTest.router2.ipv4.ip packetDropLifetimeExpired:sum(packetBytes) 0
scalar VoIPStreamTrafficTest.router2.ipv4.ip packetDropNoInterfaceFound:count 0
scalar VoIPStreamTrafficTest.router2.ipv4.ip packetDropNoInterfaceFound:sum(packetBytes) 0
scalar VoIPStreamTrafficTest.router2.ipv4.ip packetDropNoRouteFound:count 0
scalar VoIPStreamTrafficTest.router2.ipv4.ip packetDropNoRouteFound:sum(packetBytes) 0
scalar VoIPStreamTrafficTest.router2.ipv4.ip packetDropUndefined:count 0
scalar VoIPStreamTrafficTest.router2.ipv4.ip packetDropUndefined:sum(packetBytes) 0
scalar VoIPStreamTrafficTest.router2.ipv4.arp arpResolutionFailed:count 0
scalar VoIPStreamTrafficTest.router2.ipv4.arp arpResolutionCompleted:count 3
scalar VoIPStreamTrafficTest.router2.ipv4.arp arpResolutionInitiated:count 2
scalar VoIPStreamTrafficTest.router2.ipv4.arp arpReplySent:count 1
scalar VoIPStreamTrafficTest.router2.ipv4.arp arpReplySent:sum(packetBytes) 28
scalar VoIPStreamTrafficTest.router2.ipv4.arp arpRequestSent:count 2
scalar VoIPStreamTrafficTest.router2.ipv4.arp arpRequestSent:sum(packetBytes) 56
scalar VoIPStreamTrafficTest.router1.ethernet pauseSent:count 0
scalar VoIPStreamTrafficTest.router1.ethernet pauseSent:sum 0
scalar VoIPStreamTrafficTest.router1.ethernet decapPk:count 20657
scalar VoIPStreamTrafficTest.router1.ethernet decapPk:sum(packetBytes) 11421838
scalar VoIPStreamTrafficTest.router1.ethernet encapPk:count 20657
scalar VoIPStreamTrafficTest.router1.ethernet encapPk:sum(packetBytes) 11360136
scalar VoIPStreamTrafficTest.router1.lo[0].lo rcvdPkFromHl:count 0
scalar VoIPStreamTrafficTest.router1.lo[0].lo rcvdPkFromHl:sum(packetBytes) 0
scalar VoIPStreamTrafficTest.router1.lo[0].lo passedUpPk:count 0
scalar VoIPStreamTrafficTest.router1.lo[0].lo passedUpPk:sum(packetBytes) 0
scalar VoIPStreamTrafficTest.router1.lo[0] packetDropInterfaceDown:count 0
scalar VoIPStreamTrafficTest.router1.lo[0] packetDropInterfaceDown:sum(packetBytes) 0
scalar VoIPStreamTrafficTest.router1.lo[0] packetDropNoCarrier:count 0
scalar VoIPStreamTrafficTest.router1.lo[0] packetDropNoCarrier:sum(packetBytes) 0
scalar VoIPStreamTrafficTest.router1.eth[0].queue.classifier packets:count 10381
scalar VoIPStreamTrafficTest.router1.eth[0].queue.classifier packetLengths:sum 9087696
scalar VoIPStreamTrafficTest.router1.eth[0].queue.pauseQueue queueLength:last 0
scalar VoIPStreamTrafficTest.router1.eth[0].queue.pauseQueue queueLength:max 0
scalar VoIPStreamTrafficTest.router1.eth[0].queue.pauseQueue queueLength:timeavg 0
scalar VoIPStreamTrafficTest.router1.eth[0].queue.pauseQueue queueBitLength:last 0
scalar VoIPStreamTrafficTest.router1.eth[0].queue.pauseQueue queueBitLength:max 0
scalar VoIPStreamTrafficTest.router1.eth[0].queue.pauseQueue queueBitLength:timeavg 0
scalar VoIPStreamTrafficTest.router1.eth[0].queue.pauseQueue outgoingPackets:count 0
scalar VoIPStreamTrafficTest.router1.eth[0].queue.pauseQueue outgoingPacketLengths:sum 0
scalar VoIPStreamTrafficTest.router1.eth[0].queue.pauseQueue incomingPackets:count 0
scalar VoIPStreamTrafficTest.router1.eth[0].queue.pauseQueue incomingPacketLengths:sum 0
scalar VoIPStreamTrafficTest.router1.eth[0].queue.pauseQueue droppedPacketsQueueOverflow:count 0
scalar VoIPStreamTrafficTest.router1.eth[0].queue.pauseQueue droppedPacketLengthsQueueOverflow:sum 0
scalar VoIPStreamTrafficTest.router1.eth[0].queue.dataQueue queueLength:last 0
scalar VoIPStreamTrafficTest.router1.eth[0].queue.dataQueue queueLength:max 10
scalar VoIPStreamTrafficTest.router1.eth[0].queue.dataQueue queueLength:timeavg 0.000938
scalar VoIPStreamTrafficTest.router1.eth[0].queue.dataQueue queueBitLength:last 0
scalar VoIPStreamTrafficTest.router1.eth[0].queue.dataQueue queueBitLength:max 4640
scalar VoIPStreamTrafficTest.router1.eth[0].queue.dataQueue queueBitLength:timeavg 0.50863232
scalar VoIPStreamTrafficTest.router1.eth[0].queue.dataQueue outgoingPackets:count 10381
scalar VoIPStreamTrafficTest.router1.eth[0].queue.dataQueue outgoingPacketLengths:sum 9087696
scalar VoIPStreamTrafficTest.router1.eth[0].queue.dataQueue incomingPackets:count 10381
scalar VoIPStreamTrafficTest.router1.eth[0].queue.dataQueue incomingPacketLengths:sum 9087696
scalar VoIPStreamTrafficTest.router1.eth[0].queue.dataQueue droppedPacketsQueueOverflow:count 0
scalar VoIPStreamTrafficTest.router1.eth[0].queue.dataQueue droppedPacketLengthsQueueOverflow:sum 0
scalar VoIPStreamTrafficTest.router1.eth[0].queue.scheduler packets:count 10381
scalar VoIPStreamTrafficTest.router1.eth[0].queue.scheduler packetLengths:sum 9087696
scalar VoIPStreamTrafficTest.router1.eth[0].queue queueLength:last -10381
scalar VoIPStreamTrafficTest.router1.eth[0].queue queueLength:max 0
scalar VoIPStreamTrafficTest.router1.eth[0].queue queueLength:timeavg -5772.471887228
scalar VoIPStreamTrafficTest.router1.eth[0].queue queueBitLength:last -9087696
scalar VoIPStreamTrafficTest.router1.eth[0].queue queueBitLength:max 0
scalar VoIPStreamTrafficTest.router1.eth[0].queue queueBitLength:timeavg -3000398.0704992
scalar VoIPStreamTrafficTest.router1.eth[0].queue outgoingPackets:count 10381
scalar VoIPStreamTrafficTest.router1.eth[0].queue outgoingPacketLengths:sum 9087696
scalar VoIPStreamTrafficTest.router1.eth[0].queue incomingPackets:count 0
scalar VoIPStreamTrafficTest.router1.eth[0].queue incomingPacketLengths:sum 0
scalar VoIPStreamTrafficTest.router1.eth[0].queue droppedPacketsQueueOverflow:count 0
scalar VoIPStreamTrafficTest.router1.eth[0].queue droppedPacketLengthsQueueOverflow:sum 0
scalar VoIPStreamTrafficTest.router1.eth[0].mac "simulated time" 2
scalar VoIPStreamTrafficTest.router1.eth[0].mac full-duplex 1
scalar VoIPStreamTrafficTest.router1.eth[0].mac "frames/sec sent" 5190
scalar VoIPStreamTrafficTest.router1.eth[0].mac "frames/sec rcvd" 5138.5
scalar VoIPStreamTrafficTest.router1.eth[0].mac "bits/sec sent" 4774056
scalar VoIPStreamTrafficTest.router1.eth[0].mac "bits/sec rcvd" 42396528
scalar VoIPStreamTrafficTest.router1.eth[0].mac "rx channel idle (%)" 57.274608
scalar VoIPStreamTrafficTest.router1.eth[0].mac "rx channel utilization (%)" 42.725392
scalar VoIPStreamTrafficTest.router1.eth[0].mac rxPausePkUnits:count 0
scalar VoIPStreamTrafficTest.router1.eth[0].mac rxPausePkUnits:sum 0
scalar VoIPStreamTrafficTest.router1.eth[0].mac txPausePkUnits:count 0
scalar VoIPStreamTrafficTest.router1.eth[0].mac txPausePkUnits:sum 0
scalar VoIPStreamTrafficTest.router1.eth[0].mac rxPkOk:count 10277
scalar VoIPStreamTrafficTest.router1.eth[0].mac rxPkOk:sum(packetBytes) 10599132
scalar VoIPStreamTrafficTest.router1.eth[0].mac txPk:count 10380
scalar VoIPStreamTrafficTest.router1.eth[0].mac txPk:sum(packetBytes) 1193514
scalar VoIPStreamTrafficTest.router1.eth[0].mac packetReceivedFromUpper:count 10381
scalar VoIPStreamTrafficTest.router1.eth[0].mac packetReceivedFromUpper:sum(packetBytes) 1135962
scalar VoIPStreamTrafficTest.router1.eth[0].mac passedUpPk:count 10277
scalar VoIPStreamTrafficTest.router1.eth[0].mac passedUpPk:sum(packetBytes) 10599132
scalar VoIPStreamTrafficTest.router1.eth[0].mac packetDropIncorrectlyReceived:count 0
scalar VoIPStreamTrafficTest.router1.eth[0].mac packetDropIncorrectlyReceived:sum(packetBytes) 0
scalar VoIPStreamTrafficTest.router1.eth[0].mac packetDropInterfaceDown:count 0
scalar VoIPStreamTrafficTest.router1.eth[0].mac packetDropInterfaceDown:sum(packetBytes) 0
scalar VoIPStreamTrafficTest.router1.eth[0].mac packetDropNotAddressedToUs:count 0
scalar VoIPStreamTrafficTest.router1.eth[0].mac packetDropNotAddressedToUs:sum(packetBytes) 0
scalar VoIPStreamTrafficTest.router1.eth[0] packetDropInterfaceDown:count 0
scalar VoIPStreamTrafficTest.router1.eth[0] packetDropInterfaceDown:sum(packetBytes) 0
scalar VoIPStreamTrafficTest.router1.eth[0] packetDropNoCarrier:count 0
scalar VoIPStreamTrafficTest.router1.eth[0] packetDropNoCarrier:sum(packetBytes) 0
scalar VoIPStreamTrafficTest.router1.eth[1].queue.classifier packets:count 10276
scalar VoIPStreamTrafficTest.router1.eth[1].queue.classifier packetLengths:sum 84768000
scalar VoIPStreamTrafficTest.router1.eth[1].queue.pauseQueue queueLength:last 0
scalar VoIPStreamTrafficTest.router1.eth[1].queue.pauseQueue queueLength:max 0
scalar VoIPStreamTrafficTest.router1.eth[1].queue.pauseQueue queueLength:timeavg 0
scalar VoIPStreamTrafficTest.router1.eth[1].queue.pauseQueue queueBitLength:last 0
scalar VoIPStreamTrafficTest.router1.eth[1].queue.pauseQueue queueBitLength:max 0
scalar VoIPStreamTrafficTest.router1.eth[1].queue.pauseQueue queueBitLength:timeavg 0
scalar VoIPStreamTrafficTest.router1.eth[1].queue.pauseQueue outgoingPackets:count 0
scalar VoIPStreamTrafficTest.router1.eth[1].queue.pauseQueue outgoingPacketLengths:sum 0
scalar VoIPStreamTrafficTest.router1.eth[1].queue.pauseQueue incomingPackets:count 0
scalar VoIPStreamTrafficTest.router1.eth[1].queue.pauseQueue incomingPacketLengths:sum 0
scalar VoIPStreamTrafficTest.router1.eth[1].queue.pauseQueue droppedPacketsQueueOverflow:count 0
scalar VoIPStreamTrafficTest.router1.eth[1].queue.pauseQueue droppedPacketLengthsQueueOverflow:sum 0
scalar VoIPStreamTrafficTest.router1.eth[1].queue.dataQueue queueLength:last 0
scalar VoIPStreamTrafficTest.router1.eth[1].queue.dataQueue queueLength:max 9
scalar VoIPStreamTrafficTest.router1.eth[1].queue.dataQueue queueLength:timeavg 0.00087832
scalar VoIPStreamTrafficTest.router1.eth[1].queue.dataQueue queueBitLength:last 0
scalar VoIPStreamTrafficTest.router1.eth[1].queue.dataQueue queueBitLength:max 4176
scalar VoIPStreamTrafficTest.router1.eth[1].queue.dataQueue queueBitLength:timeavg 0.40754048
scalar VoIPStreamTrafficTest.router1.eth[1].queue.dataQueue outgoingPackets:count 10276
scalar VoIPStreamTrafficTest.router1.eth[1].queue.dataQueue outgoingPacketLengths:sum 84768000
scalar VoIPStreamTrafficTest.router1.eth[1].queue.dataQueue incomingPackets:count 10276
scalar VoIPStreamTrafficTest.router1.eth[1].queue.dataQueue incomingPacketLengths:sum 84768000
scalar VoIPStreamTrafficTest.router1.eth[1].queue.dataQueue droppedPacketsQueueOverflow:count 0
scalar VoIPStreamTrafficTest.router1.eth[1].queue.dataQueue droppedPacketLengthsQueueOverflow:sum 0
scalar VoIPStreamTrafficTest.router1.eth[1].queue.scheduler packets:count 10276
scalar VoIPStreamTrafficTest.router1.eth[1].queue.scheduler packetLengths:sum 84768000
scalar VoIPStreamTrafficTest.router1.eth[1].queue queueLength:last -10276
scalar VoIPStreamTrafficTest.router1.eth[1].queue queueLength:max 0
scalar VoIPStreamTrafficTest.router1.eth[1].queue queueLength:timeavg -5725.3644377525
scalar VoIPStreamTrafficTest.router1.eth[1].queue queueBitLength:last -84768000
scalar VoIPStreamTrafficTest.router1.eth[1].queue queueBitLength:max 0
scalar VoIPStreamTrafficTest.router1.eth[1].queue queueBitLength:timeavg -49240509.286312
scalar VoIPStreamTrafficTest.router1.eth[1].queue outgoingPackets:count 10276
scalar VoIPStreamTrafficTest.router1.eth[1].queue outgoingPacketLengths:sum 84768000
scalar VoIPStreamTrafficTest.router1.eth[1].queue incomingPackets:count 0
scalar VoIPStreamTrafficTest.router1.eth[1].queue incomingPacketLengths:sum 0
scalar VoIPStreamTrafficTest.router1.eth[1].queue droppedPacketsQueueOverflow:count 0
scalar VoIPStreamTrafficTest.router1.eth[1].queue droppedPacketLengthsQueueOverflow:sum 0
scalar VoIPStreamTrafficTest.router1.eth[1].mac "simulated time" 2
scalar VoIPStreamTrafficTest.router1.eth[1].mac full-duplex 1
scalar VoIPStreamTrafficTest.router1.eth[1].mac "frames/sec sent" 5138
scalar VoIPStreamTrafficTest.router1.eth[1].mac "frames/sec rcvd" 5190
scalar VoIPStreamTrafficTest.router1.eth[1].mac "bits/sec sent" 42396272
scalar VoIPStreamTrafficTest.router1.eth[1].mac "bits/sec rcvd" 4778128
scalar VoIPStreamTrafficTest.router1.eth[1].mac "rx channel idle (%)" 94.889712
scalar VoIPStreamTrafficTest.router1.eth[1].mac "rx channel utilization (%)" 5.110288
scalar VoIPStreamTrafficTest.router1.eth[1].mac rxPausePkUnits:count 0
scalar VoIPStreamTrafficTest.router1.eth[1].mac rxPausePkUnits:sum 0
scalar VoIPStreamTrafficTest.router1.eth[1].mac txPausePkUnits:count 0
scalar VoIPStreamTrafficTest.router1.eth[1].mac txPausePkUnits:sum 0
scalar VoIPStreamTrafficTest.router1.eth[1].mac rxPkOk:count 10380
scalar VoIPStreamTrafficTest.router1.eth[1].mac rxPkOk:sum(packetBytes) 1194532
scalar VoIPStreamTrafficTest.router1.eth[1].mac txPk:count 10276
scalar VoIPStreamTrafficTest.router1.eth[1].mac txPk:sum(packetBytes) 10599068
scalar VoIPStreamTrafficTest.router1.eth[1].mac packetReceivedFromUpper:count 10276
scalar VoIPStreamTrafficTest.router1.eth[1].mac packetReceivedFromUpper:sum(packetBytes) 10596000
scalar VoIPStreamTrafficTest.router1.eth[1].mac passedUpPk:count 10380
scalar VoIPStreamTrafficTest.router1.eth[1].mac passedUpPk:sum(packetBytes) 1194532
scalar VoIPStreamTrafficTest.router1.eth[1].mac packetDropIncorrectlyReceived:count 0
scalar VoIPStreamTrafficTest.router1.eth[1].mac packetDropIncorrectlyReceived:sum(packetBytes) 0
scalar VoIPStreamTrafficTest.router1.eth[1].mac packetDropInterfaceDown:count 0
scalar VoIPStreamTrafficTest.router1.eth[1].mac packetDropInterfaceDown:sum(packetBytes) 0
scalar VoIPStreamTrafficTest.router1.eth[1].mac packetDropNotAddressedToUs:count 0
scalar VoIPStreamTrafficTest.router1.eth[1].mac packetDropNotAddressedToUs:sum(packetBytes) 0
scalar VoIPStreamTrafficTest.router1.eth[1] packetDropInterfaceDown:count 0
scalar VoIPStreamTrafficTest.router1.eth[1] packetDropInterfaceDown:sum(packetBytes) 0
scalar VoIPStreamTrafficTest.router1.eth[1] packetDropNoCarrier:count 0
scalar VoIPStreamTrafficTest.router1.eth[1] packetDropNoCarrier:sum(packetBytes) 0
scalar VoIPStreamTrafficTest.router1.ipv4.ip packetDropAddressResolutionFailed:count 0
scalar VoIPStreamTrafficTest.router1.ipv4.ip packetDropAddressResolutionFailed:sum(packetBytes) 0
scalar VoIPStreamTrafficTest.router1.ipv4.ip packetDropHopLimitReached:count 0
scalar VoIPStreamTrafficTest.router1.ipv4.ip packetDropHopLimitReached:sum(packetBytes) 0
scalar VoIPStreamTrafficTest.router1.ipv4.ip packetDropForwardingDisabled:count 0
scalar VoIPStreamTrafficTest.router1.ipv4.ip packetDropForwardingDisabled:sum(packetBytes) 0
scalar VoIPStreamTrafficTest.router1.ipv4.ip packetDropLifetimeExpired:count 0
scalar VoIPStreamTrafficTest.router1.ipv4.ip packetDropLifetimeExpired:sum(packetBytes) 0
scalar VoIPStreamTrafficTest.router1.ipv4.ip packetDropNoInterfaceFound:count 0
scalar VoIPStreamTrafficTest.router1.ipv4.ip packetDropNoInterfaceFound:sum(packetBytes) 0
scalar VoIPStreamTrafficTest.router1.ipv4.ip packetDropNoRouteFound:count 0
scalar VoIPStreamTrafficTest.router1.ipv4.ip packetDropNoRouteFound:sum(packetBytes) 0
scalar VoIPStreamTrafficTest.router1.ipv4.ip packetDropUndefined:count 0
scalar VoIPStreamTrafficTest.router1.ipv4.ip packetDropUndefined:sum(packetBytes) 0
scalar VoIPStreamTrafficTest.router1.ipv4.arp arpResolutionFailed:count 0
scalar VoIPStreamTrafficTest.router1.ipv4.arp arpResolutionCompleted:count 3
scalar VoIPStreamTrafficTest.router1.ipv4.arp arpResolutionInitiated:count 1
scalar VoIPStreamTrafficTest.router1.ipv4.arp arpReplySent:count 2
scalar VoIPStreamTrafficTest.router1.ipv4.arp arpReplySent:sum(packetBytes) 56
scalar VoIPStreamTrafficTest.router1.ipv4.arp arpRequestSent:count 1
scalar VoIPStreamTrafficTest.router1.ipv4.arp arpRequestSent:sum(packetBytes) 28
scalar VoIPStreamTrafficTest.server.ethernet pauseSent:count 0
scalar VoIPStreamTrafficTest.server.ethernet pauseSent:sum 0
scalar VoIPStreamTrafficTest.server.ethernet decapPk:count 2
scalar VoIPStreamTrafficTest.server.ethernet decapPk:sum(packetBytes) 92
scalar VoIPStreamTrafficTest.server.ethernet encapPk:count 101
scalar VoIPStreamTrafficTest.server.ethernet encapPk:sum(packetBytes) 12728
scalar VoIPStreamTrafficTest.server.lo[0].lo rcvdPkFromHl:count 0
scalar VoIPStreamTrafficTest.server.lo[0].lo rcvdPkFromHl:sum(packetBytes) 0
scalar VoIPStreamTrafficTest.server.lo[0].lo passedUpPk:count 0
scalar VoIPStreamTrafficTest.server.lo[0].lo passedUpPk:sum(packetBytes) 0
scalar VoIPStreamTrafficTest.server.lo[0] packetDropInterfaceDown:count 0
scalar VoIPStreamTrafficTest.server.lo[0] packetDropInterfaceDown:sum(packetBytes) 0
scalar VoIPStreamTrafficTest.server.lo[0] packetDropNoCarrier:count 0
scalar VoIPStreamTrafficTest.server.lo[0] packetDropNoCarrier:sum(packetBytes) 0
scalar VoIPStreamTrafficTest.server.eth[0].queue.classifier packets:count 101
scalar VoIPStreamTrafficTest.server.eth[0].queue.classifier packetLengths:sum 116368
scalar VoIPStreamTrafficTest.server.eth[0].queue.pauseQueue queueLength:last 0
scalar VoIPStreamTrafficTest.server.eth[0].queue.pauseQueue queueLength:max 0
scalar VoIPStreamTrafficTest.server.eth[0].queue.pauseQueue queueLength:timeavg 0
scalar VoIPStreamTrafficTest.server.eth[0].queue.pauseQueue queueBitLength:last 0
scalar VoIPStreamTrafficTest.server.eth[0].queue.pauseQueue queueBitLength:max 0
scalar VoIPStreamTrafficTest.server.eth[0].queue.pauseQueue queueBitLength:timeavg 0
scalar VoIPStreamTrafficTest.server.eth[0].queue.pauseQueue outgoingPackets:count 0
scalar VoIPStreamTrafficTest.server.eth[0].queue.pauseQueue outgoingPacketLengths:sum 0
scalar VoIPStreamTrafficTest.server.eth[0].queue.pauseQueue incomingPackets:count 0
scalar VoIPStreamTrafficTest.server.eth[0].queue.pauseQueue incomingPacketLengths:sum 0
scalar VoIPStreamTrafficTest.server.eth[0].queue.pauseQueue droppedPacketsQueueOverflow:count 0
scalar VoIPStreamTrafficTest.server.eth[0].queue.pauseQueue droppedPacketLengthsQueueOverflow:sum 0
scalar VoIPStreamTrafficTest.server.eth[0].queue.dataQueue queueLength:last 0
scalar VoIPStreamTrafficTest.server.eth[0].queue.dataQueue queueLength:max 0
scalar VoIPStreamTrafficTest.server.eth[0].queue.dataQueue queueLength:timeavg 0
scalar VoIPStreamTrafficTest.server.eth[0].queue.dataQueue queueBitLength:last 0
scalar VoIPStreamTrafficTest.server.eth[0].queue.dataQueue queueBitLength:max 0
scalar VoIPStreamTrafficTest.server.eth[0].queue.dataQueue queueBitLength:timeavg 0
scalar VoIPStreamTrafficTest.server.eth[0].queue.dataQueue outgoingPackets:count 101
scalar VoIPStreamTrafficTest.server.eth[0].queue.dataQueue outgoingPacketLengths:sum 116368
scalar VoIPStreamTrafficTest.server.eth[0].queue.dataQueue incomingPackets:count 101
scalar VoIPStreamTrafficTest.server.eth[0].queue.dataQueue incomingPacketLengths:sum 116368
scalar VoIPStreamTrafficTest.server.eth[0].queue.dataQueue droppedPacketsQueueOverflow:count 0
scalar VoIPStreamTrafficTest.server.eth[0].queue.dataQueue droppedPacketLengthsQueueOverflow:sum 0
scalar VoIPStreamTrafficTest.server.eth[0].queue.scheduler packets:count 101
scalar VoIPStreamTrafficTest.server.eth[0].queue.scheduler packetLengths:sum 116368
scalar VoIPStreamTrafficTest.server.eth[0].queue queueLength:last -101
scalar VoIPStreamTrafficTest.server.eth[0].queue queueLength:max 0
scalar VoIPStreamTrafficTest.server.eth[0].queue queueLength:timeavg -50.48987848
scalar VoIPStreamTrafficTest.server.eth[0].queue queueBitLength:last -116368
scalar VoIPStreamTrafficTest.server.eth[0].queue queueBitLength:max 0
scalar VoIPStreamTrafficTest.server.eth[0].queue queueBitLength:timeavg -50004.23639424
scalar VoIPStreamTrafficTest.server.eth[0].queue outgoingPackets:count 101
scalar VoIPStreamTrafficTest.server.eth[0].queue outgoingPacketLengths:sum 116368
scalar VoIPStreamTrafficTest.server.eth[0].queue incomingPackets:count 0
scalar VoIPStreamTrafficTest.server.eth[0].queue incomingPacketLengths:sum 0
scalar VoIPStreamTrafficTest.server.eth[0].queue droppedPacketsQueueOverflow:count 0
scalar VoIPStreamTrafficTest.server.eth[0].queue droppedPacketLengthsQueueOverflow:sum 0
scalar VoIPStreamTrafficTest.server.eth[0].mac "simulated time" 2
scalar VoIPStreamTrafficTest.server.eth[0].mac full-duplex 1
scalar VoIPStreamTrafficTest.server.eth[0].mac "frames/sec sent" 50
scalar VoIPStreamTrafficTest.server.eth[0].mac "frames/sec rcvd" 1
scalar VoIPStreamTrafficTest.server.eth[0].mac "bits/sec sent" 57512
scalar VoIPStreamTrafficTest.server.eth[0].mac "bits/sec rcvd" 512
scalar VoIPStreamTrafficTest.server.eth[0].mac "rx channel idle (%)" 99.999424
scalar VoIPStreamTrafficTest.server.eth[0].mac "rx channel utilization (%)" 0.000576
scalar VoIPStreamTrafficTest.server.eth[0].mac rxPausePkUnits:count 0
scalar VoIPStreamTrafficTest.server.eth[0].mac rxPausePkUnits:sum 0
scalar VoIPStreamTrafficTest.server.eth[0].mac txPausePkUnits:count 0
scalar VoIPStreamTrafficTest.server.eth[0].mac txPausePkUnits:sum 0
scalar VoIPStreamTrafficTest.server.eth[0].mac rxPkOk:count 2
scalar VoIPStreamTrafficTest.server.eth[0].mac rxPkOk:sum(packetBytes) 128
scalar VoIPStreamTrafficTest.server.eth[0].mac txPk:count 100
scalar VoIPStreamTrafficTest.server.eth[0].mac txPk:sum(packetBytes) 14378
scalar VoIPStreamTrafficTest.server.eth[0].mac packetReceivedFromUpper:count 101
scalar VoIPStreamTrafficTest.server.eth[0].mac packetReceivedFromUpper:sum(packetBytes) 14546
scalar VoIPStreamTrafficTest.server.eth[0].mac passedUpPk:count 2
scalar VoIPStreamTrafficTest.server.eth[0].mac passedUpPk:sum(packetBytes) 128
scalar VoIPStreamTrafficTest.server.eth[0].mac packetDropIncorrectlyReceived:count 0
scalar VoIPStreamTrafficTest.server.eth[0].mac packetDropIncorrectlyReceived:sum(packetBytes) 0
scalar VoIPStreamTrafficTest.server.eth[0].mac packetDropInterfaceDown:count 0
scalar VoIPStreamTrafficTest.server.eth[0].mac packetDropInterfaceDown:sum(packetBytes) 0
scalar VoIPStreamTrafficTest.server.eth[0].mac packetDropNotAddressedToUs:count 0
scalar VoIPStreamTrafficTest.server.eth[0].mac packetDropNotAddressedToUs:sum(packetBytes) 0
scalar VoIPStreamTrafficTest.server.eth[0] packetDropInterfaceDown:count 0
scalar VoIPStreamTrafficTest.server.eth[0] packetDropInterfaceDown:sum(packetBytes) 0
scalar VoIPStreamTrafficTest.server.eth[0] packetDropNoCarrier:count 0
scalar VoIPStreamTrafficTest.server.eth[0] packetDropNoCarrier:sum(packetBytes) 0
scalar VoIPStreamTrafficTest.server.ipv4.ip packetDropAddressResolutionFailed:count 0
scalar VoIPStreamTrafficTest.server.ipv4.ip packetDropAddressResolutionFailed:sum(packetBytes) 0
scalar VoIPStreamTrafficTest.server.ipv4.ip packetDropHopLimitReached:count 0
scalar VoIPStreamTrafficTest.server.ipv4.ip packetDropHopLimitReached:sum(packetBytes) 0
scalar VoIPStreamTrafficTest.server.ipv4.ip packetDropForwardingDisabled:count 0
scalar VoIPStreamTrafficTest.server.ipv4.ip packetDropForwardingDisabled:sum(packetBytes) 0
scalar VoIPStreamTrafficTest.server.ipv4.ip packetDropLifetimeExpired:count 0
scalar VoIPStreamTrafficTest.server.ipv4.ip packetDropLifetimeExpired:sum(packetBytes) 0
scalar VoIPStreamTrafficTest.server.ipv4.ip packetDropNoInterfaceFound:count 0
scalar VoIPStreamTrafficTest.server.ipv4.ip packetDropNoInterfaceFound:sum(packetBytes) 0
scalar VoIPStreamTrafficTest.server.ipv4.ip packetDropNoRouteFound:count 0
scalar VoIPStreamTrafficTest.server.ipv4.ip packetDropNoRouteFound:sum(packetBytes) 0
scalar VoIPStreamTrafficTest.server.ipv4.ip packetDropUndefined:count 0
scalar VoIPStreamTrafficTest.server.ipv4.ip packetDropUndefined:sum(packetBytes) 0
scalar VoIPStreamTrafficTest.server.ipv4.arp arpResolutionFailed:count 0
scalar VoIPStreamTrafficTest.server.ipv4.arp arpResolutionCompleted:count 2
scalar VoIPStreamTrafficTest.server.ipv4.arp arpResolutionInitiated:count 1
scalar VoIPStreamTrafficTest.server.ipv4.arp arpReplySent:count 0
scalar VoIPStreamTrafficTest.server.ipv4.arp arpReplySent:sum(packetBytes) 0
scalar VoIPStreamTrafficTest.server.ipv4.arp arpRequestSent:count 1
scalar VoIPStreamTrafficTest.server.ipv4.arp arpRequestSent:sum(packetBytes) 28
scalar VoIPStreamTrafficTest.server.udp packetReceived:count 0
scalar VoIPStreamTrafficTest.server.udp packetReceived:sum(packetBytes) 0
scalar VoIPStreamTrafficTest.server.udp packetSent:count 100
scalar VoIPStreamTrafficTest.server.udp packetSent:sum(packetBytes) 10700
scalar VoIPStreamTrafficTest.server.udp passedUpPk:count 0
scalar VoIPStreamTrafficTest.server.udp droppedPkWrongPort:count 0
scalar VoIPStreamTrafficTest.server.udp droppedPkBadChecksum:count 0
scalar VoIPStreamTrafficTest.server.app[0] packetSent:count 100
scalar VoIPStreamTrafficTest.server.app[0] packetSent:sum(packetBytes) 9900
scalar VoIPStreamTrafficTest.host1.ethernet pauseSent:count 0
scalar VoIPStreamTrafficTest.host1.ethernet pauseSent:sum 0
scalar VoIPStreamTrafficTest.host1.ethernet decapPk:count 10278
scalar VoIPStreamTrafficTest.host1.ethernet decapPk:sum(packetBytes) 990950
scalar VoIPStreamTrafficTest.host1.ethernet encapPk:count 10278
scalar VoIPStreamTrafficTest.host1.ethernet encapPk:sum(packetBytes) 10411112
scalar VoIPStreamTrafficTest.host1.lo[0].lo rcvdPkFromHl:count 0
scalar VoIPStreamTrafficTest.host1.lo[0].lo rcvdPkFromHl:sum(packetBytes) 0
scalar VoIPStreamTrafficTest.host1.lo[0].lo passedUpPk:count 0
scalar VoIPStreamTrafficTest.host1.lo[0].lo passedUpPk:sum(packetBytes) 0
scalar VoIPStreamTrafficTest.host1.lo[0] packetDropInterfaceDown:count 0
scalar VoIPStreamTrafficTest.host1.lo[0] packetDropInterfaceDown:sum(packetBytes) 0
scalar VoIPStreamTrafficTest.host1.lo[0] packetDropNoCarrier:count 0
scalar VoIPStreamTrafficTest.host1.lo[0] packetDropNoCarrier:sum(packetBytes) 0
scalar VoIPStreamTrafficTest.host1.eth[0].queue.classifier packets:count 10278
scalar VoIPStreamTrafficTest.host1.eth[0].queue.classifier packetLengths:sum 84768928
scalar VoIPStreamTrafficTest.host1.eth[0].queue.pauseQueue queueLength:last 0
scalar VoIPStreamTrafficTest.host1.eth[0].queue.pauseQueue queueLength:max 0
scalar VoIPStreamTrafficTest.host1.eth[0].queue.pauseQueue queueLength:timeavg 0
scalar VoIPStreamTrafficTest.host1.eth[0].queue.pauseQueue queueBitLength:last 0
scalar VoIPStreamTrafficTest.host1.eth[0].queue.pauseQueue queueBitLength:max 0
scalar VoIPStreamTrafficTest.host1.eth[0].queue.pauseQueue queueBitLength:timeavg 0
scalar VoIPStreamTrafficTest.host1.eth[0].queue.pauseQueue outgoingPackets:count 0
scalar VoIPStreamTrafficTest.host1.eth[0].queue.pauseQueue outgoingPacketLengths:sum 0
scalar VoIPStreamTrafficTest.host1.eth[0].queue.pauseQueue incomingPackets:count 0
scalar VoIPStreamTrafficTest.host1.eth[0].queue.pauseQueue incomingPacketLengths:sum 0
scalar VoIPStreamTrafficTest.host1.eth[0].queue.pauseQueue droppedPacketsQueueOverflow:count 0
scalar VoIPStreamTrafficTest.host1.eth[0].queue.pauseQueue droppedPacketLengthsQueueOverflow:sum 0
scalar VoIPStreamTrafficTest.host1.eth[0].queue.dataQueue queueLength:last 0
scalar VoIPStreamTrafficTest.host1.eth[0].queue.dataQueue queueLength:max 10
scalar VoIPStreamTrafficTest.host1.eth[0].queue.dataQueue queueLength:timeavg 0.64074671999993
scalar VoIPStreamTrafficTest.host1.eth[0].queue.dataQueue queueBitLength:last 0
scalar VoIPStreamTrafficTest.host1.eth[0].queue.dataQueue queueBitLength:max 86560
scalar VoIPStreamTrafficTest.host1.eth[0].queue.dataQueue queueBitLength:timeavg 5533.5070489592
scalar VoIPStreamTrafficTest.host1.eth[0].queue.dataQueue outgoingPackets:count 10278
scalar VoIPStreamTrafficTest.host1.eth[0].queue.dataQueue outgoingPacketLengths:sum 84768928
scalar VoIPStreamTrafficTest.host1.eth[0].queue.dataQueue incomingPackets:count 10278
scalar VoIPStreamTrafficTest.host1.eth[0].queue.dataQueue incomingPacketLengths:sum 84768928
scalar VoIPStreamTrafficTest.host1.eth[0].queue.dataQueue droppedPacketsQueueOverflow:count 0
scalar VoIPStreamTrafficTest.host1.eth[0].queue.dataQueue droppedPacketLengthsQueueOverflow:sum 0
scalar VoIPStreamTrafficTest.host1.eth[0].queue.scheduler packets:count 10278
scalar VoIPStreamTrafficTest.host1.eth[0].queue.scheduler packetLengths:sum 84768928
scalar VoIPStreamTrafficTest.host1.eth[0].queue queueLength:last -10278
scalar VoIPStreamTrafficTest.host1.eth[0].queue queueLength:max 0
scalar VoIPStreamTrafficTest.host1.eth[0].queue queueLength:timeavg -5727.1583077214
scalar VoIPStreamTrafficTest.host1.eth[0].queue queueBitLength:last -84768928
scalar VoIPStreamTrafficTest.host1.eth[0].queue queueBitLength:max 0
scalar VoIPStreamTrafficTest.host1.eth[0].queue queueBitLength:timeavg -49256326.109651
scalar VoIPStreamTrafficTest.host1.eth[0].queue outgoingPackets:count 10278
scalar VoIPStreamTrafficTest.host1.eth[0].queue outgoingPacketLengths:sum 84768928
scalar VoIPStreamTrafficTest.host1.eth[0].queue incomingPackets:count 0
scalar VoIPStreamTrafficTest.host1.eth[0].queue incomingPacketLengths:sum 0
scalar VoIPStreamTrafficTest.host1.eth[0].queue droppedPacketsQueueOverflow:count 0
scalar VoIPStreamTrafficTest.host1.eth[0].queue droppedPacketLengthsQueueOverflow:sum 0
scalar VoIPStreamTrafficTest.host1.eth[0].mac "simulated time" 2
scalar VoIPStreamTrafficTest.host1.eth[0].mac full-duplex 1
scalar VoIPStreamTrafficTest.host1.eth[0].mac "frames/sec sent" 5139
scalar VoIPStreamTrafficTest.host1.eth[0].mac "frames/sec rcvd" 5139
scalar VoIPStreamTrafficTest.host1.eth[0].mac "bits/sec sent" 42396784
scalar VoIPStreamTrafficTest.host1.eth[0].mac "bits/sec rcvd" 4703816
scalar VoIPStreamTrafficTest.host1.eth[0].mac "rx channel idle (%)" 94.967288
scalar VoIPStreamTrafficTest.host1.eth[0].mac "rx channel utilization (%)" 5.032712
scalar VoIPStreamTrafficTest.host1.eth[0].mac rxPausePkUnits:count 0
scalar VoIPStreamTrafficTest.host1.eth[0].mac rxPausePkUnits:sum 0
scalar VoIPStreamTrafficTest.host1.eth[0].mac txPausePkUnits:count 0
scalar VoIPStreamTrafficTest.host1.eth[0].mac txPausePkUnits:sum 0
scalar VoIPStreamTrafficTest.host1.eth[0].mac rxPkOk:count 10278
scalar VoIPStreamTrafficTest.host1.eth[0].mac rxPkOk:sum(packetBytes) 1175954
scalar VoIPStreamTrafficTest.host1.eth[0].mac txPk:count 10278
scalar VoIPStreamTrafficTest.host1.eth[0].mac txPk:sum(packetBytes) 10599196
scalar VoIPStreamTrafficTest.host1.eth[0].mac packetReceivedFromUpper:count 10278
scalar VoIPStreamTrafficTest.host1.eth[0].mac packetReceivedFromUpper:sum(packetBytes) 10596116
scalar VoIPStreamTrafficTest.host1.eth[0].mac passedUpPk:count 10278
scalar VoIPStreamTrafficTest.host1.eth[0].mac passedUpPk:sum(packetBytes) 1175954
scalar VoIPStreamTrafficTest.host1.eth[0].mac packetDropIncorrectlyReceived:count 0
scalar VoIPStreamTrafficTest.host1.eth[0].mac packetDropIncorrectlyReceived:sum(packetBytes) 0
scalar VoIPStreamTrafficTest.host1.eth[0].mac packetDropInterfaceDown:count 0
scalar VoIPStreamTrafficTest.host1.eth[0].mac packetDropInterfaceDown:sum(packetBytes) 0
scalar VoIPStreamTrafficTest.host1.eth[0].mac packetDropNotAddressedToUs:count 0
scalar VoIPStreamTrafficTest.host1.eth[0].mac packetDropNotAddressedToUs:sum(packetBytes) 0
scalar VoIPStreamTrafficTest.host1.eth[0] packetDropInterfaceDown:count 0
scalar VoIPStreamTrafficTest.host1.eth[0] packetDropInterfaceDown:sum(packetBytes) 0
scalar VoIPStreamTrafficTest.host1.eth[0] packetDropNoCarrier:count 0
scalar VoIPStreamTrafficTest.host1.eth[0] packetDropNoCarrier:sum(packetBytes) 0
scalar VoIPStreamTrafficTest.host1.ipv4.ip packetDropAddressResolutionFailed:count 0
scalar VoIPStreamTrafficTest.host1.ipv4.ip packetDropAddressResolutionFailed:sum(packetBytes) 0
scalar VoIPStreamTrafficTest.host1.ipv4.ip packetDropHopLimitReached:count 0
scalar VoIPStreamTrafficTest.host1.ipv4.ip packetDropHopLimitReached:sum(packetBytes) 0
scalar VoIPStreamTrafficTest.host1.ipv4.ip packetDropForwardingDisabled:count 0
scalar VoIPStreamTrafficTest.host1.ipv4.ip packetDropForwardingDisabled:sum(packetBytes) 0
scalar VoIPStreamTrafficTest.host1.ipv4.ip packetDropLifetimeExpired:count 0
scalar VoIPStreamTrafficTest.host1.ipv4.ip packetDropLifetimeExpired:sum(packetBytes) 0
scalar VoIPStreamTrafficTest.host1.ipv4.ip packetDropNoInterfaceFound:count 0
scalar VoIPStreamTrafficTest.host1.ipv4.ip packetDropNoInterfaceFound:sum(packetBytes) 0
scalar VoIPStreamTrafficTest.host1.ipv4.ip packetDropNoRouteFound:count 0
scalar VoIPStreamTrafficTest.host1.ipv4.ip packetDropNoRouteFound:sum(packetBytes) 0
scalar VoIPStreamTrafficTest.host1.ipv4.ip packetDropUndefined:count 0
scalar VoIPStreamTrafficTest.host1.ipv4.ip packetDropUndefined:sum(packetBytes) 0
scalar VoIPStreamTrafficTest.host1.ipv4.arp arpResolutionFailed:count 0
scalar VoIPStreamTrafficTest.host1.ipv4.arp arpResolutionCompleted:count 1
scalar VoIPStreamTrafficTest.host1.ipv4.arp arpResolutionInitiated:count 1
scalar VoIPStreamTrafficTest.host1.ipv4.arp arpReplySent:count 0
scalar VoIPStreamTrafficTest.host1.ipv4.arp arpReplySent:sum(packetBytes) 0
scalar VoIPStreamTrafficTest.host1.ipv4.arp arpRequestSent:count 1
scalar VoIPStreamTrafficTest.host1.ipv4.arp arpRequestSent:sum(packetBytes) 28
scalar VoIPStreamTrafficTest.host1.udp packetReceived:count 0
scalar VoIPStreamTrafficTest.host1.udp packetReceived:sum(packetBytes) 0
scalar VoIPStreamTrafficTest.host1.udp packetSent:count 0
scalar VoIPStreamTrafficTest.host1.udp packetSent:sum(packetBytes) 0
scalar VoIPStreamTrafficTest.host1.udp passedUpPk:count 0
scalar VoIPStreamTrafficTest.host1.udp droppedPkWrongPort:count 0
scalar VoIPStreamTrafficTest.host1.udp droppedPkBadChecksum:count 0
scalar VoIPStreamTrafficTest.host1.app[0] bytesRcvd 521216
scalar VoIPStreamTrafficTest.host1.app[0] bytesSent 10000000
scalar VoIPStreamTrafficTest.host1.app[0] packetReceived:count 497
scalar VoIPStreamTrafficTest.host1.app[0] packetReceived:sum(packetBytes) 521216
scalar VoIPStreamTrafficTest.host1.app[0] packetSent:count 1
scalar VoIPStreamTrafficTest.host1.app[0] packetSent:sum(packetBytes) 10000000
scalar VoIPStreamTrafficTest.host2.ethernet pauseSent:count 0
scalar VoIPStreamTrafficTest.host2.ethernet pauseSent:sum 0
scalar VoIPStreamTrafficTest.host2.ethernet decapPk:count 10275
scalar VoIPStreamTrafficTest.host2.ethernet decapPk:sum(packetBytes) 10414054
scalar VoIPStreamTrafficTest.host2.ethernet encapPk:count 10289
scalar VoIPStreamTrafficTest.host2.ethernet encapPk:sum(packetBytes) 945056
scalar VoIPStreamTrafficTest.host2.lo[0].lo rcvdPkFromHl:count 0
scalar VoIPStreamTrafficTest.host2.lo[0].lo rcvdPkFromHl:sum(packetBytes) 0
scalar VoIPStreamTrafficTest.host2.lo[0].lo passedUpPk:count 0
scalar VoIPStreamTrafficTest.host2.lo[0].lo passedUpPk:sum(packetBytes) 0
scalar VoIPStreamTrafficTest.host2.lo[0] packetDropInterfaceDown:count 0
scalar VoIPStreamTrafficTest.host2.lo[0] packetDropInterfaceDown:sum(packetBytes) 0
scalar VoIPStreamTrafficTest.host2.lo[0] packetDropNoCarrier:count 0
scalar VoIPStreamTrafficTest.host2.lo[0] packetDropNoCarrier:sum(packetBytes) 0
scalar VoIPStreamTrafficTest.host2.eth[0].queue.classifier packets:count 10289
scalar VoIPStreamTrafficTest.host2.eth[0].queue.classifier packetLengths:sum 9042064
scalar VoIPStreamTrafficTest.host2.eth[0].queue.pauseQueue queueLength:last 0
scalar VoIPStreamTrafficTest.host2.eth[0].queue.pauseQueue queueLength:max 0
scalar VoIPStreamTrafficTest.host2.eth[0].queue.pauseQueue queueLength:timeavg 0
scalar VoIPStreamTrafficTest.host2.eth[0].queue.pauseQueue queueBitLength:last 0
scalar VoIPStreamTrafficTest.host2.eth[0].queue.pauseQueue queueBitLength:max 0
scalar VoIPStreamTrafficTest.host2.eth[0].queue.pauseQueue queueBitLength:timeavg 0
scalar VoIPStreamTrafficTest.host2.eth[0].queue.pauseQueue outgoingPackets:count 0
scalar VoIPStreamTrafficTest.host2.eth[0].queue.pauseQueue outgoingPacketLengths:sum 0
scalar VoIPStreamTrafficTest.host2.eth[0].queue.pauseQueue incomingPackets:count 0
scalar VoIPStreamTrafficTest.host2.eth[0].queue.pauseQueue incomingPacketLengths:sum 0
scalar VoIPStreamTrafficTest.host2.eth[0].queue.pauseQueue droppedPacketsQueueOverflow:count 0
scalar VoIPStreamTrafficTest.host2.eth[0].queue.pauseQueue droppedPacketLengthsQueueOverflow:sum 0
scalar VoIPStreamTrafficTest.host2.eth[0].queue.dataQueue queueLength:last 1
scalar VoIPStreamTrafficTest.host2.eth[0].queue.dataQueue queueLength:max 10
scalar VoIPStreamTrafficTest.host2.eth[0].queue.dataQueue queueLength:timeavg 0.033296264428499
scalar VoIPStreamTrafficTest.host2.eth[0].queue.dataQueue queueBitLength:last 8656
scalar VoIPStreamTrafficTest.host2.eth[0].queue.dataQueue queueBitLength:max 86560
scalar VoIPStreamTrafficTest.host2.eth[0].queue.dataQueue queueBitLength:timeavg 276.7430095331
scalar VoIPStreamTrafficTest.host2.eth[0].queue.dataQueue outgoingPackets:count 10286
scalar VoIPStreamTrafficTest.host2.eth[0].queue.dataQueue outgoingPacketLengths:sum 9016096
scalar VoIPStreamTrafficTest.host2.eth[0].queue.dataQueue incomingPackets:count 10289
scalar VoIPStreamTrafficTest.host2.eth[0].queue.dataQueue incomingPacketLengths:sum 9042064
scalar VoIPStreamTrafficTest.host2.eth[0].queue.dataQueue droppedPacketsQueueOverflow:count 2
scalar VoIPStreamTrafficTest.host2.eth[0].queue.dataQueue droppedPacketLengthsQueueOverflow:sum 17312
scalar VoIPStreamTrafficTest.host2.eth[0].queue.scheduler packets:count 10286
scalar VoIPStreamTrafficTest.host2.eth[0].queue.scheduler packetLengths:sum 9016096
scalar VoIPStreamTrafficTest.host2.eth[0].queue queueLength:last -10286
scalar VoIPStreamTrafficTest.host2.eth[0].queue queueLength:max 0
scalar VoIPStreamTrafficTest.host2.eth[0].queue queueLength:timeavg -5722.7629913012
scalar VoIPStreamTrafficTest.host2.eth[0].queue queueBitLength:last -9016096
scalar VoIPStreamTrafficTest.host2.eth[0].queue queueBitLength:max 0
scalar VoIPStreamTrafficTest.host2.eth[0].queue queueBitLength:timeavg -2951583.6878499
[...]
scalar VoIPStreamTrafficTest.host2.tcp.conn-5 rcvAdv:vector:stddev 3022499.1914292
scalar VoIPStreamTrafficTest.host2.tcp.conn-5 rcvAdv:vector:min 64336
scalar VoIPStreamTrafficTest.host2.tcp.conn-5 rcvAdv:vector:max 10064336
scalar VoIPStreamTrafficTest.host2.tcp.conn-5 rcvAdv:vector:starttime 0.20101488
scalar VoIPStreamTrafficTest.host2.tcp.conn-5 rcvAdv:vector:endtime 1.999945551143
scalar VoIPStreamTrafficTest.host2.tcp.conn-5 sndNxt:vector:count 521
scalar VoIPStreamTrafficTest.host2.tcp.conn-5 sndNxt:vector:sum 163883710
scalar VoIPStreamTrafficTest.host2.tcp.conn-5 sndNxt:vector:sumweights 521
scalar VoIPStreamTrafficTest.host2.tcp.conn-5 sndNxt:vector:mean 314556.06525912
scalar VoIPStreamTrafficTest.host2.tcp.conn-5 sndNxt:vector:stddev 153977.0910423
scalar VoIPStreamTrafficTest.host2.tcp.conn-5 sndNxt:vector:min 50254
scalar VoIPStreamTrafficTest.host2.tcp.conn-5 sndNxt:vector:max 580686
scalar VoIPStreamTrafficTest.host2.tcp.conn-5 sndNxt:vector:starttime 0.400756
scalar VoIPStreamTrafficTest.host2.tcp.conn-5 sndNxt:vector:endtime 1.999945551143
scalar VoIPStreamTrafficTest.host2.tcp.conn-5 sndAck:vector:count 10288
scalar VoIPStreamTrafficTest.host2.tcp.conn-5 sndAck:vector:sum 54152392064
scalar VoIPStreamTrafficTest.host2.tcp.conn-5 sndAck:vector:sumweights 10288
scalar VoIPStreamTrafficTest.host2.tcp.conn-5 sndAck:vector:mean 5263646.1959565
scalar VoIPStreamTrafficTest.host2.tcp.conn-5 sndAck:vector:stddev 3022209.0111745
scalar VoIPStreamTrafficTest.host2.tcp.conn-5 sndAck:vector:min 50000
scalar VoIPStreamTrafficTest.host2.tcp.conn-5 sndAck:vector:max 10050000
scalar VoIPStreamTrafficTest.host2.tcp.conn-5 sndAck:vector:starttime 0.20101488
scalar VoIPStreamTrafficTest.host2.tcp.conn-5 sndAck:vector:endtime 1.999945551143
scalar VoIPStreamTrafficTest.host2.tcp.conn-5 rcvSeq:vector:count 10272
scalar VoIPStreamTrafficTest.host2.tcp.conn-5 rcvSeq:vector:sum 54002034432
scalar VoIPStreamTrafficTest.host2.tcp.conn-5 rcvSeq:vector:sumweights 10272
scalar VoIPStreamTrafficTest.host2.tcp.conn-5 rcvSeq:vector:mean 5257207.4018692
scalar VoIPStreamTrafficTest.host2.tcp.conn-5 rcvSeq:vector:stddev 3018507.0773525
scalar VoIPStreamTrafficTest.host2.tcp.conn-5 rcvSeq:vector:min 50000
scalar VoIPStreamTrafficTest.host2.tcp.conn-5 rcvSeq:vector:max 10050000
scalar VoIPStreamTrafficTest.host2.tcp.conn-5 rcvSeq:vector:starttime 0.20171248
scalar VoIPStreamTrafficTest.host2.tcp.conn-5 rcvSeq:vector:endtime 1.999945551143
scalar VoIPStreamTrafficTest.host2.tcp.conn-5 rcvAck:vector:count 10272
scalar VoIPStreamTrafficTest.host2.tcp.conn-5 rcvAck:vector:sum 916085184
scalar VoIPStreamTrafficTest.host2.tcp.conn-5 rcvAck:vector:sumweights 10272
scalar VoIPStreamTrafficTest.host2.tcp.conn-5 rcvAck:vector:mean 89182.747663551
scalar VoIPStreamTrafficTest.host2.tcp.conn-5 rcvAck:vector:stddev 60028.56436872
scalar VoIPStreamTrafficTest.host2.tcp.conn-5 rcvAck:vector:min 50254
scalar VoIPStreamTrafficTest.host2.tcp.conn-5 rcvAck:vector:max 567374
scalar VoIPStreamTrafficTest.host2.tcp.conn-5 rcvAck:vector:starttime 0.20171248
scalar VoIPStreamTrafficTest.host2.tcp.conn-5 rcvAck:vector:endtime 1.999945551143
scalar VoIPStreamTrafficTest.host2.tcp.conn-5 unacked:vector:count 987
scalar VoIPStreamTrafficTest.host2.tcp.conn-5 unacked:vector:sum 12779520
scalar VoIPStreamTrafficTest.host2.tcp.conn-5 unacked:vector:sumweights 987
scalar VoIPStreamTrafficTest.host2.tcp.conn-5 unacked:vector:mean 12947.841945289
scalar VoIPStreamTrafficTest.host2.tcp.conn-5 unacked:vector:stddev 2321.1416700577
scalar VoIPStreamTrafficTest.host2.tcp.conn-5 unacked:vector:min 0
scalar VoIPStreamTrafficTest.host2.tcp.conn-5 unacked:vector:max 14336
scalar VoIPStreamTrafficTest.host2.tcp.conn-5 unacked:vector:starttime 0.20171248
scalar VoIPStreamTrafficTest.host2.tcp.conn-5 unacked:vector:endtime 1.999945551143
scalar VoIPStreamTrafficTest.host2.tcp.conn-5 dupAcks:vector:count 10271
scalar VoIPStreamTrafficTest.host2.tcp.conn-5 dupAcks:vector:sum 67
scalar VoIPStreamTrafficTest.host2.tcp.conn-5 dupAcks:vector:sumweights 10271
scalar VoIPStreamTrafficTest.host2.tcp.conn-5 dupAcks:vector:mean 0.0065232207185279
scalar VoIPStreamTrafficTest.host2.tcp.conn-5 dupAcks:vector:stddev 0.2220912696521
scalar VoIPStreamTrafficTest.host2.tcp.conn-5 dupAcks:vector:min 0
scalar VoIPStreamTrafficTest.host2.tcp.conn-5 dupAcks:vector:max 11
scalar VoIPStreamTrafficTest.host2.tcp.conn-5 dupAcks:vector:starttime 0.400756
scalar VoIPStreamTrafficTest.host2.tcp.conn-5 dupAcks:vector:endtime 1.999945551143
scalar VoIPStreamTrafficTest.host2.tcp.conn-5 pipe:vector:count 0
scalar VoIPStreamTrafficTest.host2.tcp.conn-5 pipe:vector:sum 0
scalar VoIPStreamTrafficTest.host2.tcp.conn-5 pipe:vector:sumweights 0
scalar VoIPStreamTrafficTest.host2.tcp.conn-5 pipe:vector:mean -nan
scalar VoIPStreamTrafficTest.host2.tcp.conn-5 pipe:vector:stddev nan
scalar VoIPStreamTrafficTest.host2.tcp.conn-5 pipe:vector:min inf
scalar VoIPStreamTrafficTest.host2.tcp.conn-5 pipe:vector:max -inf
scalar VoIPStreamTrafficTest.host2.tcp.conn-5 pipe:vector:starttime nan
scalar VoIPStreamTrafficTest.host2.tcp.conn-5 pipe:vector:endtime nan
scalar VoIPStreamTrafficTest.host2.tcp.conn-5 sndSacks:vector:count 0
scalar VoIPStreamTrafficTest.host2.tcp.conn-5 sndSacks:vector:sum 0
scalar VoIPStreamTrafficTest.host2.tcp.conn-5 sndSacks:vector:sumweights 0
scalar VoIPStreamTrafficTest.host2.tcp.conn-5 sndSacks:vector:mean -nan
scalar VoIPStreamTrafficTest.host2.tcp.conn-5 sndSacks:vector:stddev nan
scalar VoIPStreamTrafficTest.host2.tcp.conn-5 sndSacks:vector:min inf
scalar VoIPStreamTrafficTest.host2.tcp.conn-5 sndSacks:vector:max -inf
scalar VoIPStreamTrafficTest.host2.tcp.conn-5 sndSacks:vector:starttime nan
scalar VoIPStreamTrafficTest.host2.tcp.conn-5 sndSacks:vector:endtime nan
scalar VoIPStreamTrafficTest.host2.tcp.conn-5 rcvSacks:vector:count 0
scalar VoIPStreamTrafficTest.host2.tcp.conn-5 rcvSacks:vector:sum 0
scalar VoIPStreamTrafficTest.host2.tcp.conn-5 rcvSacks:vector:sumweights 0
scalar VoIPStreamTrafficTest.host2.tcp.conn-5 rcvSacks:vector:mean -nan
scalar VoIPStreamTrafficTest.host2.tcp.conn-5 rcvSacks:vector:stddev nan
scalar VoIPStreamTrafficTest.host2.tcp.conn-5 rcvSacks:vector:min inf
scalar VoIPStreamTrafficTest.host2.tcp.conn-5 rcvSacks:vector:max -inf
scalar VoIPStreamTrafficTest.host2.tcp.conn-5 rcvSacks:vector:starttime nan
scalar VoIPStreamTrafficTest.host2.tcp.conn-5 rcvSacks:vector:endtime nan
scalar VoIPStreamTrafficTest.host2.tcp.conn-5 rcvOooSeg:vector:count 0
scalar VoIPStreamTrafficTest.host2.tcp.conn-5 rcvOooSeg:vector:sum 0
scalar VoIPStreamTrafficTest.host2.tcp.conn-5 rcvOooSeg:vector:sumweights 0
scalar VoIPStreamTrafficTest.host2.tcp.conn-5 rcvOooSeg:vector:mean -nan
scalar VoIPStreamTrafficTest.host2.tcp.conn-5 rcvOooSeg:vector:stddev nan
scalar VoIPStreamTrafficTest.host2.tcp.conn-5 rcvOooSeg:vector:min inf
scalar VoIPStreamTrafficTest.host2.tcp.conn-5 rcvOooSeg:vector:max -inf
scalar VoIPStreamTrafficTest.host2.tcp.conn-5 rcvOooSeg:vector:starttime nan
scalar VoIPStreamTrafficTest.host2.tcp.conn-5 rcvOooSeg:vector:endtime nan
scalar VoIPStreamTrafficTest.host2.tcp.conn-5 rcvNASeg:vector:count 0
scalar VoIPStreamTrafficTest.host2.tcp.conn-5 rcvNASeg:vector:sum 0
scalar VoIPStreamTrafficTest.host2.tcp.conn-5 rcvNASeg:vector:sumweights 0
scalar VoIPStreamTrafficTest.host2.tcp.conn-5 rcvNASeg:vector:mean -nan
scalar VoIPStreamTrafficTest.host2.tcp.conn-5 rcvNASeg:vector:stddev nan
scalar VoIPStreamTrafficTest.host2.tcp.conn-5 rcvNASeg:vector:min inf
scalar VoIPStreamTrafficTest.host2.tcp.conn-5 rcvNASeg:vector:max -inf
scalar VoIPStreamTrafficTest.host2.tcp.conn-5 rcvNASeg:vector:starttime nan
scalar VoIPStreamTrafficTest.host2.tcp.conn-5 rcvNASeg:vector:endtime nan
scalar VoIPStreamTrafficTest.host2.tcp.conn-5 sackedBytes:vector:count 0
scalar VoIPStreamTrafficTest.host2.tcp.conn-5 sackedBytes:vector:sum 0
scalar VoIPStreamTrafficTest.host2.tcp.conn-5 sackedBytes:vector:sumweights 0
scalar VoIPStreamTrafficTest.host2.tcp.conn-5 sackedBytes:vector:mean -nan
scalar VoIPStreamTrafficTest.host2.tcp.conn-5 sackedBytes:vector:stddev nan
scalar VoIPStreamTrafficTest.host2.tcp.conn-5 sackedBytes:vector:min inf
scalar VoIPStreamTrafficTest.host2.tcp.conn-5 sackedBytes:vector:max -inf
scalar VoIPStreamTrafficTest.host2.tcp.conn-5 sackedBytes:vector:starttime nan
scalar VoIPStreamTrafficTest.host2.tcp.conn-5 sackedBytes:vector:endtime nan
scalar VoIPStreamTrafficTest.host2.tcp.conn-5 tcpRcvQueueBytes:vector:count 20054
scalar VoIPStreamTrafficTest.host2.tcp.conn-5 tcpRcvQueueBytes:vector:sum 0
scalar VoIPStreamTrafficTest.host2.tcp.conn-5 tcpRcvQueueBytes:vector:sumweights 20054
scalar VoIPStreamTrafficTest.host2.tcp.conn-5 tcpRcvQueueBytes:vector:mean 0
scalar VoIPStreamTrafficTest.host2.tcp.conn-5 tcpRcvQueueBytes:vector:stddev 0
scalar VoIPStreamTrafficTest.host2.tcp.conn-5 tcpRcvQueueBytes:vector:min 0
scalar VoIPStreamTrafficTest.host2.tcp.conn-5 tcpRcvQueueBytes:vector:max 0
scalar VoIPStreamTrafficTest.host2.tcp.conn-5 tcpRcvQueueBytes:vector:starttime 0.20101488
scalar VoIPStreamTrafficTest.host2.tcp.conn-5 tcpRcvQueueBytes:vector:endtime 1.999945551143
scalar VoIPStreamTrafficTest.host2.tcp.conn-5 tcpRcvQueueDrops:vector:count 0
scalar VoIPStreamTrafficTest.host2.tcp.conn-5 tcpRcvQueueDrops:vector:sum 0
scalar VoIPStreamTrafficTest.host2.tcp.conn-5 tcpRcvQueueDrops:vector:sumweights 0
scalar VoIPStreamTrafficTest.host2.tcp.conn-5 tcpRcvQueueDrops:vector:mean -nan
scalar VoIPStreamTrafficTest.host2.tcp.conn-5 tcpRcvQueueDrops:vector:stddev nan
scalar VoIPStreamTrafficTest.host2.tcp.conn-5 tcpRcvQueueDrops:vector:min inf
scalar VoIPStreamTrafficTest.host2.tcp.conn-5 tcpRcvQueueDrops:vector:max -inf
scalar VoIPStreamTrafficTest.host2.tcp.conn-5 tcpRcvQueueDrops:vector:starttime nan
scalar VoIPStreamTrafficTest.host2.tcp.conn-5 tcpRcvQueueDrops:vector:endtime nan
scalar VoIPStreamTrafficTest.host2.tcp.conn-5 tcpRcvPayloadBytes:vector:count 10272
scalar VoIPStreamTrafficTest.host2.tcp.conn-5 tcpRcvPayloadBytes:vector:sum 10000000
scalar VoIPStreamTrafficTest.host2.tcp.conn-5 tcpRcvPayloadBytes:vector:sumweights 10272
scalar VoIPStreamTrafficTest.host2.tcp.conn-5 tcpRcvPayloadBytes:vector:mean 973.52024922118
scalar VoIPStreamTrafficTest.host2.tcp.conn-5 tcpRcvPayloadBytes:vector:stddev 221.63915862935
scalar VoIPStreamTrafficTest.host2.tcp.conn-5 tcpRcvPayloadBytes:vector:min 0
scalar VoIPStreamTrafficTest.host2.tcp.conn-5 tcpRcvPayloadBytes:vector:max 1024
scalar VoIPStreamTrafficTest.host2.tcp.conn-5 tcpRcvPayloadBytes:vector:starttime 0.20171248
scalar VoIPStreamTrafficTest.host2.tcp.conn-5 tcpRcvPayloadBytes:vector:endtime 1.999945551143
scalar VoIPStreamTrafficTest.host2.tcp.conn-5 cwnd:vector:count 503
scalar VoIPStreamTrafficTest.host2.tcp.conn-5 cwnd:vector:sum 10727441
scalar VoIPStreamTrafficTest.host2.tcp.conn-5 cwnd:vector:sumweights 503
scalar VoIPStreamTrafficTest.host2.tcp.conn-5 cwnd:vector:mean 21326.920477137
scalar VoIPStreamTrafficTest.host2.tcp.conn-5 cwnd:vector:stddev 7122.8358165383
scalar VoIPStreamTrafficTest.host2.tcp.conn-5 cwnd:vector:min 1024
scalar VoIPStreamTrafficTest.host2.tcp.conn-5 cwnd:vector:max 31743
scalar VoIPStreamTrafficTest.host2.tcp.conn-5 cwnd:vector:starttime 0.40195568
scalar VoIPStreamTrafficTest.host2.tcp.conn-5 cwnd:vector:endtime 1.999945551143
scalar VoIPStreamTrafficTest.host2.tcp.conn-5 ssthresh:vector:count 495
scalar VoIPStreamTrafficTest.host2.tcp.conn-5 ssthresh:vector:sum 111672272358
scalar VoIPStreamTrafficTest.host2.tcp.conn-5 ssthresh:vector:sumweights 495
scalar VoIPStreamTrafficTest.host2.tcp.conn-5 ssthresh:vector:mean 225600550.21818
scalar VoIPStreamTrafficTest.host2.tcp.conn-5 ssthresh:vector:stddev 959105119.79735
scalar VoIPStreamTrafficTest.host2.tcp.conn-5 ssthresh:vector:min 6656
scalar VoIPStreamTrafficTest.host2.tcp.conn-5 ssthresh:vector:max 4294967295
scalar VoIPStreamTrafficTest.host2.tcp.conn-5 ssthresh:vector:starttime 0.40195568
scalar VoIPStreamTrafficTest.host2.tcp.conn-5 ssthresh:vector:endtime 1.999945551143
scalar VoIPStreamTrafficTest.host2.tcp.conn-5 rtt:vector:count 43
scalar VoIPStreamTrafficTest.host2.tcp.conn-5 rtt:vector:sum 0.05276192
scalar VoIPStreamTrafficTest.host2.tcp.conn-5 rtt:vector:sumweights 43
scalar VoIPStreamTrafficTest.host2.tcp.conn-5 rtt:vector:mean 0.0012270213953488
scalar VoIPStreamTrafficTest.host2.tcp.conn-5 rtt:vector:stddev 0.00011579074569448
scalar VoIPStreamTrafficTest.host2.tcp.conn-5 rtt:vector:min 0.0011048
scalar VoIPStreamTrafficTest.host2.tcp.conn-5 rtt:vector:max 0.00165488
scalar VoIPStreamTrafficTest.host2.tcp.conn-5 rtt:vector:starttime 0.40195568
scalar VoIPStreamTrafficTest.host2.tcp.conn-5 rtt:vector:endtime 1.999857391143
scalar VoIPStreamTrafficTest.host2.tcp.conn-5 srtt:vector:count 43
scalar VoIPStreamTrafficTest.host2.tcp.conn-5 srtt:vector:sum 0.044160779958
scalar VoIPStreamTrafficTest.host2.tcp.conn-5 srtt:vector:sumweights 43
scalar VoIPStreamTrafficTest.host2.tcp.conn-5 srtt:vector:mean 0.0010269948827442
scalar VoIPStreamTrafficTest.host2.tcp.conn-5 srtt:vector:stddev 0.00026094996847497
scalar VoIPStreamTrafficTest.host2.tcp.conn-5 srtt:vector:min 0.00014996
scalar VoIPStreamTrafficTest.host2.tcp.conn-5 srtt:vector:max 0.001228734294
scalar VoIPStreamTrafficTest.host2.tcp.conn-5 srtt:vector:starttime 0.40195568
scalar VoIPStreamTrafficTest.host2.tcp.conn-5 srtt:vector:endtime 1.999857391143
scalar VoIPStreamTrafficTest.host2.tcp.conn-5 rttvar:vector:count 43
scalar VoIPStreamTrafficTest.host2.tcp.conn-5 rttvar:vector:sum 5.242777686435
scalar VoIPStreamTrafficTest.host2.tcp.conn-5 rttvar:vector:sumweights 43
scalar VoIPStreamTrafficTest.host2.tcp.conn-5 rttvar:vector:mean 0.12192506247523
scalar VoIPStreamTrafficTest.host2.tcp.conn-5 rttvar:vector:stddev 0.16917529866025
scalar VoIPStreamTrafficTest.host2.tcp.conn-5 rttvar:vector:min 0.002436026841
scalar VoIPStreamTrafficTest.host2.tcp.conn-5 rttvar:vector:max 0.65639996
scalar VoIPStreamTrafficTest.host2.tcp.conn-5 rttvar:vector:starttime 0.40195568
scalar VoIPStreamTrafficTest.host2.tcp.conn-5 rttvar:vector:endtime 1.999857391143
scalar VoIPStreamTrafficTest.host2.tcp.conn-5 rto:vector:count 43
scalar VoIPStreamTrafficTest.host2.tcp.conn-5 rto:vector:sum 48.8023626986
scalar VoIPStreamTrafficTest.host2.tcp.conn-5 rto:vector:sumweights 43
scalar VoIPStreamTrafficTest.host2.tcp.conn-5 rto:vector:mean 1.1349386674093
scalar VoIPStreamTrafficTest.host2.tcp.conn-5 rto:vector:stddev 0.3650741753788
scalar VoIPStreamTrafficTest.host2.tcp.conn-5 rto:vector:min 1
scalar VoIPStreamTrafficTest.host2.tcp.conn-5 rto:vector:max 2.6257498
scalar VoIPStreamTrafficTest.host2.tcp.conn-5 rto:vector:starttime 0.40195568
scalar VoIPStreamTrafficTest.host2.tcp.conn-5 rto:vector:endtime 1.999857391143
scalar VoIPStreamTrafficTest.host2.tcp.conn-5 numRtos:vector:count 1
scalar VoIPStreamTrafficTest.host2.tcp.conn-5 numRtos:vector:sum 1
scalar VoIPStreamTrafficTest.host2.tcp.conn-5 numRtos:vector:sumweights 1
scalar VoIPStreamTrafficTest.host2.tcp.conn-5 numRtos:vector:mean 1
scalar VoIPStreamTrafficTest.host2.tcp.conn-5 numRtos:vector:stddev nan
scalar VoIPStreamTrafficTest.host2.tcp.conn-5 numRtos:vector:min 1
scalar VoIPStreamTrafficTest.host2.tcp.conn-5 numRtos:vector:max 1
scalar VoIPStreamTrafficTest.host2.tcp.conn-5 numRtos:vector:starttime 1.953217551143
scalar VoIPStreamTrafficTest.host2.tcp.conn-5 numRtos:vector:endtime 1.953217551143
scalar VoIPStreamTrafficTest.host2.tcp.conn-5 load:vector:count 0
scalar VoIPStreamTrafficTest.host2.tcp.conn-5 load:vector:sum 0
scalar VoIPStreamTrafficTest.host2.tcp.conn-5 load:vector:sumweights 0
scalar VoIPStreamTrafficTest.host2.tcp.conn-5 load:vector:mean -nan
scalar VoIPStreamTrafficTest.host2.tcp.conn-5 load:vector:stddev nan
scalar VoIPStreamTrafficTest.host2.tcp.conn-5 load:vector:min inf
scalar VoIPStreamTrafficTest.host2.tcp.conn-5 load:vector:max -inf
scalar VoIPStreamTrafficTest.host2.tcp.conn-5 load:vector:starttime nan
scalar VoIPStreamTrafficTest.host2.tcp.conn-5 load:vector:endtime nan
scalar VoIPStreamTrafficTest.host2.tcp.conn-5 calcLoad:vector:count 0
scalar VoIPStreamTrafficTest.host2.tcp.conn-5 calcLoad:vector:sum 0
scalar VoIPStreamTrafficTest.host2.tcp.conn-5 calcLoad:vector:sumweights 0
scalar VoIPStreamTrafficTest.host2.tcp.conn-5 calcLoad:vector:mean -nan
scalar VoIPStreamTrafficTest.host2.tcp.conn-5 calcLoad:vector:stddev nan
scalar VoIPStreamTrafficTest.host2.tcp.conn-5 calcLoad:vector:min inf
scalar VoIPStreamTrafficTest.host2.tcp.conn-5 calcLoad:vector:max -inf
scalar VoIPStreamTrafficTest.host2.tcp.conn-5 calcLoad:vector:starttime nan
scalar VoIPStreamTrafficTest.host2.tcp.conn-5 calcLoad:vector:endtime nan
scalar VoIPStreamTrafficTest.host2.tcp.conn-5 markingProb:vector:count 0
scalar VoIPStreamTrafficTest.host2.tcp.conn-5 markingProb:vector:sum 0
scalar VoIPStreamTrafficTest.host2.tcp.conn-5 markingProb:vector:sumweights 0
scalar VoIPStreamTrafficTest.host2.tcp.conn-5 markingProb:vector:mean -nan
scalar VoIPStreamTrafficTest.host2.tcp.conn-5 markingProb:vector:stddev nan
scalar VoIPStreamTrafficTest.host2.tcp.conn-5 markingProb:vector:min inf
scalar VoIPStreamTrafficTest.host2.tcp.conn-5 markingProb:vector:max -inf
scalar VoIPStreamTrafficTest.host2.tcp.conn-5 markingProb:vector:starttime nan
scalar VoIPStreamTrafficTest.host2.tcp.conn-5 markingProb:vector:endtime nan
scalar VoIPStreamTrafficTest.host2.app[0].thread_5 packetReceived:vector(packetBytes):count 9766
scalar VoIPStreamTrafficTest.host2.app[0].thread_5 packetReceived:vector(packetBytes):sum 10000000
scalar VoIPStreamTrafficTest.host2.app[0].thread_5 packetReceived:vector(packetBytes):sumweights 9766
scalar VoIPStreamTrafficTest.host2.app[0].thread_5 packetReceived:vector(packetBytes):mean 1023.9606799099
scalar VoIPStreamTrafficTest.host2.app[0].thread_5 packetReceived:vector(packetBytes):stddev 3.8857321834666
scalar VoIPStreamTrafficTest.host2.app[0].thread_5 packetReceived:vector(packetBytes):min 640
scalar VoIPStreamTrafficTest.host2.app[0].thread_5 packetReceived:vector(packetBytes):max 1024
scalar VoIPStreamTrafficTest.host2.app[0].thread_5 packetReceived:vector(packetBytes):starttime 0.400756
scalar VoIPStreamTrafficTest.host2.app[0].thread_5 packetReceived:vector(packetBytes):endtime 1.26711024
scalar VoIPStreamTrafficTest.host2.app[0].thread_5 packetSent:vector(packetBytes):count 9766
scalar VoIPStreamTrafficTest.host2.app[0].thread_5 packetSent:vector(packetBytes):sum 20000000
scalar VoIPStreamTrafficTest.host2.app[0].thread_5 packetSent:vector(packetBytes):sumweights 9766
scalar VoIPStreamTrafficTest.host2.app[0].thread_5 packetSent:vector(packetBytes):mean 2047.9213598198
scalar VoIPStreamTrafficTest.host2.app[0].thread_5 packetSent:vector(packetBytes):stddev 7.7714643669332
scalar VoIPStreamTrafficTest.host2.app[0].thread_5 packetSent:vector(packetBytes):min 1280
scalar VoIPStreamTrafficTest.host2.app[0].thread_5 packetSent:vector(packetBytes):max 2048
scalar VoIPStreamTrafficTest.host2.app[0].thread_5 packetSent:vector(packetBytes):starttime 0.400756
scalar VoIPStreamTrafficTest.host2.app[0].thread_5 packetSent:vector(packetBytes):endtime 1.26711024
scalar VoIPStreamTrafficTest.host2.app[0].thread_5 endToEndDelay:vector:count 9766
scalar VoIPStreamTrafficTest.host2.app[0].thread_5 endToEndDelay:vector:sum 4256.00322912
scalar VoIPStreamTrafficTest.host2.app[0].thread_5 endToEndDelay:vector:sumweights 9766
scalar VoIPStreamTrafficTest.host2.app[0].thread_5 endToEndDelay:vector:mean 0.43579799601884
scalar VoIPStreamTrafficTest.host2.app[0].thread_5 endToEndDelay:vector:stddev 0.24856766406009
scalar VoIPStreamTrafficTest.host2.app[0].thread_5 endToEndDelay:vector:min 0.000756
scalar VoIPStreamTrafficTest.host2.app[0].thread_5 endToEndDelay:vector:max 0.86711024
scalar VoIPStreamTrafficTest.host2.app[0].thread_5 endToEndDelay:vector:starttime 0.400756
scalar VoIPStreamTrafficTest.host2.app[0].thread_5 endToEndDelay:vector:endtime 1.26711024

