version 3
run Mobile-0-20250108-11:36:43-14051
attr configname Mobile
attr datetime 20250108-11:36:43
attr datetimef 20250108-113643
attr experiment Mobile
attr inifile omnetpp.ini
attr iterationvars ""
attr iterationvarsd ""
attr iterationvarsf ""
attr measurement ""
attr network PhysicalLinkVisualizerMobileShowcase
attr processid 14051
attr repetition 0
attr replication #0
attr resultdir results
attr runnumber 0
attr seedset 0
config **.param-recording false
config image-path /home/levy/workspace/inet/images
config output-scalar-file results/omnetpp.ini-Mobile-#0.sca
config output-vector-file results/omnetpp.ini-Mobile-#0.vec
config sim-time-limit 500s
config sim-time-limit 500s
config description "Physical Link Activity in a Mobile Wireless Network"
config network PhysicalLinkVisualizerMobileShowcase
config **.limitedBroadcast true
config *.configurator.config "xmldoc(\"configuration.xml\")"
config *.host*.numApps 2
config *.host*.app[0].typename UdpBasicApp
config *.host*.app[0].destAddresses "\"192.168.1.255\""
config *.host*.app[0].packetName "\"Broadcast\""
config *.host*.app[0].destPort 1000
config *.host*.app[0].messageLength 100B
config *.host1.app[0].startTime 0s
config *.host2.app[0].startTime 0.001s
config *.host3.app[0].startTime 0.002s
config *.host4.app[0].startTime 0.003s
config *.host5.app[0].startTime 0.004s
config *.host6.app[0].startTime 0.005s
config *.host7.app[0].startTime 0.006s
config *.host*.app[0].sendInterval 1s
config *.host*.app[1].typename UdpSink
config *.host*.app[1].localPort 1000
config *.host*.app[1].receiveBroadcast true
config *.*.mobility.typename MassMobility
config *.*.mobility.speed 5mps
config *.*.mobility.angleDelta "uniform(-45deg, 45deg)"
config *.*.mobility.changeInterval exponential(100s)
config *.*.mobility.constraintAreaMinX 200m
config *.*.mobility.constraintAreaMinY 40m
config *.*.mobility.constraintAreaMinZ 0m
config *.*.mobility.constraintAreaMaxX 620m
config *.*.mobility.constraintAreaMaxY 600m
config *.*.mobility.constraintAreaMaxZ 0m
config *.*.wlan[*].radio.transmitter.power 2mW
config *.visualizer.physicalLinkVisualizer.displayLinks true
config *.visualizer.physicalLinkVisualizer.packetFilter "\"*Broadcast*\""
config *.visualizer.physicalLinkVisualizer.fadeOutMode "\"simulationTime\""
config *.visualizer.physicalLinkVisualizer.fadeOutTime 5s

scalar PhysicalLinkVisualizerMobileShowcase.radioMedium.propagation "Arrival computation count" 21006
scalar PhysicalLinkVisualizerMobileShowcase.radioMedium "transmission count" 3501
scalar PhysicalLinkVisualizerMobileShowcase.radioMedium "signal send count" 21006
scalar PhysicalLinkVisualizerMobileShowcase.radioMedium "reception computation count" 21000
scalar PhysicalLinkVisualizerMobileShowcase.radioMedium "interference computation count" 66514
scalar PhysicalLinkVisualizerMobileShowcase.radioMedium "reception decision computation count" 13541
scalar PhysicalLinkVisualizerMobileShowcase.radioMedium "listening decision computation count" 31973
scalar PhysicalLinkVisualizerMobileShowcase.radioMedium "reception cache hit" 83.149177920609
scalar PhysicalLinkVisualizerMobileShowcase.radioMedium "interference cache hit" 66.666666666667
scalar PhysicalLinkVisualizerMobileShowcase.radioMedium "noise cache hit" 0
scalar PhysicalLinkVisualizerMobileShowcase.radioMedium "snir cache hit" 50
scalar PhysicalLinkVisualizerMobileShowcase.radioMedium "reception decision cache hit" 50
scalar PhysicalLinkVisualizerMobileShowcase.radioMedium "reception result cache hit" 0
scalar PhysicalLinkVisualizerMobileShowcase.host1.lo[0].lo rcvdPkFromHl:count 0
scalar PhysicalLinkVisualizerMobileShowcase.host1.lo[0].lo rcvdPkFromHl:sum(packetBytes) 0
scalar PhysicalLinkVisualizerMobileShowcase.host1.lo[0].lo passedUpPk:count 0
scalar PhysicalLinkVisualizerMobileShowcase.host1.lo[0].lo passedUpPk:sum(packetBytes) 0
scalar PhysicalLinkVisualizerMobileShowcase.host1.lo[0] packetDropInterfaceDown:count 0
scalar PhysicalLinkVisualizerMobileShowcase.host1.lo[0] packetDropInterfaceDown:sum(packetBytes) 0
scalar PhysicalLinkVisualizerMobileShowcase.host1.lo[0] packetDropNoCarrier:count 0
scalar PhysicalLinkVisualizerMobileShowcase.host1.lo[0] packetDropNoCarrier:sum(packetBytes) 0
scalar PhysicalLinkVisualizerMobileShowcase.host1.wlan[0].mac.dcf.channelAccess.pendingQueue queueLength:last 0
scalar PhysicalLinkVisualizerMobileShowcase.host1.wlan[0].mac.dcf.channelAccess.pendingQueue queueLength:max 1
scalar PhysicalLinkVisualizerMobileShowcase.host1.wlan[0].mac.dcf.channelAccess.pendingQueue queueLength:timeavg 7.8e-07
scalar PhysicalLinkVisualizerMobileShowcase.host1.wlan[0].mac.dcf.channelAccess.pendingQueue queueBitLength:last 0
scalar PhysicalLinkVisualizerMobileShowcase.host1.wlan[0].mac.dcf.channelAccess.pendingQueue queueBitLength:max 1312
scalar PhysicalLinkVisualizerMobileShowcase.host1.wlan[0].mac.dcf.channelAccess.pendingQueue queueBitLength:timeavg 0.00102336
scalar PhysicalLinkVisualizerMobileShowcase.host1.wlan[0].mac.dcf.channelAccess.pendingQueue outgoingPackets:count 501
scalar PhysicalLinkVisualizerMobileShowcase.host1.wlan[0].mac.dcf.channelAccess.pendingQueue outgoingPacketLengths:sum 657312
scalar PhysicalLinkVisualizerMobileShowcase.host1.wlan[0].mac.dcf.channelAccess.pendingQueue incomingPackets:count 501
scalar PhysicalLinkVisualizerMobileShowcase.host1.wlan[0].mac.dcf.channelAccess.pendingQueue incomingPacketLengths:sum 657312
scalar PhysicalLinkVisualizerMobileShowcase.host1.wlan[0].mac.dcf.channelAccess.pendingQueue droppedPacketsQueueOverflow:count 0
scalar PhysicalLinkVisualizerMobileShowcase.host1.wlan[0].mac.dcf.channelAccess.pendingQueue droppedPacketLengthsQueueOverflow:sum 0
scalar PhysicalLinkVisualizerMobileShowcase.host1.wlan[0].mac.dcf.channelAccess.inProgressFrames queueLength:max 1
scalar PhysicalLinkVisualizerMobileShowcase.host1.wlan[0].mac.dcf.channelAccess.inProgressFrames queueLength:timeavg 8.1999999999999e-05
scalar PhysicalLinkVisualizerMobileShowcase.host1.wlan[0].mac.dcf.channelAccess.contention channelAccessGranted:count 501
scalar PhysicalLinkVisualizerMobileShowcase.host1.wlan[0].mac.dcf.channelAccess.contention stateChanged:count 12896
scalar PhysicalLinkVisualizerMobileShowcase.host1.wlan[0].mac.dcf.channelAccess channelOwnershipChanged:count 1001
scalar PhysicalLinkVisualizerMobileShowcase.host1.wlan[0].mac.dcf.originatorMacDataService packetAggregated:count 0
scalar PhysicalLinkVisualizerMobileShowcase.host1.wlan[0].mac.dcf.originatorMacDataService packetFragmented:count 0
scalar PhysicalLinkVisualizerMobileShowcase.host1.wlan[0].mac.dcf.recipientMacDataService packetDeaggregated:count 0
scalar PhysicalLinkVisualizerMobileShowcase.host1.wlan[0].mac.dcf.recipientMacDataService packetDefragmented:count 2218
scalar PhysicalLinkVisualizerMobileShowcase.host1.wlan[0].mac.dcf.recipientMacDataService packetDropDuplicateDetected:count 0
scalar PhysicalLinkVisualizerMobileShowcase.host1.wlan[0].mac.dcf.recipientMacDataService packetDropDuplicateDetected:sum(packetBytes) 0
scalar PhysicalLinkVisualizerMobileShowcase.host1.wlan[0].mac.dcf.recoveryProcedure retryLimitReached:count 0
scalar PhysicalLinkVisualizerMobileShowcase.host1.wlan[0].mac.dcf frameSequenceFinished:count 500
scalar PhysicalLinkVisualizerMobileShowcase.host1.wlan[0].mac.dcf packetReceivedFromPeer:count 2218
scalar PhysicalLinkVisualizerMobileShowcase.host1.wlan[0].mac.dcf packetReceivedFromPeer:sum(packetBytes) 363752
scalar PhysicalLinkVisualizerMobileShowcase.host1.wlan[0].mac.dcf packetReceivedFromPeerUnicast:count 0
scalar PhysicalLinkVisualizerMobileShowcase.host1.wlan[0].mac.dcf packetReceivedFromPeerUnicast:sum(packetBytes) 0
scalar PhysicalLinkVisualizerMobileShowcase.host1.wlan[0].mac.dcf packetReceivedFromPeerMulticast:count 2218
scalar PhysicalLinkVisualizerMobileShowcase.host1.wlan[0].mac.dcf packetReceivedFromPeerMulticast:sum(packetBytes) 363752
scalar PhysicalLinkVisualizerMobileShowcase.host1.wlan[0].mac.dcf packetReceivedFromPeerBroadcast:count 2218
scalar PhysicalLinkVisualizerMobileShowcase.host1.wlan[0].mac.dcf packetReceivedFromPeerBroadcast:sum(packetBytes) 363752
scalar PhysicalLinkVisualizerMobileShowcase.host1.wlan[0].mac.dcf packetReceivedFromPeerWithRetry:count 0
scalar PhysicalLinkVisualizerMobileShowcase.host1.wlan[0].mac.dcf packetReceivedFromPeerWithRetry:sum(packetBytes) 0
scalar PhysicalLinkVisualizerMobileShowcase.host1.wlan[0].mac.dcf packetReceivedFromPeerWithoutRetry:count 2218
scalar PhysicalLinkVisualizerMobileShowcase.host1.wlan[0].mac.dcf packetReceivedFromPeerWithoutRetry:sum(packetBytes) 363752
scalar PhysicalLinkVisualizerMobileShowcase.host1.wlan[0].mac.dcf packetSentToPeer:count 500
scalar PhysicalLinkVisualizerMobileShowcase.host1.wlan[0].mac.dcf packetSentToPeer:sum(packetBytes) 82000
scalar PhysicalLinkVisualizerMobileShowcase.host1.wlan[0].mac.dcf packetSentToPeerUnicast:count 0
scalar PhysicalLinkVisualizerMobileShowcase.host1.wlan[0].mac.dcf packetSentToPeerUnicast:sum(packetBytes) 0
scalar PhysicalLinkVisualizerMobileShowcase.host1.wlan[0].mac.dcf packetSentToPeerMulticast:count 500
scalar PhysicalLinkVisualizerMobileShowcase.host1.wlan[0].mac.dcf packetSentToPeerMulticast:sum(packetBytes) 82000
scalar PhysicalLinkVisualizerMobileShowcase.host1.wlan[0].mac.dcf packetSentToPeerBroadcast:count 500
scalar PhysicalLinkVisualizerMobileShowcase.host1.wlan[0].mac.dcf packetSentToPeerBroadcast:sum(packetBytes) 82000
scalar PhysicalLinkVisualizerMobileShowcase.host1.wlan[0].mac.dcf packetSentToPeerWithRetry:count 0
scalar PhysicalLinkVisualizerMobileShowcase.host1.wlan[0].mac.dcf packetSentToPeerWithRetry:sum(packetBytes) 0
scalar PhysicalLinkVisualizerMobileShowcase.host1.wlan[0].mac.dcf packetSentToPeerWithoutRetry:count 500
scalar PhysicalLinkVisualizerMobileShowcase.host1.wlan[0].mac.dcf packetSentToPeerWithoutRetry:sum(packetBytes) 82000
scalar PhysicalLinkVisualizerMobileShowcase.host1.wlan[0].mac.dcf packetDrop:count 0
scalar PhysicalLinkVisualizerMobileShowcase.host1.wlan[0].mac.dcf packetDrop:sum(packetBytes) 0
scalar PhysicalLinkVisualizerMobileShowcase.host1.wlan[0].mac.dcf packetDropNotAddressedToUs:count 0
scalar PhysicalLinkVisualizerMobileShowcase.host1.wlan[0].mac.dcf packetDropNotAddressedToUs:sum(packetBytes) 0
scalar PhysicalLinkVisualizerMobileShowcase.host1.wlan[0].mac.dcf packetDropQueueOverflow:count 0
scalar PhysicalLinkVisualizerMobileShowcase.host1.wlan[0].mac.dcf packetDropQueueOverflow:sum(packetBytes) 0
scalar PhysicalLinkVisualizerMobileShowcase.host1.wlan[0].mac.dcf packetDropRetryLimitReached:count 0
scalar PhysicalLinkVisualizerMobileShowcase.host1.wlan[0].mac.dcf packetDropRetryLimitReached:sum(packetBytes) 0
scalar PhysicalLinkVisualizerMobileShowcase.host1.wlan[0].mac.dcf linkBroken:count 0
scalar PhysicalLinkVisualizerMobileShowcase.host1.wlan[0].mac packetReceivedFromLower:count 2218
scalar PhysicalLinkVisualizerMobileShowcase.host1.wlan[0].mac packetReceivedFromLower:sum(packetBytes) 363752
scalar PhysicalLinkVisualizerMobileShowcase.host1.wlan[0].mac packetSentToLower:count 501
scalar PhysicalLinkVisualizerMobileShowcase.host1.wlan[0].mac packetSentToLower:sum(packetBytes) 82164
scalar PhysicalLinkVisualizerMobileShowcase.host1.wlan[0].mac packetReceivedFromUpper:count 501
scalar PhysicalLinkVisualizerMobileShowcase.host1.wlan[0].mac packetReceivedFromUpper:sum(packetBytes) 68136
scalar PhysicalLinkVisualizerMobileShowcase.host1.wlan[0].mac packetSentToUpper:count 2218
scalar PhysicalLinkVisualizerMobileShowcase.host1.wlan[0].mac packetSentToUpper:sum(packetBytes) 301648
scalar PhysicalLinkVisualizerMobileShowcase.host1.wlan[0].mac packetDrop:count 0
scalar PhysicalLinkVisualizerMobileShowcase.host1.wlan[0].mac packetDrop:sum(packetBytes) 0
scalar PhysicalLinkVisualizerMobileShowcase.host1.wlan[0].mac packetDropIncorrectlyReceived:count 0
scalar PhysicalLinkVisualizerMobileShowcase.host1.wlan[0].mac packetDropIncorrectlyReceived:sum(packetBytes) 0
scalar PhysicalLinkVisualizerMobileShowcase.host1.wlan[0].mac packetDropNotAddressedToUs:count 0
scalar PhysicalLinkVisualizerMobileShowcase.host1.wlan[0].mac packetDropNotAddressedToUs:sum(packetBytes) 0
scalar PhysicalLinkVisualizerMobileShowcase.host1.wlan[0].mac packetDropQueueOverflow:count 0
scalar PhysicalLinkVisualizerMobileShowcase.host1.wlan[0].mac packetDropQueueOverflow:sum(packetBytes) 0
scalar PhysicalLinkVisualizerMobileShowcase.host1.wlan[0].mac packetDropRetryLimitReached:count 0
scalar PhysicalLinkVisualizerMobileShowcase.host1.wlan[0].mac packetDropRetryLimitReached:sum(packetBytes) 0
scalar PhysicalLinkVisualizerMobileShowcase.host1.wlan[0].mac packetDropDuplicateDetected:count 0
scalar PhysicalLinkVisualizerMobileShowcase.host1.wlan[0].mac packetDropDuplicateDetected:sum(packetBytes) 0
scalar PhysicalLinkVisualizerMobileShowcase.host1.wlan[0].mac packetDropOther:count 0
scalar PhysicalLinkVisualizerMobileShowcase.host1.wlan[0].mac packetDropOther:sum(packetBytes) 0
scalar PhysicalLinkVisualizerMobileShowcase.host1.wlan[0].mac linkBroken:count 0
scalar PhysicalLinkVisualizerMobileShowcase.host1.wlan[0].radio radioMode:count 1004
scalar PhysicalLinkVisualizerMobileShowcase.host1.wlan[0].radio receptionState:count 5446
scalar PhysicalLinkVisualizerMobileShowcase.host1.wlan[0].radio transmissionState:count 2002
scalar PhysicalLinkVisualizerMobileShowcase.host1.wlan[0] packetDropInterfaceDown:count 0
scalar PhysicalLinkVisualizerMobileShowcase.host1.wlan[0] packetDropInterfaceDown:sum(packetBytes) 0
scalar PhysicalLinkVisualizerMobileShowcase.host1.wlan[0] packetDropNoCarrier:count 0
scalar PhysicalLinkVisualizerMobileShowcase.host1.wlan[0] packetDropNoCarrier:sum(packetBytes) 0
scalar PhysicalLinkVisualizerMobileShowcase.host1.ipv4.ip packetDropAddressResolutionFailed:count 0
scalar PhysicalLinkVisualizerMobileShowcase.host1.ipv4.ip packetDropAddressResolutionFailed:sum(packetBytes) 0
scalar PhysicalLinkVisualizerMobileShowcase.host1.ipv4.ip packetDropHopLimitReached:count 0
scalar PhysicalLinkVisualizerMobileShowcase.host1.ipv4.ip packetDropHopLimitReached:sum(packetBytes) 0
scalar PhysicalLinkVisualizerMobileShowcase.host1.ipv4.ip packetDropForwardingDisabled:count 0
scalar PhysicalLinkVisualizerMobileShowcase.host1.ipv4.ip packetDropForwardingDisabled:sum(packetBytes) 0
scalar PhysicalLinkVisualizerMobileShowcase.host1.ipv4.ip packetDropLifetimeExpired:count 0
scalar PhysicalLinkVisualizerMobileShowcase.host1.ipv4.ip packetDropLifetimeExpired:sum(packetBytes) 0
scalar PhysicalLinkVisualizerMobileShowcase.host1.ipv4.ip packetDropNoInterfaceFound:count 0
scalar PhysicalLinkVisualizerMobileShowcase.host1.ipv4.ip packetDropNoInterfaceFound:sum(packetBytes) 0
scalar PhysicalLinkVisualizerMobileShowcase.host1.ipv4.ip packetDropNoRouteFound:count 0
scalar PhysicalLinkVisualizerMobileShowcase.host1.ipv4.ip packetDropNoRouteFound:sum(packetBytes) 0
scalar PhysicalLinkVisualizerMobileShowcase.host1.ipv4.ip packetDropUndefined:count 0
scalar PhysicalLinkVisualizerMobileShowcase.host1.ipv4.ip packetDropUndefined:sum(packetBytes) 0
scalar PhysicalLinkVisualizerMobileShowcase.host1.ipv4.arp arpResolutionFailed:count 0
scalar PhysicalLinkVisualizerMobileShowcase.host1.ipv4.arp arpResolutionCompleted:count 0
scalar PhysicalLinkVisualizerMobileShowcase.host1.ipv4.arp arpResolutionInitiated:count 0
scalar PhysicalLinkVisualizerMobileShowcase.host1.ipv4.arp arpReplySent:count 0
scalar PhysicalLinkVisualizerMobileShowcase.host1.ipv4.arp arpReplySent:sum(packetBytes) 0
scalar PhysicalLinkVisualizerMobileShowcase.host1.ipv4.arp arpRequestSent:count 0
scalar PhysicalLinkVisualizerMobileShowcase.host1.ipv4.arp arpRequestSent:sum(packetBytes) 0
scalar PhysicalLinkVisualizerMobileShowcase.host1.udp packetReceived:count 2218
scalar PhysicalLinkVisualizerMobileShowcase.host1.udp packetReceived:sum(packetBytes) 239544
scalar PhysicalLinkVisualizerMobileShowcase.host1.udp packetSent:count 501
scalar PhysicalLinkVisualizerMobileShowcase.host1.udp packetSent:sum(packetBytes) 54108
scalar PhysicalLinkVisualizerMobileShowcase.host1.udp passedUpPk:count 2218
scalar PhysicalLinkVisualizerMobileShowcase.host1.udp droppedPkWrongPort:count 0
scalar PhysicalLinkVisualizerMobileShowcase.host1.udp droppedPkBadChecksum:count 0
scalar PhysicalLinkVisualizerMobileShowcase.host1.app[0] "packets sent" 501
scalar PhysicalLinkVisualizerMobileShowcase.host1.app[0] "packets received" 0
scalar PhysicalLinkVisualizerMobileShowcase.host1.app[0] packetReceived:count 0
scalar PhysicalLinkVisualizerMobileShowcase.host1.app[0] packetReceived:sum(packetBytes) 0
scalar PhysicalLinkVisualizerMobileShowcase.host1.app[0] packetSent:count 501
scalar PhysicalLinkVisualizerMobileShowcase.host1.app[0] packetSent:sum(packetBytes) 50100
scalar PhysicalLinkVisualizerMobileShowcase.host1.app[1] packetReceived:count 2218
scalar PhysicalLinkVisualizerMobileShowcase.host1.app[1] packetReceived:sum(packetBytes) 221800
scalar PhysicalLinkVisualizerMobileShowcase.host2.lo[0].lo rcvdPkFromHl:count 0
scalar PhysicalLinkVisualizerMobileShowcase.host2.lo[0].lo rcvdPkFromHl:sum(packetBytes) 0
scalar PhysicalLinkVisualizerMobileShowcase.host2.lo[0].lo passedUpPk:count 0
scalar PhysicalLinkVisualizerMobileShowcase.host2.lo[0].lo passedUpPk:sum(packetBytes) 0
scalar PhysicalLinkVisualizerMobileShowcase.host2.lo[0] packetDropInterfaceDown:count 0
scalar PhysicalLinkVisualizerMobileShowcase.host2.lo[0] packetDropInterfaceDown:sum(packetBytes) 0
scalar PhysicalLinkVisualizerMobileShowcase.host2.lo[0] packetDropNoCarrier:count 0
scalar PhysicalLinkVisualizerMobileShowcase.host2.lo[0] packetDropNoCarrier:sum(packetBytes) 0
scalar PhysicalLinkVisualizerMobileShowcase.host2.wlan[0].mac.dcf.channelAccess.pendingQueue queueLength:last 0
scalar PhysicalLinkVisualizerMobileShowcase.host2.wlan[0].mac.dcf.channelAccess.pendingQueue queueLength:max 1
scalar PhysicalLinkVisualizerMobileShowcase.host2.wlan[0].mac.dcf.channelAccess.pendingQueue queueLength:timeavg 2.05207976e-07
scalar PhysicalLinkVisualizerMobileShowcase.host2.wlan[0].mac.dcf.channelAccess.pendingQueue queueBitLength:last 0
scalar PhysicalLinkVisualizerMobileShowcase.host2.wlan[0].mac.dcf.channelAccess.pendingQueue queueBitLength:max 1312
scalar PhysicalLinkVisualizerMobileShowcase.host2.wlan[0].mac.dcf.channelAccess.pendingQueue queueBitLength:timeavg 0.000269232864512
scalar PhysicalLinkVisualizerMobileShowcase.host2.wlan[0].mac.dcf.channelAccess.pendingQueue outgoingPackets:count 500
scalar PhysicalLinkVisualizerMobileShowcase.host2.wlan[0].mac.dcf.channelAccess.pendingQueue outgoingPacketLengths:sum 656000
scalar PhysicalLinkVisualizerMobileShowcase.host2.wlan[0].mac.dcf.channelAccess.pendingQueue incomingPackets:count 500
scalar PhysicalLinkVisualizerMobileShowcase.host2.wlan[0].mac.dcf.channelAccess.pendingQueue incomingPacketLengths:sum 656000
scalar PhysicalLinkVisualizerMobileShowcase.host2.wlan[0].mac.dcf.channelAccess.pendingQueue droppedPacketsQueueOverflow:count 0
scalar PhysicalLinkVisualizerMobileShowcase.host2.wlan[0].mac.dcf.channelAccess.pendingQueue droppedPacketLengthsQueueOverflow:sum 0
scalar PhysicalLinkVisualizerMobileShowcase.host2.wlan[0].mac.dcf.channelAccess.inProgressFrames queueLength:max 1
scalar PhysicalLinkVisualizerMobileShowcase.host2.wlan[0].mac.dcf.channelAccess.inProgressFrames queueLength:timeavg 8.1999999999999e-05
scalar PhysicalLinkVisualizerMobileShowcase.host2.wlan[0].mac.dcf.channelAccess.contention channelAccessGranted:count 500
scalar PhysicalLinkVisualizerMobileShowcase.host2.wlan[0].mac.dcf.channelAccess.contention stateChanged:count 12466
scalar PhysicalLinkVisualizerMobileShowcase.host2.wlan[0].mac.dcf.channelAccess channelOwnershipChanged:count 1000
scalar PhysicalLinkVisualizerMobileShowcase.host2.wlan[0].mac.dcf.originatorMacDataService packetAggregated:count 0
scalar PhysicalLinkVisualizerMobileShowcase.host2.wlan[0].mac.dcf.originatorMacDataService packetFragmented:count 0
scalar PhysicalLinkVisualizerMobileShowcase.host2.wlan[0].mac.dcf.recipientMacDataService packetDeaggregated:count 0
scalar PhysicalLinkVisualizerMobileShowcase.host2.wlan[0].mac.dcf.recipientMacDataService packetDefragmented:count 2110
scalar PhysicalLinkVisualizerMobileShowcase.host2.wlan[0].mac.dcf.recipientMacDataService packetDropDuplicateDetected:count 0
scalar PhysicalLinkVisualizerMobileShowcase.host2.wlan[0].mac.dcf.recipientMacDataService packetDropDuplicateDetected:sum(packetBytes) 0
scalar PhysicalLinkVisualizerMobileShowcase.host2.wlan[0].mac.dcf.recoveryProcedure retryLimitReached:count 0
scalar PhysicalLinkVisualizerMobileShowcase.host2.wlan[0].mac.dcf frameSequenceFinished:count 500
scalar PhysicalLinkVisualizerMobileShowcase.host2.wlan[0].mac.dcf packetReceivedFromPeer:count 2110
scalar PhysicalLinkVisualizerMobileShowcase.host2.wlan[0].mac.dcf packetReceivedFromPeer:sum(packetBytes) 346040
scalar PhysicalLinkVisualizerMobileShowcase.host2.wlan[0].mac.dcf packetReceivedFromPeerUnicast:count 0
scalar PhysicalLinkVisualizerMobileShowcase.host2.wlan[0].mac.dcf packetReceivedFromPeerUnicast:sum(packetBytes) 0
scalar PhysicalLinkVisualizerMobileShowcase.host2.wlan[0].mac.dcf packetReceivedFromPeerMulticast:count 2110
scalar PhysicalLinkVisualizerMobileShowcase.host2.wlan[0].mac.dcf packetReceivedFromPeerMulticast:sum(packetBytes) 346040
scalar PhysicalLinkVisualizerMobileShowcase.host2.wlan[0].mac.dcf packetReceivedFromPeerBroadcast:count 2110
scalar PhysicalLinkVisualizerMobileShowcase.host2.wlan[0].mac.dcf packetReceivedFromPeerBroadcast:sum(packetBytes) 346040
scalar PhysicalLinkVisualizerMobileShowcase.host2.wlan[0].mac.dcf packetReceivedFromPeerWithRetry:count 0
scalar PhysicalLinkVisualizerMobileShowcase.host2.wlan[0].mac.dcf packetReceivedFromPeerWithRetry:sum(packetBytes) 0
scalar PhysicalLinkVisualizerMobileShowcase.host2.wlan[0].mac.dcf packetReceivedFromPeerWithoutRetry:count 2110
scalar PhysicalLinkVisualizerMobileShowcase.host2.wlan[0].mac.dcf packetReceivedFromPeerWithoutRetry:sum(packetBytes) 346040
scalar PhysicalLinkVisualizerMobileShowcase.host2.wlan[0].mac.dcf packetSentToPeer:count 500
scalar PhysicalLinkVisualizerMobileShowcase.host2.wlan[0].mac.dcf packetSentToPeer:sum(packetBytes) 82000
scalar PhysicalLinkVisualizerMobileShowcase.host2.wlan[0].mac.dcf packetSentToPeerUnicast:count 0
scalar PhysicalLinkVisualizerMobileShowcase.host2.wlan[0].mac.dcf packetSentToPeerUnicast:sum(packetBytes) 0
scalar PhysicalLinkVisualizerMobileShowcase.host2.wlan[0].mac.dcf packetSentToPeerMulticast:count 500
scalar PhysicalLinkVisualizerMobileShowcase.host2.wlan[0].mac.dcf packetSentToPeerMulticast:sum(packetBytes) 82000
scalar PhysicalLinkVisualizerMobileShowcase.host2.wlan[0].mac.dcf packetSentToPeerBroadcast:count 500
scalar PhysicalLinkVisualizerMobileShowcase.host2.wlan[0].mac.dcf packetSentToPeerBroadcast:sum(packetBytes) 82000
scalar PhysicalLinkVisualizerMobileShowcase.host2.wlan[0].mac.dcf packetSentToPeerWithRetry:count 0
scalar PhysicalLinkVisualizerMobileShowcase.host2.wlan[0].mac.dcf packetSentToPeerWithRetry:sum(packetBytes) 0
scalar PhysicalLinkVisualizerMobileShowcase.host2.wlan[0].mac.dcf packetSentToPeerWithoutRetry:count 500
scalar PhysicalLinkVisualizerMobileShowcase.host2.wlan[0].mac.dcf packetSentToPeerWithoutRetry:sum(packetBytes) 82000
scalar PhysicalLinkVisualizerMobileShowcase.host2.wlan[0].mac.dcf packetDrop:count 0
scalar PhysicalLinkVisualizerMobileShowcase.host2.wlan[0].mac.dcf packetDrop:sum(packetBytes) 0
scalar PhysicalLinkVisualizerMobileShowcase.host2.wlan[0].mac.dcf packetDropNotAddressedToUs:count 0
scalar PhysicalLinkVisualizerMobileShowcase.host2.wlan[0].mac.dcf packetDropNotAddressedToUs:sum(packetBytes) 0
scalar PhysicalLinkVisualizerMobileShowcase.host2.wlan[0].mac.dcf packetDropQueueOverflow:count 0
scalar PhysicalLinkVisualizerMobileShowcase.host2.wlan[0].mac.dcf packetDropQueueOverflow:sum(packetBytes) 0
scalar PhysicalLinkVisualizerMobileShowcase.host2.wlan[0].mac.dcf packetDropRetryLimitReached:count 0
scalar PhysicalLinkVisualizerMobileShowcase.host2.wlan[0].mac.dcf packetDropRetryLimitReached:sum(packetBytes) 0
scalar PhysicalLinkVisualizerMobileShowcase.host2.wlan[0].mac.dcf linkBroken:count 0
scalar PhysicalLinkVisualizerMobileShowcase.host2.wlan[0].mac packetReceivedFromLower:count 2110
scalar PhysicalLinkVisualizerMobileShowcase.host2.wlan[0].mac packetReceivedFromLower:sum(packetBytes) 346040
scalar PhysicalLinkVisualizerMobileShowcase.host2.wlan[0].mac packetSentToLower:count 500
scalar PhysicalLinkVisualizerMobileShowcase.host2.wlan[0].mac packetSentToLower:sum(packetBytes) 82000
scalar PhysicalLinkVisualizerMobileShowcase.host2.wlan[0].mac packetReceivedFromUpper:count 500
scalar PhysicalLinkVisualizerMobileShowcase.host2.wlan[0].mac packetReceivedFromUpper:sum(packetBytes) 68000
scalar PhysicalLinkVisualizerMobileShowcase.host2.wlan[0].mac packetSentToUpper:count 2110
scalar PhysicalLinkVisualizerMobileShowcase.host2.wlan[0].mac packetSentToUpper:sum(packetBytes) 286960
scalar PhysicalLinkVisualizerMobileShowcase.host2.wlan[0].mac packetDrop:count 0
scalar PhysicalLinkVisualizerMobileShowcase.host2.wlan[0].mac packetDrop:sum(packetBytes) 0
scalar PhysicalLinkVisualizerMobileShowcase.host2.wlan[0].mac packetDropIncorrectlyReceived:count 0
scalar PhysicalLinkVisualizerMobileShowcase.host2.wlan[0].mac packetDropIncorrectlyReceived:sum(packetBytes) 0
scalar PhysicalLinkVisualizerMobileShowcase.host2.wlan[0].mac packetDropNotAddressedToUs:count 0
scalar PhysicalLinkVisualizerMobileShowcase.host2.wlan[0].mac packetDropNotAddressedToUs:sum(packetBytes) 0
scalar PhysicalLinkVisualizerMobileShowcase.host2.wlan[0].mac packetDropQueueOverflow:count 0
scalar PhysicalLinkVisualizerMobileShowcase.host2.wlan[0].mac packetDropQueueOverflow:sum(packetBytes) 0
scalar PhysicalLinkVisualizerMobileShowcase.host2.wlan[0].mac packetDropRetryLimitReached:count 0
scalar PhysicalLinkVisualizerMobileShowcase.host2.wlan[0].mac packetDropRetryLimitReached:sum(packetBytes) 0
scalar PhysicalLinkVisualizerMobileShowcase.host2.wlan[0].mac packetDropDuplicateDetected:count 0
scalar PhysicalLinkVisualizerMobileShowcase.host2.wlan[0].mac packetDropDuplicateDetected:sum(packetBytes) 0
scalar PhysicalLinkVisualizerMobileShowcase.host2.wlan[0].mac packetDropOther:count 0
scalar PhysicalLinkVisualizerMobileShowcase.host2.wlan[0].mac packetDropOther:sum(packetBytes) 0
scalar PhysicalLinkVisualizerMobileShowcase.host2.wlan[0].mac linkBroken:count 0
scalar PhysicalLinkVisualizerMobileShowcase.host2.wlan[0].radio radioMode:count 1003
scalar PhysicalLinkVisualizerMobileShowcase.host2.wlan[0].radio receptionState:count 5233
scalar PhysicalLinkVisualizerMobileShowcase.host2.wlan[0].radio transmissionState:count 2000
scalar PhysicalLinkVisualizerMobileShowcase.host2.wlan[0] packetDropInterfaceDown:count 0
scalar PhysicalLinkVisualizerMobileShowcase.host2.wlan[0] packetDropInterfaceDown:sum(packetBytes) 0
scalar PhysicalLinkVisualizerMobileShowcase.host2.wlan[0] packetDropNoCarrier:count 0
scalar PhysicalLinkVisualizerMobileShowcase.host2.wlan[0] packetDropNoCarrier:sum(packetBytes) 0
scalar PhysicalLinkVisualizerMobileShowcase.host2.ipv4.ip packetDropAddressResolutionFailed:count 0
scalar PhysicalLinkVisualizerMobileShowcase.host2.ipv4.ip packetDropAddressResolutionFailed:sum(packetBytes) 0
scalar PhysicalLinkVisualizerMobileShowcase.host2.ipv4.ip packetDropHopLimitReached:count 0
scalar PhysicalLinkVisualizerMobileShowcase.host2.ipv4.ip packetDropHopLimitReached:sum(packetBytes) 0
scalar PhysicalLinkVisualizerMobileShowcase.host2.ipv4.ip packetDropForwardingDisabled:count 0
scalar PhysicalLinkVisualizerMobileShowcase.host2.ipv4.ip packetDropForwardingDisabled:sum(packetBytes) 0
scalar PhysicalLinkVisualizerMobileShowcase.host2.ipv4.ip packetDropLifetimeExpired:count 0
scalar PhysicalLinkVisualizerMobileShowcase.host2.ipv4.ip packetDropLifetimeExpired:sum(packetBytes) 0
scalar PhysicalLinkVisualizerMobileShowcase.host2.ipv4.ip packetDropNoInterfaceFound:count 0
scalar PhysicalLinkVisualizerMobileShowcase.host2.ipv4.ip packetDropNoInterfaceFound:sum(packetBytes) 0
scalar PhysicalLinkVisualizerMobileShowcase.host2.ipv4.ip packetDropNoRouteFound:count 0
scalar PhysicalLinkVisualizerMobileShowcase.host2.ipv4.ip packetDropNoRouteFound:sum(packetBytes) 0
scalar PhysicalLinkVisualizerMobileShowcase.host2.ipv4.ip packetDropUndefined:count 0
scalar PhysicalLinkVisualizerMobileShowcase.host2.ipv4.ip packetDropUndefined:sum(packetBytes) 0
scalar PhysicalLinkVisualizerMobileShowcase.host2.ipv4.arp arpResolutionFailed:count 0
scalar PhysicalLinkVisualizerMobileShowcase.host2.ipv4.arp arpResolutionCompleted:count 0
scalar PhysicalLinkVisualizerMobileShowcase.host2.ipv4.arp arpResolutionInitiated:count 0
scalar PhysicalLinkVisualizerMobileShowcase.host2.ipv4.arp arpReplySent:count 0
scalar PhysicalLinkVisualizerMobileShowcase.host2.ipv4.arp arpReplySent:sum(packetBytes) 0
scalar PhysicalLinkVisualizerMobileShowcase.host2.ipv4.arp arpRequestSent:count 0
scalar PhysicalLinkVisualizerMobileShowcase.host2.ipv4.arp arpRequestSent:sum(packetBytes) 0
scalar PhysicalLinkVisualizerMobileShowcase.host2.udp packetReceived:count 2110
scalar PhysicalLinkVisualizerMobileShowcase.host2.udp packetReceived:sum(packetBytes) 227880
scalar PhysicalLinkVisualizerMobileShowcase.host2.udp packetSent:count 500
scalar PhysicalLinkVisualizerMobileShowcase.host2.udp packetSent:sum(packetBytes) 54000
scalar PhysicalLinkVisualizerMobileShowcase.host2.udp passedUpPk:count 2110
scalar PhysicalLinkVisualizerMobileShowcase.host2.udp droppedPkWrongPort:count 0
scalar PhysicalLinkVisualizerMobileShowcase.host2.udp droppedPkBadChecksum:count 0
scalar PhysicalLinkVisualizerMobileShowcase.host2.app[0] "packets sent" 500
scalar PhysicalLinkVisualizerMobileShowcase.host2.app[0] "packets received" 0
scalar PhysicalLinkVisualizerMobileShowcase.host2.app[0] packetReceived:count 0
scalar PhysicalLinkVisualizerMobileShowcase.host2.app[0] packetReceived:sum(packetBytes) 0
scalar PhysicalLinkVisualizerMobileShowcase.host2.app[0] packetSent:count 500
scalar PhysicalLinkVisualizerMobileShowcase.host2.app[0] packetSent:sum(packetBytes) 50000
scalar PhysicalLinkVisualizerMobileShowcase.host2.app[1] packetReceived:count 2110
scalar PhysicalLinkVisualizerMobileShowcase.host2.app[1] packetReceived:sum(packetBytes) 211000
scalar PhysicalLinkVisualizerMobileShowcase.host3.lo[0].lo rcvdPkFromHl:count 0
scalar PhysicalLinkVisualizerMobileShowcase.host3.lo[0].lo rcvdPkFromHl:sum(packetBytes) 0
scalar PhysicalLinkVisualizerMobileShowcase.host3.lo[0].lo passedUpPk:count 0
scalar PhysicalLinkVisualizerMobileShowcase.host3.lo[0].lo passedUpPk:sum(packetBytes) 0
scalar PhysicalLinkVisualizerMobileShowcase.host3.lo[0] packetDropInterfaceDown:count 0
scalar PhysicalLinkVisualizerMobileShowcase.host3.lo[0] packetDropInterfaceDown:sum(packetBytes) 0
scalar PhysicalLinkVisualizerMobileShowcase.host3.lo[0] packetDropNoCarrier:count 0
scalar PhysicalLinkVisualizerMobileShowcase.host3.lo[0] packetDropNoCarrier:sum(packetBytes) 0
scalar PhysicalLinkVisualizerMobileShowcase.host3.wlan[0].mac.dcf.channelAccess.pendingQueue queueLength:last 0
scalar PhysicalLinkVisualizerMobileShowcase.host3.wlan[0].mac.dcf.channelAccess.pendingQueue queueLength:max 1
scalar PhysicalLinkVisualizerMobileShowcase.host3.wlan[0].mac.dcf.channelAccess.pendingQueue queueLength:timeavg 0
scalar PhysicalLinkVisualizerMobileShowcase.host3.wlan[0].mac.dcf.channelAccess.pendingQueue queueBitLength:last 0
scalar PhysicalLinkVisualizerMobileShowcase.host3.wlan[0].mac.dcf.channelAccess.pendingQueue queueBitLength:max 1312
scalar PhysicalLinkVisualizerMobileShowcase.host3.wlan[0].mac.dcf.channelAccess.pendingQueue queueBitLength:timeavg 0
scalar PhysicalLinkVisualizerMobileShowcase.host3.wlan[0].mac.dcf.channelAccess.pendingQueue outgoingPackets:count 500
scalar PhysicalLinkVisualizerMobileShowcase.host3.wlan[0].mac.dcf.channelAccess.pendingQueue outgoingPacketLengths:sum 656000
scalar PhysicalLinkVisualizerMobileShowcase.host3.wlan[0].mac.dcf.channelAccess.pendingQueue incomingPackets:count 500
scalar PhysicalLinkVisualizerMobileShowcase.host3.wlan[0].mac.dcf.channelAccess.pendingQueue incomingPacketLengths:sum 656000
scalar PhysicalLinkVisualizerMobileShowcase.host3.wlan[0].mac.dcf.channelAccess.pendingQueue droppedPacketsQueueOverflow:count 0
scalar PhysicalLinkVisualizerMobileShowcase.host3.wlan[0].mac.dcf.channelAccess.pendingQueue droppedPacketLengthsQueueOverflow:sum 0
scalar PhysicalLinkVisualizerMobileShowcase.host3.wlan[0].mac.dcf.channelAccess.inProgressFrames queueLength:max 1
scalar PhysicalLinkVisualizerMobileShowcase.host3.wlan[0].mac.dcf.channelAccess.inProgressFrames queueLength:timeavg 8.1999999999999e-05
scalar PhysicalLinkVisualizerMobileShowcase.host3.wlan[0].mac.dcf.channelAccess.contention channelAccessGranted:count 500
scalar PhysicalLinkVisualizerMobileShowcase.host3.wlan[0].mac.dcf.channelAccess.contention stateChanged:count 11358
scalar PhysicalLinkVisualizerMobileShowcase.host3.wlan[0].mac.dcf.channelAccess channelOwnershipChanged:count 1000
scalar PhysicalLinkVisualizerMobileShowcase.host3.wlan[0].mac.dcf.originatorMacDataService packetAggregated:count 0
scalar PhysicalLinkVisualizerMobileShowcase.host3.wlan[0].mac.dcf.originatorMacDataService packetFragmented:count 0
scalar PhysicalLinkVisualizerMobileShowcase.host3.wlan[0].mac.dcf.recipientMacDataService packetDeaggregated:count 0
scalar PhysicalLinkVisualizerMobileShowcase.host3.wlan[0].mac.dcf.recipientMacDataService packetDefragmented:count 1834
scalar PhysicalLinkVisualizerMobileShowcase.host3.wlan[0].mac.dcf.recipientMacDataService packetDropDuplicateDetected:count 0
scalar PhysicalLinkVisualizerMobileShowcase.host3.wlan[0].mac.dcf.recipientMacDataService packetDropDuplicateDetected:sum(packetBytes) 0
scalar PhysicalLinkVisualizerMobileShowcase.host3.wlan[0].mac.dcf.recoveryProcedure retryLimitReached:count 0
scalar PhysicalLinkVisualizerMobileShowcase.host3.wlan[0].mac.dcf frameSequenceFinished:count 500
scalar PhysicalLinkVisualizerMobileShowcase.host3.wlan[0].mac.dcf packetReceivedFromPeer:count 1834
scalar PhysicalLinkVisualizerMobileShowcase.host3.wlan[0].mac.dcf packetReceivedFromPeer:sum(packetBytes) 300776
scalar PhysicalLinkVisualizerMobileShowcase.host3.wlan[0].mac.dcf packetReceivedFromPeerUnicast:count 0
scalar PhysicalLinkVisualizerMobileShowcase.host3.wlan[0].mac.dcf packetReceivedFromPeerUnicast:sum(packetBytes) 0
scalar PhysicalLinkVisualizerMobileShowcase.host3.wlan[0].mac.dcf packetReceivedFromPeerMulticast:count 1834
scalar PhysicalLinkVisualizerMobileShowcase.host3.wlan[0].mac.dcf packetReceivedFromPeerMulticast:sum(packetBytes) 300776
scalar PhysicalLinkVisualizerMobileShowcase.host3.wlan[0].mac.dcf packetReceivedFromPeerBroadcast:count 1834
scalar PhysicalLinkVisualizerMobileShowcase.host3.wlan[0].mac.dcf packetReceivedFromPeerBroadcast:sum(packetBytes) 300776
scalar PhysicalLinkVisualizerMobileShowcase.host3.wlan[0].mac.dcf packetReceivedFromPeerWithRetry:count 0
scalar PhysicalLinkVisualizerMobileShowcase.host3.wlan[0].mac.dcf packetReceivedFromPeerWithRetry:sum(packetBytes) 0
scalar PhysicalLinkVisualizerMobileShowcase.host3.wlan[0].mac.dcf packetReceivedFromPeerWithoutRetry:count 1834
scalar PhysicalLinkVisualizerMobileShowcase.host3.wlan[0].mac.dcf packetReceivedFromPeerWithoutRetry:sum(packetBytes) 300776
scalar PhysicalLinkVisualizerMobileShowcase.host3.wlan[0].mac.dcf packetSentToPeer:count 500
scalar PhysicalLinkVisualizerMobileShowcase.host3.wlan[0].mac.dcf packetSentToPeer:sum(packetBytes) 82000
scalar PhysicalLinkVisualizerMobileShowcase.host3.wlan[0].mac.dcf packetSentToPeerUnicast:count 0
scalar PhysicalLinkVisualizerMobileShowcase.host3.wlan[0].mac.dcf packetSentToPeerUnicast:sum(packetBytes) 0
scalar PhysicalLinkVisualizerMobileShowcase.host3.wlan[0].mac.dcf packetSentToPeerMulticast:count 500
scalar PhysicalLinkVisualizerMobileShowcase.host3.wlan[0].mac.dcf packetSentToPeerMulticast:sum(packetBytes) 82000
scalar PhysicalLinkVisualizerMobileShowcase.host3.wlan[0].mac.dcf packetSentToPeerBroadcast:count 500
scalar PhysicalLinkVisualizerMobileShowcase.host3.wlan[0].mac.dcf packetSentToPeerBroadcast:sum(packetBytes) 82000
scalar PhysicalLinkVisualizerMobileShowcase.host3.wlan[0].mac.dcf packetSentToPeerWithRetry:count 0
scalar PhysicalLinkVisualizerMobileShowcase.host3.wlan[0].mac.dcf packetSentToPeerWithRetry:sum(packetBytes) 0
scalar PhysicalLinkVisualizerMobileShowcase.host3.wlan[0].mac.dcf packetSentToPeerWithoutRetry:count 500
scalar PhysicalLinkVisualizerMobileShowcase.host3.wlan[0].mac.dcf packetSentToPeerWithoutRetry:sum(packetBytes) 82000
scalar PhysicalLinkVisualizerMobileShowcase.host3.wlan[0].mac.dcf packetDrop:count 0
scalar PhysicalLinkVisualizerMobileShowcase.host3.wlan[0].mac.dcf packetDrop:sum(packetBytes) 0
scalar PhysicalLinkVisualizerMobileShowcase.host3.wlan[0].mac.dcf packetDropNotAddressedToUs:count 0
scalar PhysicalLinkVisualizerMobileShowcase.host3.wlan[0].mac.dcf packetDropNotAddressedToUs:sum(packetBytes) 0
scalar PhysicalLinkVisualizerMobileShowcase.host3.wlan[0].mac.dcf packetDropQueueOverflow:count 0
scalar PhysicalLinkVisualizerMobileShowcase.host3.wlan[0].mac.dcf packetDropQueueOverflow:sum(packetBytes) 0
scalar PhysicalLinkVisualizerMobileShowcase.host3.wlan[0].mac.dcf packetDropRetryLimitReached:count 0
scalar PhysicalLinkVisualizerMobileShowcase.host3.wlan[0].mac.dcf packetDropRetryLimitReached:sum(packetBytes) 0
scalar PhysicalLinkVisualizerMobileShowcase.host3.wlan[0].mac.dcf linkBroken:count 0
scalar PhysicalLinkVisualizerMobileShowcase.host3.wlan[0].mac packetReceivedFromLower:count 1834
scalar PhysicalLinkVisualizerMobileShowcase.host3.wlan[0].mac packetReceivedFromLower:sum(packetBytes) 300776
scalar PhysicalLinkVisualizerMobileShowcase.host3.wlan[0].mac packetSentToLower:count 500
scalar PhysicalLinkVisualizerMobileShowcase.host3.wlan[0].mac packetSentToLower:sum(packetBytes) 82000
scalar PhysicalLinkVisualizerMobileShowcase.host3.wlan[0].mac packetReceivedFromUpper:count 500
scalar PhysicalLinkVisualizerMobileShowcase.host3.wlan[0].mac packetReceivedFromUpper:sum(packetBytes) 68000
scalar PhysicalLinkVisualizerMobileShowcase.host3.wlan[0].mac packetSentToUpper:count 1834
scalar PhysicalLinkVisualizerMobileShowcase.host3.wlan[0].mac packetSentToUpper:sum(packetBytes) 249424
scalar PhysicalLinkVisualizerMobileShowcase.host3.wlan[0].mac packetDrop:count 0
scalar PhysicalLinkVisualizerMobileShowcase.host3.wlan[0].mac packetDrop:sum(packetBytes) 0
scalar PhysicalLinkVisualizerMobileShowcase.host3.wlan[0].mac packetDropIncorrectlyReceived:count 0
scalar PhysicalLinkVisualizerMobileShowcase.host3.wlan[0].mac packetDropIncorrectlyReceived:sum(packetBytes) 0
scalar PhysicalLinkVisualizerMobileShowcase.host3.wlan[0].mac packetDropNotAddressedToUs:count 0
scalar PhysicalLinkVisualizerMobileShowcase.host3.wlan[0].mac packetDropNotAddressedToUs:sum(packetBytes) 0
scalar PhysicalLinkVisualizerMobileShowcase.host3.wlan[0].mac packetDropQueueOverflow:count 0
scalar PhysicalLinkVisualizerMobileShowcase.host3.wlan[0].mac packetDropQueueOverflow:sum(packetBytes) 0
scalar PhysicalLinkVisualizerMobileShowcase.host3.wlan[0].mac packetDropRetryLimitReached:count 0
scalar PhysicalLinkVisualizerMobileShowcase.host3.wlan[0].mac packetDropRetryLimitReached:sum(packetBytes) 0
scalar PhysicalLinkVisualizerMobileShowcase.host3.wlan[0].mac packetDropDuplicateDetected:count 0
scalar PhysicalLinkVisualizerMobileShowcase.host3.wlan[0].mac packetDropDuplicateDetected:sum(packetBytes) 0
scalar PhysicalLinkVisualizerMobileShowcase.host3.wlan[0].mac packetDropOther:count 0
scalar PhysicalLinkVisualizerMobileShowcase.host3.wlan[0].mac packetDropOther:sum(packetBytes) 0
scalar PhysicalLinkVisualizerMobileShowcase.host3.wlan[0].mac linkBroken:count 0
scalar PhysicalLinkVisualizerMobileShowcase.host3.wlan[0].radio radioMode:count 1003
scalar PhysicalLinkVisualizerMobileShowcase.host3.wlan[0].radio receptionState:count 4679
scalar PhysicalLinkVisualizerMobileShowcase.host3.wlan[0].radio transmissionState:count 2000
scalar PhysicalLinkVisualizerMobileShowcase.host3.wlan[0] packetDropInterfaceDown:count 0
scalar PhysicalLinkVisualizerMobileShowcase.host3.wlan[0] packetDropInterfaceDown:sum(packetBytes) 0
scalar PhysicalLinkVisualizerMobileShowcase.host3.wlan[0] packetDropNoCarrier:count 0
scalar PhysicalLinkVisualizerMobileShowcase.host3.wlan[0] packetDropNoCarrier:sum(packetBytes) 0
scalar PhysicalLinkVisualizerMobileShowcase.host3.ipv4.ip packetDropAddressResolutionFailed:count 0
scalar PhysicalLinkVisualizerMobileShowcase.host3.ipv4.ip packetDropAddressResolutionFailed:sum(packetBytes) 0
scalar PhysicalLinkVisualizerMobileShowcase.host3.ipv4.ip packetDropHopLimitReached:count 0
scalar PhysicalLinkVisualizerMobileShowcase.host3.ipv4.ip packetDropHopLimitReached:sum(packetBytes) 0
scalar PhysicalLinkVisualizerMobileShowcase.host3.ipv4.ip packetDropForwardingDisabled:count 0
scalar PhysicalLinkVisualizerMobileShowcase.host3.ipv4.ip packetDropForwardingDisabled:sum(packetBytes) 0
scalar PhysicalLinkVisualizerMobileShowcase.host3.ipv4.ip packetDropLifetimeExpired:count 0
scalar PhysicalLinkVisualizerMobileShowcase.host3.ipv4.ip packetDropLifetimeExpired:sum(packetBytes) 0
scalar PhysicalLinkVisualizerMobileShowcase.host3.ipv4.ip packetDropNoInterfaceFound:count 0
scalar PhysicalLinkVisualizerMobileShowcase.host3.ipv4.ip packetDropNoInterfaceFound:sum(packetBytes) 0
scalar PhysicalLinkVisualizerMobileShowcase.host3.ipv4.ip packetDropNoRouteFound:count 0
scalar PhysicalLinkVisualizerMobileShowcase.host3.ipv4.ip packetDropNoRouteFound:sum(packetBytes) 0
scalar PhysicalLinkVisualizerMobileShowcase.host3.ipv4.ip packetDropUndefined:count 0
scalar PhysicalLinkVisualizerMobileShowcase.host3.ipv4.ip packetDropUndefined:sum(packetBytes) 0
scalar PhysicalLinkVisualizerMobileShowcase.host3.ipv4.arp arpResolutionFailed:count 0
scalar PhysicalLinkVisualizerMobileShowcase.host3.ipv4.arp arpResolutionCompleted:count 0
scalar PhysicalLinkVisualizerMobileShowcase.host3.ipv4.arp arpResolutionInitiated:count 0
scalar PhysicalLinkVisualizerMobileShowcase.host3.ipv4.arp arpReplySent:count 0
scalar PhysicalLinkVisualizerMobileShowcase.host3.ipv4.arp arpReplySent:sum(packetBytes) 0
scalar PhysicalLinkVisualizerMobileShowcase.host3.ipv4.arp arpRequestSent:count 0
scalar PhysicalLinkVisualizerMobileShowcase.host3.ipv4.arp arpRequestSent:sum(packetBytes) 0
scalar PhysicalLinkVisualizerMobileShowcase.host3.udp packetReceived:count 1834
scalar PhysicalLinkVisualizerMobileShowcase.host3.udp packetReceived:sum(packetBytes) 198072
scalar PhysicalLinkVisualizerMobileShowcase.host3.udp packetSent:count 500
scalar PhysicalLinkVisualizerMobileShowcase.host3.udp packetSent:sum(packetBytes) 54000
scalar PhysicalLinkVisualizerMobileShowcase.host3.udp passedUpPk:count 1834
scalar PhysicalLinkVisualizerMobileShowcase.host3.udp droppedPkWrongPort:count 0
scalar PhysicalLinkVisualizerMobileShowcase.host3.udp droppedPkBadChecksum:count 0
scalar PhysicalLinkVisualizerMobileShowcase.host3.app[0] "packets sent" 500
scalar PhysicalLinkVisualizerMobileShowcase.host3.app[0] "packets received" 0
scalar PhysicalLinkVisualizerMobileShowcase.host3.app[0] packetReceived:count 0
scalar PhysicalLinkVisualizerMobileShowcase.host3.app[0] packetReceived:sum(packetBytes) 0
scalar PhysicalLinkVisualizerMobileShowcase.host3.app[0] packetSent:count 500
scalar PhysicalLinkVisualizerMobileShowcase.host3.app[0] packetSent:sum(packetBytes) 50000
scalar PhysicalLinkVisualizerMobileShowcase.host3.app[1] packetReceived:count 1834
scalar PhysicalLinkVisualizerMobileShowcase.host3.app[1] packetReceived:sum(packetBytes) 183400
scalar PhysicalLinkVisualizerMobileShowcase.host4.lo[0].lo rcvdPkFromHl:count 0
scalar PhysicalLinkVisualizerMobileShowcase.host4.lo[0].lo rcvdPkFromHl:sum(packetBytes) 0
scalar PhysicalLinkVisualizerMobileShowcase.host4.lo[0].lo passedUpPk:count 0
scalar PhysicalLinkVisualizerMobileShowcase.host4.lo[0].lo passedUpPk:sum(packetBytes) 0
scalar PhysicalLinkVisualizerMobileShowcase.host4.lo[0] packetDropInterfaceDown:count 0
scalar PhysicalLinkVisualizerMobileShowcase.host4.lo[0] packetDropInterfaceDown:sum(packetBytes) 0
scalar PhysicalLinkVisualizerMobileShowcase.host4.lo[0] packetDropNoCarrier:count 0
scalar PhysicalLinkVisualizerMobileShowcase.host4.lo[0] packetDropNoCarrier:sum(packetBytes) 0
scalar PhysicalLinkVisualizerMobileShowcase.host4.wlan[0].mac.dcf.channelAccess.pendingQueue queueLength:last 0
scalar PhysicalLinkVisualizerMobileShowcase.host4.wlan[0].mac.dcf.channelAccess.pendingQueue queueLength:max 1
scalar PhysicalLinkVisualizerMobileShowcase.host4.wlan[0].mac.dcf.channelAccess.pendingQueue queueLength:timeavg 0
scalar PhysicalLinkVisualizerMobileShowcase.host4.wlan[0].mac.dcf.channelAccess.pendingQueue queueBitLength:last 0
scalar PhysicalLinkVisualizerMobileShowcase.host4.wlan[0].mac.dcf.channelAccess.pendingQueue queueBitLength:max 1312
scalar PhysicalLinkVisualizerMobileShowcase.host4.wlan[0].mac.dcf.channelAccess.pendingQueue queueBitLength:timeavg 0
scalar PhysicalLinkVisualizerMobileShowcase.host4.wlan[0].mac.dcf.channelAccess.pendingQueue outgoingPackets:count 500
scalar PhysicalLinkVisualizerMobileShowcase.host4.wlan[0].mac.dcf.channelAccess.pendingQueue outgoingPacketLengths:sum 656000
scalar PhysicalLinkVisualizerMobileShowcase.host4.wlan[0].mac.dcf.channelAccess.pendingQueue incomingPackets:count 500
scalar PhysicalLinkVisualizerMobileShowcase.host4.wlan[0].mac.dcf.channelAccess.pendingQueue incomingPacketLengths:sum 656000
scalar PhysicalLinkVisualizerMobileShowcase.host4.wlan[0].mac.dcf.channelAccess.pendingQueue droppedPacketsQueueOverflow:count 0
scalar PhysicalLinkVisualizerMobileShowcase.host4.wlan[0].mac.dcf.channelAccess.pendingQueue droppedPacketLengthsQueueOverflow:sum 0
scalar PhysicalLinkVisualizerMobileShowcase.host4.wlan[0].mac.dcf.channelAccess.inProgressFrames queueLength:max 1
scalar PhysicalLinkVisualizerMobileShowcase.host4.wlan[0].mac.dcf.channelAccess.inProgressFrames queueLength:timeavg 8.1999999999999e-05
scalar PhysicalLinkVisualizerMobileShowcase.host4.wlan[0].mac.dcf.channelAccess.contention channelAccessGranted:count 500
scalar PhysicalLinkVisualizerMobileShowcase.host4.wlan[0].mac.dcf.channelAccess.contention stateChanged:count 12082
scalar PhysicalLinkVisualizerMobileShowcase.host4.wlan[0].mac.dcf.channelAccess channelOwnershipChanged:count 1000
scalar PhysicalLinkVisualizerMobileShowcase.host4.wlan[0].mac.dcf.originatorMacDataService packetAggregated:count 0
scalar PhysicalLinkVisualizerMobileShowcase.host4.wlan[0].mac.dcf.originatorMacDataService packetFragmented:count 0
scalar PhysicalLinkVisualizerMobileShowcase.host4.wlan[0].mac.dcf.recipientMacDataService packetDeaggregated:count 0
scalar PhysicalLinkVisualizerMobileShowcase.host4.wlan[0].mac.dcf.recipientMacDataService packetDefragmented:count 2018
scalar PhysicalLinkVisualizerMobileShowcase.host4.wlan[0].mac.dcf.recipientMacDataService packetDropDuplicateDetected:count 0
scalar PhysicalLinkVisualizerMobileShowcase.host4.wlan[0].mac.dcf.recipientMacDataService packetDropDuplicateDetected:sum(packetBytes) 0
scalar PhysicalLinkVisualizerMobileShowcase.host4.wlan[0].mac.dcf.recoveryProcedure retryLimitReached:count 0
scalar PhysicalLinkVisualizerMobileShowcase.host4.wlan[0].mac.dcf frameSequenceFinished:count 500
scalar PhysicalLinkVisualizerMobileShowcase.host4.wlan[0].mac.dcf packetReceivedFromPeer:count 2018
scalar PhysicalLinkVisualizerMobileShowcase.host4.wlan[0].mac.dcf packetReceivedFromPeer:sum(packetBytes) 330952
scalar PhysicalLinkVisualizerMobileShowcase.host4.wlan[0].mac.dcf packetReceivedFromPeerUnicast:count 0
scalar PhysicalLinkVisualizerMobileShowcase.host4.wlan[0].mac.dcf packetReceivedFromPeerUnicast:sum(packetBytes) 0
scalar PhysicalLinkVisualizerMobileShowcase.host4.wlan[0].mac.dcf packetReceivedFromPeerMulticast:count 2018
scalar PhysicalLinkVisualizerMobileShowcase.host4.wlan[0].mac.dcf packetReceivedFromPeerMulticast:sum(packetBytes) 330952
scalar PhysicalLinkVisualizerMobileShowcase.host4.wlan[0].mac.dcf packetReceivedFromPeerBroadcast:count 2018
scalar PhysicalLinkVisualizerMobileShowcase.host4.wlan[0].mac.dcf packetReceivedFromPeerBroadcast:sum(packetBytes) 330952
scalar PhysicalLinkVisualizerMobileShowcase.host4.wlan[0].mac.dcf packetReceivedFromPeerWithRetry:count 0
scalar PhysicalLinkVisualizerMobileShowcase.host4.wlan[0].mac.dcf packetReceivedFromPeerWithRetry:sum(packetBytes) 0
scalar PhysicalLinkVisualizerMobileShowcase.host4.wlan[0].mac.dcf packetReceivedFromPeerWithoutRetry:count 2018
scalar PhysicalLinkVisualizerMobileShowcase.host4.wlan[0].mac.dcf packetReceivedFromPeerWithoutRetry:sum(packetBytes) 330952
scalar PhysicalLinkVisualizerMobileShowcase.host4.wlan[0].mac.dcf packetSentToPeer:count 500
scalar PhysicalLinkVisualizerMobileShowcase.host4.wlan[0].mac.dcf packetSentToPeer:sum(packetBytes) 82000
scalar PhysicalLinkVisualizerMobileShowcase.host4.wlan[0].mac.dcf packetSentToPeerUnicast:count 0
scalar PhysicalLinkVisualizerMobileShowcase.host4.wlan[0].mac.dcf packetSentToPeerUnicast:sum(packetBytes) 0
scalar PhysicalLinkVisualizerMobileShowcase.host4.wlan[0].mac.dcf packetSentToPeerMulticast:count 500
scalar PhysicalLinkVisualizerMobileShowcase.host4.wlan[0].mac.dcf packetSentToPeerMulticast:sum(packetBytes) 82000
scalar PhysicalLinkVisualizerMobileShowcase.host4.wlan[0].mac.dcf packetSentToPeerBroadcast:count 500
scalar PhysicalLinkVisualizerMobileShowcase.host4.wlan[0].mac.dcf packetSentToPeerBroadcast:sum(packetBytes) 82000
scalar PhysicalLinkVisualizerMobileShowcase.host4.wlan[0].mac.dcf packetSentToPeerWithRetry:count 0
scalar PhysicalLinkVisualizerMobileShowcase.host4.wlan[0].mac.dcf packetSentToPeerWithRetry:sum(packetBytes) 0
scalar PhysicalLinkVisualizerMobileShowcase.host4.wlan[0].mac.dcf packetSentToPeerWithoutRetry:count 500
scalar PhysicalLinkVisualizerMobileShowcase.host4.wlan[0].mac.dcf packetSentToPeerWithoutRetry:sum(packetBytes) 82000
scalar PhysicalLinkVisualizerMobileShowcase.host4.wlan[0].mac.dcf packetDrop:count 0
scalar PhysicalLinkVisualizerMobileShowcase.host4.wlan[0].mac.dcf packetDrop:sum(packetBytes) 0
scalar PhysicalLinkVisualizerMobileShowcase.host4.wlan[0].mac.dcf packetDropNotAddressedToUs:count 0
scalar PhysicalLinkVisualizerMobileShowcase.host4.wlan[0].mac.dcf packetDropNotAddressedToUs:sum(packetBytes) 0
scalar PhysicalLinkVisualizerMobileShowcase.host4.wlan[0].mac.dcf packetDropQueueOverflow:count 0
scalar PhysicalLinkVisualizerMobileShowcase.host4.wlan[0].mac.dcf packetDropQueueOverflow:sum(packetBytes) 0
scalar PhysicalLinkVisualizerMobileShowcase.host4.wlan[0].mac.dcf packetDropRetryLimitReached:count 0
scalar PhysicalLinkVisualizerMobileShowcase.host4.wlan[0].mac.dcf packetDropRetryLimitReached:sum(packetBytes) 0
scalar PhysicalLinkVisualizerMobileShowcase.host4.wlan[0].mac.dcf linkBroken:count 0
scalar PhysicalLinkVisualizerMobileShowcase.host4.wlan[0].mac packetReceivedFromLower:count 2018
scalar PhysicalLinkVisualizerMobileShowcase.host4.wlan[0].mac packetReceivedFromLower:sum(packetBytes) 330952
scalar PhysicalLinkVisualizerMobileShowcase.host4.wlan[0].mac packetSentToLower:count 500
scalar PhysicalLinkVisualizerMobileShowcase.host4.wlan[0].mac packetSentToLower:sum(packetBytes) 82000
scalar PhysicalLinkVisualizerMobileShowcase.host4.wlan[0].mac packetReceivedFromUpper:count 500
scalar PhysicalLinkVisualizerMobileShowcase.host4.wlan[0].mac packetReceivedFromUpper:sum(packetBytes) 68000
scalar PhysicalLinkVisualizerMobileShowcase.host4.wlan[0].mac packetSentToUpper:count 2018
scalar PhysicalLinkVisualizerMobileShowcase.host4.wlan[0].mac packetSentToUpper:sum(packetBytes) 274448
scalar PhysicalLinkVisualizerMobileShowcase.host4.wlan[0].mac packetDrop:count 0
scalar PhysicalLinkVisualizerMobileShowcase.host4.wlan[0].mac packetDrop:sum(packetBytes) 0
scalar PhysicalLinkVisualizerMobileShowcase.host4.wlan[0].mac packetDropIncorrectlyReceived:count 0
scalar PhysicalLinkVisualizerMobileShowcase.host4.wlan[0].mac packetDropIncorrectlyReceived:sum(packetBytes) 0
scalar PhysicalLinkVisualizerMobileShowcase.host4.wlan[0].mac packetDropNotAddressedToUs:count 0
scalar PhysicalLinkVisualizerMobileShowcase.host4.wlan[0].mac packetDropNotAddressedToUs:sum(packetBytes) 0
scalar PhysicalLinkVisualizerMobileShowcase.host4.wlan[0].mac packetDropQueueOverflow:count 0
scalar PhysicalLinkVisualizerMobileShowcase.host4.wlan[0].mac packetDropQueueOverflow:sum(packetBytes) 0
scalar PhysicalLinkVisualizerMobileShowcase.host4.wlan[0].mac packetDropRetryLimitReached:count 0
scalar PhysicalLinkVisualizerMobileShowcase.host4.wlan[0].mac packetDropRetryLimitReached:sum(packetBytes) 0
scalar PhysicalLinkVisualizerMobileShowcase.host4.wlan[0].mac packetDropDuplicateDetected:count 0
scalar PhysicalLinkVisualizerMobileShowcase.host4.wlan[0].mac packetDropDuplicateDetected:sum(packetBytes) 0
scalar PhysicalLinkVisualizerMobileShowcase.host4.wlan[0].mac packetDropOther:count 0
scalar PhysicalLinkVisualizerMobileShowcase.host4.wlan[0].mac packetDropOther:sum(packetBytes) 0
scalar PhysicalLinkVisualizerMobileShowcase.host4.wlan[0].mac linkBroken:count 0
scalar PhysicalLinkVisualizerMobileShowcase.host4.wlan[0].radio radioMode:count 1003
scalar PhysicalLinkVisualizerMobileShowcase.host4.wlan[0].radio receptionState:count 5041
scalar PhysicalLinkVisualizerMobileShowcase.host4.wlan[0].radio transmissionState:count 2000
scalar PhysicalLinkVisualizerMobileShowcase.host4.wlan[0] packetDropInterfaceDown:count 0
scalar PhysicalLinkVisualizerMobileShowcase.host4.wlan[0] packetDropInterfaceDown:sum(packetBytes) 0
scalar PhysicalLinkVisualizerMobileShowcase.host4.wlan[0] packetDropNoCarrier:count 0
scalar PhysicalLinkVisualizerMobileShowcase.host4.wlan[0] packetDropNoCarrier:sum(packetBytes) 0
scalar PhysicalLinkVisualizerMobileShowcase.host4.ipv4.ip packetDropAddressResolutionFailed:count 0
scalar PhysicalLinkVisualizerMobileShowcase.host4.ipv4.ip packetDropAddressResolutionFailed:sum(packetBytes) 0
scalar PhysicalLinkVisualizerMobileShowcase.host4.ipv4.ip packetDropHopLimitReached:count 0
scalar PhysicalLinkVisualizerMobileShowcase.host4.ipv4.ip packetDropHopLimitReached:sum(packetBytes) 0
scalar PhysicalLinkVisualizerMobileShowcase.host4.ipv4.ip packetDropForwardingDisabled:count 0
scalar PhysicalLinkVisualizerMobileShowcase.host4.ipv4.ip packetDropForwardingDisabled:sum(packetBytes) 0
scalar PhysicalLinkVisualizerMobileShowcase.host4.ipv4.ip packetDropLifetimeExpired:count 0
scalar PhysicalLinkVisualizerMobileShowcase.host4.ipv4.ip packetDropLifetimeExpired:sum(packetBytes) 0
scalar PhysicalLinkVisualizerMobileShowcase.host4.ipv4.ip packetDropNoInterfaceFound:count 0
scalar PhysicalLinkVisualizerMobileShowcase.host4.ipv4.ip packetDropNoInterfaceFound:sum(packetBytes) 0
scalar PhysicalLinkVisualizerMobileShowcase.host4.ipv4.ip packetDropNoRouteFound:count 0
scalar PhysicalLinkVisualizerMobileShowcase.host4.ipv4.ip packetDropNoRouteFound:sum(packetBytes) 0
scalar PhysicalLinkVisualizerMobileShowcase.host4.ipv4.ip packetDropUndefined:count 0
scalar PhysicalLinkVisualizerMobileShowcase.host4.ipv4.ip packetDropUndefined:sum(packetBytes) 0
scalar PhysicalLinkVisualizerMobileShowcase.host4.ipv4.arp arpResolutionFailed:count 0
scalar PhysicalLinkVisualizerMobileShowcase.host4.ipv4.arp arpResolutionCompleted:count 0
scalar PhysicalLinkVisualizerMobileShowcase.host4.ipv4.arp arpResolutionInitiated:count 0
scalar PhysicalLinkVisualizerMobileShowcase.host4.ipv4.arp arpReplySent:count 0
scalar PhysicalLinkVisualizerMobileShowcase.host4.ipv4.arp arpReplySent:sum(packetBytes) 0
scalar PhysicalLinkVisualizerMobileShowcase.host4.ipv4.arp arpRequestSent:count 0
scalar PhysicalLinkVisualizerMobileShowcase.host4.ipv4.arp arpRequestSent:sum(packetBytes) 0
scalar PhysicalLinkVisualizerMobileShowcase.host4.udp packetReceived:count 2018
scalar PhysicalLinkVisualizerMobileShowcase.host4.udp packetReceived:sum(packetBytes) 217944
scalar PhysicalLinkVisualizerMobileShowcase.host4.udp packetSent:count 500
scalar PhysicalLinkVisualizerMobileShowcase.host4.udp packetSent:sum(packetBytes) 54000
scalar PhysicalLinkVisualizerMobileShowcase.host4.udp passedUpPk:count 2018
scalar PhysicalLinkVisualizerMobileShowcase.host4.udp droppedPkWrongPort:count 0
scalar PhysicalLinkVisualizerMobileShowcase.host4.udp droppedPkBadChecksum:count 0
scalar PhysicalLinkVisualizerMobileShowcase.host4.app[0] "packets sent" 500
scalar PhysicalLinkVisualizerMobileShowcase.host4.app[0] "packets received" 0
scalar PhysicalLinkVisualizerMobileShowcase.host4.app[0] packetReceived:count 0
scalar PhysicalLinkVisualizerMobileShowcase.host4.app[0] packetReceived:sum(packetBytes) 0
scalar PhysicalLinkVisualizerMobileShowcase.host4.app[0] packetSent:count 500
scalar PhysicalLinkVisualizerMobileShowcase.host4.app[0] packetSent:sum(packetBytes) 50000
scalar PhysicalLinkVisualizerMobileShowcase.host4.app[1] packetReceived:count 2018
scalar PhysicalLinkVisualizerMobileShowcase.host4.app[1] packetReceived:sum(packetBytes) 201800
scalar PhysicalLinkVisualizerMobileShowcase.host5.lo[0].lo rcvdPkFromHl:count 0
scalar PhysicalLinkVisualizerMobileShowcase.host5.lo[0].lo rcvdPkFromHl:sum(packetBytes) 0
scalar PhysicalLinkVisualizerMobileShowcase.host5.lo[0].lo passedUpPk:count 0
scalar PhysicalLinkVisualizerMobileShowcase.host5.lo[0].lo passedUpPk:sum(packetBytes) 0
scalar PhysicalLinkVisualizerMobileShowcase.host5.lo[0] packetDropInterfaceDown:count 0
scalar PhysicalLinkVisualizerMobileShowcase.host5.lo[0] packetDropInterfaceDown:sum(packetBytes) 0
scalar PhysicalLinkVisualizerMobileShowcase.host5.lo[0] packetDropNoCarrier:count 0
scalar PhysicalLinkVisualizerMobileShowcase.host5.lo[0] packetDropNoCarrier:sum(packetBytes) 0
scalar PhysicalLinkVisualizerMobileShowcase.host5.wlan[0].mac.dcf.channelAccess.pendingQueue queueLength:last 0
scalar PhysicalLinkVisualizerMobileShowcase.host5.wlan[0].mac.dcf.channelAccess.pendingQueue queueLength:max 1
scalar PhysicalLinkVisualizerMobileShowcase.host5.wlan[0].mac.dcf.channelAccess.pendingQueue queueLength:timeavg 0
scalar PhysicalLinkVisualizerMobileShowcase.host5.wlan[0].mac.dcf.channelAccess.pendingQueue queueBitLength:last 0
scalar PhysicalLinkVisualizerMobileShowcase.host5.wlan[0].mac.dcf.channelAccess.pendingQueue queueBitLength:max 1312
scalar PhysicalLinkVisualizerMobileShowcase.host5.wlan[0].mac.dcf.channelAccess.pendingQueue queueBitLength:timeavg 0
scalar PhysicalLinkVisualizerMobileShowcase.host5.wlan[0].mac.dcf.channelAccess.pendingQueue outgoingPackets:count 500
scalar PhysicalLinkVisualizerMobileShowcase.host5.wlan[0].mac.dcf.channelAccess.pendingQueue outgoingPacketLengths:sum 656000
scalar PhysicalLinkVisualizerMobileShowcase.host5.wlan[0].mac.dcf.channelAccess.pendingQueue incomingPackets:count 500
scalar PhysicalLinkVisualizerMobileShowcase.host5.wlan[0].mac.dcf.channelAccess.pendingQueue incomingPacketLengths:sum 656000
scalar PhysicalLinkVisualizerMobileShowcase.host5.wlan[0].mac.dcf.channelAccess.pendingQueue droppedPacketsQueueOverflow:count 0
scalar PhysicalLinkVisualizerMobileShowcase.host5.wlan[0].mac.dcf.channelAccess.pendingQueue droppedPacketLengthsQueueOverflow:sum 0
scalar PhysicalLinkVisualizerMobileShowcase.host5.wlan[0].mac.dcf.channelAccess.inProgressFrames queueLength:max 1
scalar PhysicalLinkVisualizerMobileShowcase.host5.wlan[0].mac.dcf.channelAccess.inProgressFrames queueLength:timeavg 8.1999999999999e-05
scalar PhysicalLinkVisualizerMobileShowcase.host5.wlan[0].mac.dcf.channelAccess.contention channelAccessGranted:count 500
scalar PhysicalLinkVisualizerMobileShowcase.host5.wlan[0].mac.dcf.channelAccess.contention stateChanged:count 11550
scalar PhysicalLinkVisualizerMobileShowcase.host5.wlan[0].mac.dcf.channelAccess channelOwnershipChanged:count 1000
scalar PhysicalLinkVisualizerMobileShowcase.host5.wlan[0].mac.dcf.originatorMacDataService packetAggregated:count 0
scalar PhysicalLinkVisualizerMobileShowcase.host5.wlan[0].mac.dcf.originatorMacDataService packetFragmented:count 0
scalar PhysicalLinkVisualizerMobileShowcase.host5.wlan[0].mac.dcf.recipientMacDataService packetDeaggregated:count 0
scalar PhysicalLinkVisualizerMobileShowcase.host5.wlan[0].mac.dcf.recipientMacDataService packetDefragmented:count 1885
scalar PhysicalLinkVisualizerMobileShowcase.host5.wlan[0].mac.dcf.recipientMacDataService packetDropDuplicateDetected:count 0
scalar PhysicalLinkVisualizerMobileShowcase.host5.wlan[0].mac.dcf.recipientMacDataService packetDropDuplicateDetected:sum(packetBytes) 0
scalar PhysicalLinkVisualizerMobileShowcase.host5.wlan[0].mac.dcf.recoveryProcedure retryLimitReached:count 0
scalar PhysicalLinkVisualizerMobileShowcase.host5.wlan[0].mac.dcf frameSequenceFinished:count 500
scalar PhysicalLinkVisualizerMobileShowcase.host5.wlan[0].mac.dcf packetReceivedFromPeer:count 1885
scalar PhysicalLinkVisualizerMobileShowcase.host5.wlan[0].mac.dcf packetReceivedFromPeer:sum(packetBytes) 309140
scalar PhysicalLinkVisualizerMobileShowcase.host5.wlan[0].mac.dcf packetReceivedFromPeerUnicast:count 0
scalar PhysicalLinkVisualizerMobileShowcase.host5.wlan[0].mac.dcf packetReceivedFromPeerUnicast:sum(packetBytes) 0
scalar PhysicalLinkVisualizerMobileShowcase.host5.wlan[0].mac.dcf packetReceivedFromPeerMulticast:count 1885
scalar PhysicalLinkVisualizerMobileShowcase.host5.wlan[0].mac.dcf packetReceivedFromPeerMulticast:sum(packetBytes) 309140
scalar PhysicalLinkVisualizerMobileShowcase.host5.wlan[0].mac.dcf packetReceivedFromPeerBroadcast:count 1885
scalar PhysicalLinkVisualizerMobileShowcase.host5.wlan[0].mac.dcf packetReceivedFromPeerBroadcast:sum(packetBytes) 309140
scalar PhysicalLinkVisualizerMobileShowcase.host5.wlan[0].mac.dcf packetReceivedFromPeerWithRetry:count 0
scalar PhysicalLinkVisualizerMobileShowcase.host5.wlan[0].mac.dcf packetReceivedFromPeerWithRetry:sum(packetBytes) 0
scalar PhysicalLinkVisualizerMobileShowcase.host5.wlan[0].mac.dcf packetReceivedFromPeerWithoutRetry:count 1885
scalar PhysicalLinkVisualizerMobileShowcase.host5.wlan[0].mac.dcf packetReceivedFromPeerWithoutRetry:sum(packetBytes) 309140
scalar PhysicalLinkVisualizerMobileShowcase.host5.wlan[0].mac.dcf packetSentToPeer:count 500
scalar PhysicalLinkVisualizerMobileShowcase.host5.wlan[0].mac.dcf packetSentToPeer:sum(packetBytes) 82000
scalar PhysicalLinkVisualizerMobileShowcase.host5.wlan[0].mac.dcf packetSentToPeerUnicast:count 0
scalar PhysicalLinkVisualizerMobileShowcase.host5.wlan[0].mac.dcf packetSentToPeerUnicast:sum(packetBytes) 0
scalar PhysicalLinkVisualizerMobileShowcase.host5.wlan[0].mac.dcf packetSentToPeerMulticast:count 500
scalar PhysicalLinkVisualizerMobileShowcase.host5.wlan[0].mac.dcf packetSentToPeerMulticast:sum(packetBytes) 82000
scalar PhysicalLinkVisualizerMobileShowcase.host5.wlan[0].mac.dcf packetSentToPeerBroadcast:count 500
scalar PhysicalLinkVisualizerMobileShowcase.host5.wlan[0].mac.dcf packetSentToPeerBroadcast:sum(packetBytes) 82000
scalar PhysicalLinkVisualizerMobileShowcase.host5.wlan[0].mac.dcf packetSentToPeerWithRetry:count 0
scalar PhysicalLinkVisualizerMobileShowcase.host5.wlan[0].mac.dcf packetSentToPeerWithRetry:sum(packetBytes) 0
scalar PhysicalLinkVisualizerMobileShowcase.host5.wlan[0].mac.dcf packetSentToPeerWithoutRetry:count 500
scalar PhysicalLinkVisualizerMobileShowcase.host5.wlan[0].mac.dcf packetSentToPeerWithoutRetry:sum(packetBytes) 82000
scalar PhysicalLinkVisualizerMobileShowcase.host5.wlan[0].mac.dcf packetDrop:count 0
scalar PhysicalLinkVisualizerMobileShowcase.host5.wlan[0].mac.dcf packetDrop:sum(packetBytes) 0
scalar PhysicalLinkVisualizerMobileShowcase.host5.wlan[0].mac.dcf packetDropNotAddressedToUs:count 0
scalar PhysicalLinkVisualizerMobileShowcase.host5.wlan[0].mac.dcf packetDropNotAddressedToUs:sum(packetBytes) 0
scalar PhysicalLinkVisualizerMobileShowcase.host5.wlan[0].mac.dcf packetDropQueueOverflow:count 0
scalar PhysicalLinkVisualizerMobileShowcase.host5.wlan[0].mac.dcf packetDropQueueOverflow:sum(packetBytes) 0
scalar PhysicalLinkVisualizerMobileShowcase.host5.wlan[0].mac.dcf packetDropRetryLimitReached:count 0
scalar PhysicalLinkVisualizerMobileShowcase.host5.wlan[0].mac.dcf packetDropRetryLimitReached:sum(packetBytes) 0
scalar PhysicalLinkVisualizerMobileShowcase.host5.wlan[0].mac.dcf linkBroken:count 0
scalar PhysicalLinkVisualizerMobileShowcase.host5.wlan[0].mac packetReceivedFromLower:count 1885
scalar PhysicalLinkVisualizerMobileShowcase.host5.wlan[0].mac packetReceivedFromLower:sum(packetBytes) 309140
scalar PhysicalLinkVisualizerMobileShowcase.host5.wlan[0].mac packetSentToLower:count 500
scalar PhysicalLinkVisualizerMobileShowcase.host5.wlan[0].mac packetSentToLower:sum(packetBytes) 82000
scalar PhysicalLinkVisualizerMobileShowcase.host5.wlan[0].mac packetReceivedFromUpper:count 500
scalar PhysicalLinkVisualizerMobileShowcase.host5.wlan[0].mac packetReceivedFromUpper:sum(packetBytes) 68000
scalar PhysicalLinkVisualizerMobileShowcase.host5.wlan[0].mac packetSentToUpper:count 1885
scalar PhysicalLinkVisualizerMobileShowcase.host5.wlan[0].mac packetSentToUpper:sum(packetBytes) 256360
scalar PhysicalLinkVisualizerMobileShowcase.host5.wlan[0].mac packetDrop:count 0
scalar PhysicalLinkVisualizerMobileShowcase.host5.wlan[0].mac packetDrop:sum(packetBytes) 0
scalar PhysicalLinkVisualizerMobileShowcase.host5.wlan[0].mac packetDropIncorrectlyReceived:count 0
scalar PhysicalLinkVisualizerMobileShowcase.host5.wlan[0].mac packetDropIncorrectlyReceived:sum(packetBytes) 0
scalar PhysicalLinkVisualizerMobileShowcase.host5.wlan[0].mac packetDropNotAddressedToUs:count 0
scalar PhysicalLinkVisualizerMobileShowcase.host5.wlan[0].mac packetDropNotAddressedToUs:sum(packetBytes) 0
scalar PhysicalLinkVisualizerMobileShowcase.host5.wlan[0].mac packetDropQueueOverflow:count 0
scalar PhysicalLinkVisualizerMobileShowcase.host5.wlan[0].mac packetDropQueueOverflow:sum(packetBytes) 0
scalar PhysicalLinkVisualizerMobileShowcase.host5.wlan[0].mac packetDropRetryLimitReached:count 0
scalar PhysicalLinkVisualizerMobileShowcase.host5.wlan[0].mac packetDropRetryLimitReached:sum(packetBytes) 0
scalar PhysicalLinkVisualizerMobileShowcase.host5.wlan[0].mac packetDropDuplicateDetected:count 0
scalar PhysicalLinkVisualizerMobileShowcase.host5.wlan[0].mac packetDropDuplicateDetected:sum(packetBytes) 0
scalar PhysicalLinkVisualizerMobileShowcase.host5.wlan[0].mac packetDropOther:count 0
scalar PhysicalLinkVisualizerMobileShowcase.host5.wlan[0].mac packetDropOther:sum(packetBytes) 0
scalar PhysicalLinkVisualizerMobileShowcase.host5.wlan[0].mac linkBroken:count 0
scalar PhysicalLinkVisualizerMobileShowcase.host5.wlan[0].radio radioMode:count 1003
scalar PhysicalLinkVisualizerMobileShowcase.host5.wlan[0].radio receptionState:count 4775
scalar PhysicalLinkVisualizerMobileShowcase.host5.wlan[0].radio transmissionState:count 2000
scalar PhysicalLinkVisualizerMobileShowcase.host5.wlan[0] packetDropInterfaceDown:count 0
scalar PhysicalLinkVisualizerMobileShowcase.host5.wlan[0] packetDropInterfaceDown:sum(packetBytes) 0
scalar PhysicalLinkVisualizerMobileShowcase.host5.wlan[0] packetDropNoCarrier:count 0
scalar PhysicalLinkVisualizerMobileShowcase.host5.wlan[0] packetDropNoCarrier:sum(packetBytes) 0
scalar PhysicalLinkVisualizerMobileShowcase.host5.ipv4.ip packetDropAddressResolutionFailed:count 0
scalar PhysicalLinkVisualizerMobileShowcase.host5.ipv4.ip packetDropAddressResolutionFailed:sum(packetBytes) 0
scalar PhysicalLinkVisualizerMobileShowcase.host5.ipv4.ip packetDropHopLimitReached:count 0
scalar PhysicalLinkVisualizerMobileShowcase.host5.ipv4.ip packetDropHopLimitReached:sum(packetBytes) 0
scalar PhysicalLinkVisualizerMobileShowcase.host5.ipv4.ip packetDropForwardingDisabled:count 0
scalar PhysicalLinkVisualizerMobileShowcase.host5.ipv4.ip packetDropForwardingDisabled:sum(packetBytes) 0
scalar PhysicalLinkVisualizerMobileShowcase.host5.ipv4.ip packetDropLifetimeExpired:count 0
scalar PhysicalLinkVisualizerMobileShowcase.host5.ipv4.ip packetDropLifetimeExpired:sum(packetBytes) 0
scalar PhysicalLinkVisualizerMobileShowcase.host5.ipv4.ip packetDropNoInterfaceFound:count 0
scalar PhysicalLinkVisualizerMobileShowcase.host5.ipv4.ip packetDropNoInterfaceFound:sum(packetBytes) 0
scalar PhysicalLinkVisualizerMobileShowcase.host5.ipv4.ip packetDropNoRouteFound:count 0
scalar PhysicalLinkVisualizerMobileShowcase.host5.ipv4.ip packetDropNoRouteFound:sum(packetBytes) 0
scalar PhysicalLinkVisualizerMobileShowcase.host5.ipv4.ip packetDropUndefined:count 0
scalar PhysicalLinkVisualizerMobileShowcase.host5.ipv4.ip packetDropUndefined:sum(packetBytes) 0
scalar PhysicalLinkVisualizerMobileShowcase.host5.ipv4.arp arpResolutionFailed:count 0
scalar PhysicalLinkVisualizerMobileShowcase.host5.ipv4.arp arpResolutionCompleted:count 0
scalar PhysicalLinkVisualizerMobileShowcase.host5.ipv4.arp arpResolutionInitiated:count 0
scalar PhysicalLinkVisualizerMobileShowcase.host5.ipv4.arp arpReplySent:count 0
scalar PhysicalLinkVisualizerMobileShowcase.host5.ipv4.arp arpReplySent:sum(packetBytes) 0
scalar PhysicalLinkVisualizerMobileShowcase.host5.ipv4.arp arpRequestSent:count 0
scalar PhysicalLinkVisualizerMobileShowcase.host5.ipv4.arp arpRequestSent:sum(packetBytes) 0
scalar PhysicalLinkVisualizerMobileShowcase.host5.udp packetReceived:count 1885
scalar PhysicalLinkVisualizerMobileShowcase.host5.udp packetReceived:sum(packetBytes) 203580
scalar PhysicalLinkVisualizerMobileShowcase.host5.udp packetSent:count 500
scalar PhysicalLinkVisualizerMobileShowcase.host5.udp packetSent:sum(packetBytes) 54000
scalar PhysicalLinkVisualizerMobileShowcase.host5.udp passedUpPk:count 1885
scalar PhysicalLinkVisualizerMobileShowcase.host5.udp droppedPkWrongPort:count 0
scalar PhysicalLinkVisualizerMobileShowcase.host5.udp droppedPkBadChecksum:count 0
scalar PhysicalLinkVisualizerMobileShowcase.host5.app[0] "packets sent" 500
scalar PhysicalLinkVisualizerMobileShowcase.host5.app[0] "packets received" 0
scalar PhysicalLinkVisualizerMobileShowcase.host5.app[0] packetReceived:count 0
scalar PhysicalLinkVisualizerMobileShowcase.host5.app[0] packetReceived:sum(packetBytes) 0
scalar PhysicalLinkVisualizerMobileShowcase.host5.app[0] packetSent:count 500
scalar PhysicalLinkVisualizerMobileShowcase.host5.app[0] packetSent:sum(packetBytes) 50000
scalar PhysicalLinkVisualizerMobileShowcase.host5.app[1] packetReceived:count 1885
scalar PhysicalLinkVisualizerMobileShowcase.host5.app[1] packetReceived:sum(packetBytes) 188500
scalar PhysicalLinkVisualizerMobileShowcase.host6.lo[0].lo rcvdPkFromHl:count 0
scalar PhysicalLinkVisualizerMobileShowcase.host6.lo[0].lo rcvdPkFromHl:sum(packetBytes) 0
scalar PhysicalLinkVisualizerMobileShowcase.host6.lo[0].lo passedUpPk:count 0
scalar PhysicalLinkVisualizerMobileShowcase.host6.lo[0].lo passedUpPk:sum(packetBytes) 0
scalar PhysicalLinkVisualizerMobileShowcase.host6.lo[0] packetDropInterfaceDown:count 0
scalar PhysicalLinkVisualizerMobileShowcase.host6.lo[0] packetDropInterfaceDown:sum(packetBytes) 0
scalar PhysicalLinkVisualizerMobileShowcase.host6.lo[0] packetDropNoCarrier:count 0
scalar PhysicalLinkVisualizerMobileShowcase.host6.lo[0] packetDropNoCarrier:sum(packetBytes) 0
scalar PhysicalLinkVisualizerMobileShowcase.host6.wlan[0].mac.dcf.channelAccess.pendingQueue queueLength:last 0
scalar PhysicalLinkVisualizerMobileShowcase.host6.wlan[0].mac.dcf.channelAccess.pendingQueue queueLength:max 1
scalar PhysicalLinkVisualizerMobileShowcase.host6.wlan[0].mac.dcf.channelAccess.pendingQueue queueLength:timeavg 0
scalar PhysicalLinkVisualizerMobileShowcase.host6.wlan[0].mac.dcf.channelAccess.pendingQueue queueBitLength:last 0
scalar PhysicalLinkVisualizerMobileShowcase.host6.wlan[0].mac.dcf.channelAccess.pendingQueue queueBitLength:max 1312
scalar PhysicalLinkVisualizerMobileShowcase.host6.wlan[0].mac.dcf.channelAccess.pendingQueue queueBitLength:timeavg 0
scalar PhysicalLinkVisualizerMobileShowcase.host6.wlan[0].mac.dcf.channelAccess.pendingQueue outgoingPackets:count 500
scalar PhysicalLinkVisualizerMobileShowcase.host6.wlan[0].mac.dcf.channelAccess.pendingQueue outgoingPacketLengths:sum 656000
scalar PhysicalLinkVisualizerMobileShowcase.host6.wlan[0].mac.dcf.channelAccess.pendingQueue incomingPackets:count 500
scalar PhysicalLinkVisualizerMobileShowcase.host6.wlan[0].mac.dcf.channelAccess.pendingQueue incomingPacketLengths:sum 656000
scalar PhysicalLinkVisualizerMobileShowcase.host6.wlan[0].mac.dcf.channelAccess.pendingQueue droppedPacketsQueueOverflow:count 0
scalar PhysicalLinkVisualizerMobileShowcase.host6.wlan[0].mac.dcf.channelAccess.pendingQueue droppedPacketLengthsQueueOverflow:sum 0
scalar PhysicalLinkVisualizerMobileShowcase.host6.wlan[0].mac.dcf.channelAccess.inProgressFrames queueLength:max 1
scalar PhysicalLinkVisualizerMobileShowcase.host6.wlan[0].mac.dcf.channelAccess.inProgressFrames queueLength:timeavg 8.1999999999999e-05
scalar PhysicalLinkVisualizerMobileShowcase.host6.wlan[0].mac.dcf.channelAccess.contention channelAccessGranted:count 500
scalar PhysicalLinkVisualizerMobileShowcase.host6.wlan[0].mac.dcf.channelAccess.contention stateChanged:count 11278
scalar PhysicalLinkVisualizerMobileShowcase.host6.wlan[0].mac.dcf.channelAccess channelOwnershipChanged:count 1000
scalar PhysicalLinkVisualizerMobileShowcase.host6.wlan[0].mac.dcf.originatorMacDataService packetAggregated:count 0
scalar PhysicalLinkVisualizerMobileShowcase.host6.wlan[0].mac.dcf.originatorMacDataService packetFragmented:count 0
scalar PhysicalLinkVisualizerMobileShowcase.host6.wlan[0].mac.dcf.recipientMacDataService packetDeaggregated:count 0
scalar PhysicalLinkVisualizerMobileShowcase.host6.wlan[0].mac.dcf.recipientMacDataService packetDefragmented:count 1812
scalar PhysicalLinkVisualizerMobileShowcase.host6.wlan[0].mac.dcf.recipientMacDataService packetDropDuplicateDetected:count 0
scalar PhysicalLinkVisualizerMobileShowcase.host6.wlan[0].mac.dcf.recipientMacDataService packetDropDuplicateDetected:sum(packetBytes) 0
scalar PhysicalLinkVisualizerMobileShowcase.host6.wlan[0].mac.dcf.recoveryProcedure retryLimitReached:count 0
scalar PhysicalLinkVisualizerMobileShowcase.host6.wlan[0].mac.dcf frameSequenceFinished:count 500
scalar PhysicalLinkVisualizerMobileShowcase.host6.wlan[0].mac.dcf packetReceivedFromPeer:count 1812
scalar PhysicalLinkVisualizerMobileShowcase.host6.wlan[0].mac.dcf packetReceivedFromPeer:sum(packetBytes) 297168
scalar PhysicalLinkVisualizerMobileShowcase.host6.wlan[0].mac.dcf packetReceivedFromPeerUnicast:count 0
scalar PhysicalLinkVisualizerMobileShowcase.host6.wlan[0].mac.dcf packetReceivedFromPeerUnicast:sum(packetBytes) 0
scalar PhysicalLinkVisualizerMobileShowcase.host6.wlan[0].mac.dcf packetReceivedFromPeerMulticast:count 1812
scalar PhysicalLinkVisualizerMobileShowcase.host6.wlan[0].mac.dcf packetReceivedFromPeerMulticast:sum(packetBytes) 297168
scalar PhysicalLinkVisualizerMobileShowcase.host6.wlan[0].mac.dcf packetReceivedFromPeerBroadcast:count 1812
scalar PhysicalLinkVisualizerMobileShowcase.host6.wlan[0].mac.dcf packetReceivedFromPeerBroadcast:sum(packetBytes) 297168
scalar PhysicalLinkVisualizerMobileShowcase.host6.wlan[0].mac.dcf packetReceivedFromPeerWithRetry:count 0
scalar PhysicalLinkVisualizerMobileShowcase.host6.wlan[0].mac.dcf packetReceivedFromPeerWithRetry:sum(packetBytes) 0
scalar PhysicalLinkVisualizerMobileShowcase.host6.wlan[0].mac.dcf packetReceivedFromPeerWithoutRetry:count 1812
scalar PhysicalLinkVisualizerMobileShowcase.host6.wlan[0].mac.dcf packetReceivedFromPeerWithoutRetry:sum(packetBytes) 297168
scalar PhysicalLinkVisualizerMobileShowcase.host6.wlan[0].mac.dcf packetSentToPeer:count 500
scalar PhysicalLinkVisualizerMobileShowcase.host6.wlan[0].mac.dcf packetSentToPeer:sum(packetBytes) 82000
scalar PhysicalLinkVisualizerMobileShowcase.host6.wlan[0].mac.dcf packetSentToPeerUnicast:count 0
scalar PhysicalLinkVisualizerMobileShowcase.host6.wlan[0].mac.dcf packetSentToPeerUnicast:sum(packetBytes) 0
scalar PhysicalLinkVisualizerMobileShowcase.host6.wlan[0].mac.dcf packetSentToPeerMulticast:count 500
scalar PhysicalLinkVisualizerMobileShowcase.host6.wlan[0].mac.dcf packetSentToPeerMulticast:sum(packetBytes) 82000
scalar PhysicalLinkVisualizerMobileShowcase.host6.wlan[0].mac.dcf packetSentToPeerBroadcast:count 500
scalar PhysicalLinkVisualizerMobileShowcase.host6.wlan[0].mac.dcf packetSentToPeerBroadcast:sum(packetBytes) 82000
scalar PhysicalLinkVisualizerMobileShowcase.host6.wlan[0].mac.dcf packetSentToPeerWithRetry:count 0
scalar PhysicalLinkVisualizerMobileShowcase.host6.wlan[0].mac.dcf packetSentToPeerWithRetry:sum(packetBytes) 0
scalar PhysicalLinkVisualizerMobileShowcase.host6.wlan[0].mac.dcf packetSentToPeerWithoutRetry:count 500
scalar PhysicalLinkVisualizerMobileShowcase.host6.wlan[0].mac.dcf packetSentToPeerWithoutRetry:sum(packetBytes) 82000
scalar PhysicalLinkVisualizerMobileShowcase.host6.wlan[0].mac.dcf packetDrop:count 0
scalar PhysicalLinkVisualizerMobileShowcase.host6.wlan[0].mac.dcf packetDrop:sum(packetBytes) 0
scalar PhysicalLinkVisualizerMobileShowcase.host6.wlan[0].mac.dcf packetDropNotAddressedToUs:count 0
scalar PhysicalLinkVisualizerMobileShowcase.host6.wlan[0].mac.dcf packetDropNotAddressedToUs:sum(packetBytes) 0
scalar PhysicalLinkVisualizerMobileShowcase.host6.wlan[0].mac.dcf packetDropQueueOverflow:count 0
scalar PhysicalLinkVisualizerMobileShowcase.host6.wlan[0].mac.dcf packetDropQueueOverflow:sum(packetBytes) 0
scalar PhysicalLinkVisualizerMobileShowcase.host6.wlan[0].mac.dcf packetDropRetryLimitReached:count 0
scalar PhysicalLinkVisualizerMobileShowcase.host6.wlan[0].mac.dcf packetDropRetryLimitReached:sum(packetBytes) 0
scalar PhysicalLinkVisualizerMobileShowcase.host6.wlan[0].mac.dcf linkBroken:count 0
scalar PhysicalLinkVisualizerMobileShowcase.host6.wlan[0].mac packetReceivedFromLower:count 1812
scalar PhysicalLinkVisualizerMobileShowcase.host6.wlan[0].mac packetReceivedFromLower:sum(packetBytes) 297168
scalar PhysicalLinkVisualizerMobileShowcase.host6.wlan[0].mac packetSentToLower:count 500
scalar PhysicalLinkVisualizerMobileShowcase.host6.wlan[0].mac packetSentToLower:sum(packetBytes) 82000
scalar PhysicalLinkVisualizerMobileShowcase.host6.wlan[0].mac packetReceivedFromUpper:count 500
scalar PhysicalLinkVisualizerMobileShowcase.host6.wlan[0].mac packetReceivedFromUpper:sum(packetBytes) 68000
scalar PhysicalLinkVisualizerMobileShowcase.host6.wlan[0].mac packetSentToUpper:count 1812
scalar PhysicalLinkVisualizerMobileShowcase.host6.wlan[0].mac packetSentToUpper:sum(packetBytes) 246432
scalar PhysicalLinkVisualizerMobileShowcase.host6.wlan[0].mac packetDrop:count 0
scalar PhysicalLinkVisualizerMobileShowcase.host6.wlan[0].mac packetDrop:sum(packetBytes) 0
scalar PhysicalLinkVisualizerMobileShowcase.host6.wlan[0].mac packetDropIncorrectlyReceived:count 0
scalar PhysicalLinkVisualizerMobileShowcase.host6.wlan[0].mac packetDropIncorrectlyReceived:sum(packetBytes) 0
scalar PhysicalLinkVisualizerMobileShowcase.host6.wlan[0].mac packetDropNotAddressedToUs:count 0
scalar PhysicalLinkVisualizerMobileShowcase.host6.wlan[0].mac packetDropNotAddressedToUs:sum(packetBytes) 0
scalar PhysicalLinkVisualizerMobileShowcase.host6.wlan[0].mac packetDropQueueOverflow:count 0
scalar PhysicalLinkVisualizerMobileShowcase.host6.wlan[0].mac packetDropQueueOverflow:sum(packetBytes) 0
scalar PhysicalLinkVisualizerMobileShowcase.host6.wlan[0].mac packetDropRetryLimitReached:count 0
scalar PhysicalLinkVisualizerMobileShowcase.host6.wlan[0].mac packetDropRetryLimitReached:sum(packetBytes) 0
scalar PhysicalLinkVisualizerMobileShowcase.host6.wlan[0].mac packetDropDuplicateDetected:count 0
scalar PhysicalLinkVisualizerMobileShowcase.host6.wlan[0].mac packetDropDuplicateDetected:sum(packetBytes) 0
scalar PhysicalLinkVisualizerMobileShowcase.host6.wlan[0].mac packetDropOther:count 0
scalar PhysicalLinkVisualizerMobileShowcase.host6.wlan[0].mac packetDropOther:sum(packetBytes) 0
scalar PhysicalLinkVisualizerMobileShowcase.host6.wlan[0].mac linkBroken:count 0
scalar PhysicalLinkVisualizerMobileShowcase.host6.wlan[0].radio radioMode:count 1003
[...]
scalar PhysicalLinkVisualizerMobileShowcase.host7.ipv4.ip packetDropHopLimitReached:vector(packetBytes):count 0
scalar PhysicalLinkVisualizerMobileShowcase.host7.ipv4.ip packetDropHopLimitReached:vector(packetBytes):sum 0
scalar PhysicalLinkVisualizerMobileShowcase.host7.ipv4.ip packetDropHopLimitReached:vector(packetBytes):sumweights 0
scalar PhysicalLinkVisualizerMobileShowcase.host7.ipv4.ip packetDropHopLimitReached:vector(packetBytes):mean -nan
scalar PhysicalLinkVisualizerMobileShowcase.host7.ipv4.ip packetDropHopLimitReached:vector(packetBytes):stddev nan
scalar PhysicalLinkVisualizerMobileShowcase.host7.ipv4.ip packetDropHopLimitReached:vector(packetBytes):min inf
scalar PhysicalLinkVisualizerMobileShowcase.host7.ipv4.ip packetDropHopLimitReached:vector(packetBytes):max -inf
scalar PhysicalLinkVisualizerMobileShowcase.host7.ipv4.ip packetDropHopLimitReached:vector(packetBytes):starttime nan
scalar PhysicalLinkVisualizerMobileShowcase.host7.ipv4.ip packetDropHopLimitReached:vector(packetBytes):endtime nan
scalar PhysicalLinkVisualizerMobileShowcase.host7.ipv4.ip packetDropForwardingDisabled:vector(packetBytes):count 0
scalar PhysicalLinkVisualizerMobileShowcase.host7.ipv4.ip packetDropForwardingDisabled:vector(packetBytes):sum 0
scalar PhysicalLinkVisualizerMobileShowcase.host7.ipv4.ip packetDropForwardingDisabled:vector(packetBytes):sumweights 0
scalar PhysicalLinkVisualizerMobileShowcase.host7.ipv4.ip packetDropForwardingDisabled:vector(packetBytes):mean -nan
scalar PhysicalLinkVisualizerMobileShowcase.host7.ipv4.ip packetDropForwardingDisabled:vector(packetBytes):stddev nan
scalar PhysicalLinkVisualizerMobileShowcase.host7.ipv4.ip packetDropForwardingDisabled:vector(packetBytes):min inf
scalar PhysicalLinkVisualizerMobileShowcase.host7.ipv4.ip packetDropForwardingDisabled:vector(packetBytes):max -inf
scalar PhysicalLinkVisualizerMobileShowcase.host7.ipv4.ip packetDropForwardingDisabled:vector(packetBytes):starttime nan
scalar PhysicalLinkVisualizerMobileShowcase.host7.ipv4.ip packetDropForwardingDisabled:vector(packetBytes):endtime nan
scalar PhysicalLinkVisualizerMobileShowcase.host7.ipv4.ip packetDropLifetimeExpired:vector(packetBytes):count 0
scalar PhysicalLinkVisualizerMobileShowcase.host7.ipv4.ip packetDropLifetimeExpired:vector(packetBytes):sum 0
scalar PhysicalLinkVisualizerMobileShowcase.host7.ipv4.ip packetDropLifetimeExpired:vector(packetBytes):sumweights 0
scalar PhysicalLinkVisualizerMobileShowcase.host7.ipv4.ip packetDropLifetimeExpired:vector(packetBytes):mean -nan
scalar PhysicalLinkVisualizerMobileShowcase.host7.ipv4.ip packetDropLifetimeExpired:vector(packetBytes):stddev nan
scalar PhysicalLinkVisualizerMobileShowcase.host7.ipv4.ip packetDropLifetimeExpired:vector(packetBytes):min inf
scalar PhysicalLinkVisualizerMobileShowcase.host7.ipv4.ip packetDropLifetimeExpired:vector(packetBytes):max -inf
scalar PhysicalLinkVisualizerMobileShowcase.host7.ipv4.ip packetDropLifetimeExpired:vector(packetBytes):starttime nan
scalar PhysicalLinkVisualizerMobileShowcase.host7.ipv4.ip packetDropLifetimeExpired:vector(packetBytes):endtime nan
scalar PhysicalLinkVisualizerMobileShowcase.host7.ipv4.ip packetDropNoInterfaceFound:vector(packetBytes):count 0
scalar PhysicalLinkVisualizerMobileShowcase.host7.ipv4.ip packetDropNoInterfaceFound:vector(packetBytes):sum 0
scalar PhysicalLinkVisualizerMobileShowcase.host7.ipv4.ip packetDropNoInterfaceFound:vector(packetBytes):sumweights 0
scalar PhysicalLinkVisualizerMobileShowcase.host7.ipv4.ip packetDropNoInterfaceFound:vector(packetBytes):mean -nan
scalar PhysicalLinkVisualizerMobileShowcase.host7.ipv4.ip packetDropNoInterfaceFound:vector(packetBytes):stddev nan
scalar PhysicalLinkVisualizerMobileShowcase.host7.ipv4.ip packetDropNoInterfaceFound:vector(packetBytes):min inf
scalar PhysicalLinkVisualizerMobileShowcase.host7.ipv4.ip packetDropNoInterfaceFound:vector(packetBytes):max -inf
scalar PhysicalLinkVisualizerMobileShowcase.host7.ipv4.ip packetDropNoInterfaceFound:vector(packetBytes):starttime nan
scalar PhysicalLinkVisualizerMobileShowcase.host7.ipv4.ip packetDropNoInterfaceFound:vector(packetBytes):endtime nan
scalar PhysicalLinkVisualizerMobileShowcase.host7.ipv4.ip packetDropNoRouteFound:vector(packetBytes):count 0
scalar PhysicalLinkVisualizerMobileShowcase.host7.ipv4.ip packetDropNoRouteFound:vector(packetBytes):sum 0
scalar PhysicalLinkVisualizerMobileShowcase.host7.ipv4.ip packetDropNoRouteFound:vector(packetBytes):sumweights 0
scalar PhysicalLinkVisualizerMobileShowcase.host7.ipv4.ip packetDropNoRouteFound:vector(packetBytes):mean -nan
scalar PhysicalLinkVisualizerMobileShowcase.host7.ipv4.ip packetDropNoRouteFound:vector(packetBytes):stddev nan
scalar PhysicalLinkVisualizerMobileShowcase.host7.ipv4.ip packetDropNoRouteFound:vector(packetBytes):min inf
scalar PhysicalLinkVisualizerMobileShowcase.host7.ipv4.ip packetDropNoRouteFound:vector(packetBytes):max -inf
scalar PhysicalLinkVisualizerMobileShowcase.host7.ipv4.ip packetDropNoRouteFound:vector(packetBytes):starttime nan
scalar PhysicalLinkVisualizerMobileShowcase.host7.ipv4.ip packetDropNoRouteFound:vector(packetBytes):endtime nan
scalar PhysicalLinkVisualizerMobileShowcase.host7.ipv4.ip packetDropUndefined:vector(packetBytes):count 0
scalar PhysicalLinkVisualizerMobileShowcase.host7.ipv4.ip packetDropUndefined:vector(packetBytes):sum 0
scalar PhysicalLinkVisualizerMobileShowcase.host7.ipv4.ip packetDropUndefined:vector(packetBytes):sumweights 0
scalar PhysicalLinkVisualizerMobileShowcase.host7.ipv4.ip packetDropUndefined:vector(packetBytes):mean -nan
scalar PhysicalLinkVisualizerMobileShowcase.host7.ipv4.ip packetDropUndefined:vector(packetBytes):stddev nan
scalar PhysicalLinkVisualizerMobileShowcase.host7.ipv4.ip packetDropUndefined:vector(packetBytes):min inf
scalar PhysicalLinkVisualizerMobileShowcase.host7.ipv4.ip packetDropUndefined:vector(packetBytes):max -inf
scalar PhysicalLinkVisualizerMobileShowcase.host7.ipv4.ip packetDropUndefined:vector(packetBytes):starttime nan
scalar PhysicalLinkVisualizerMobileShowcase.host7.ipv4.ip packetDropUndefined:vector(packetBytes):endtime nan
scalar PhysicalLinkVisualizerMobileShowcase.host7.ipv4.arp arpRequestSent:vector(packetBytes):count 0
scalar PhysicalLinkVisualizerMobileShowcase.host7.ipv4.arp arpRequestSent:vector(packetBytes):sum 0
scalar PhysicalLinkVisualizerMobileShowcase.host7.ipv4.arp arpRequestSent:vector(packetBytes):sumweights 0
scalar PhysicalLinkVisualizerMobileShowcase.host7.ipv4.arp arpRequestSent:vector(packetBytes):mean -nan
scalar PhysicalLinkVisualizerMobileShowcase.host7.ipv4.arp arpRequestSent:vector(packetBytes):stddev nan
scalar PhysicalLinkVisualizerMobileShowcase.host7.ipv4.arp arpRequestSent:vector(packetBytes):min inf
scalar PhysicalLinkVisualizerMobileShowcase.host7.ipv4.arp arpRequestSent:vector(packetBytes):max -inf
scalar PhysicalLinkVisualizerMobileShowcase.host7.ipv4.arp arpRequestSent:vector(packetBytes):starttime nan
scalar PhysicalLinkVisualizerMobileShowcase.host7.ipv4.arp arpRequestSent:vector(packetBytes):endtime nan
scalar PhysicalLinkVisualizerMobileShowcase.host7.ipv4.arp arpReplySent:vector(packetBytes):count 0
scalar PhysicalLinkVisualizerMobileShowcase.host7.ipv4.arp arpReplySent:vector(packetBytes):sum 0
scalar PhysicalLinkVisualizerMobileShowcase.host7.ipv4.arp arpReplySent:vector(packetBytes):sumweights 0
scalar PhysicalLinkVisualizerMobileShowcase.host7.ipv4.arp arpReplySent:vector(packetBytes):mean -nan
scalar PhysicalLinkVisualizerMobileShowcase.host7.ipv4.arp arpReplySent:vector(packetBytes):stddev nan
scalar PhysicalLinkVisualizerMobileShowcase.host7.ipv4.arp arpReplySent:vector(packetBytes):min inf
scalar PhysicalLinkVisualizerMobileShowcase.host7.ipv4.arp arpReplySent:vector(packetBytes):max -inf
scalar PhysicalLinkVisualizerMobileShowcase.host7.ipv4.arp arpReplySent:vector(packetBytes):starttime nan
scalar PhysicalLinkVisualizerMobileShowcase.host7.ipv4.arp arpReplySent:vector(packetBytes):endtime nan
scalar PhysicalLinkVisualizerMobileShowcase.host7.udp packetSent:vector(packetBytes):count 500
scalar PhysicalLinkVisualizerMobileShowcase.host7.udp packetSent:vector(packetBytes):sum 54000
scalar PhysicalLinkVisualizerMobileShowcase.host7.udp packetSent:vector(packetBytes):sumweights 500
scalar PhysicalLinkVisualizerMobileShowcase.host7.udp packetSent:vector(packetBytes):mean 108
scalar PhysicalLinkVisualizerMobileShowcase.host7.udp packetSent:vector(packetBytes):stddev 0
scalar PhysicalLinkVisualizerMobileShowcase.host7.udp packetSent:vector(packetBytes):min 108
scalar PhysicalLinkVisualizerMobileShowcase.host7.udp packetSent:vector(packetBytes):max 108
scalar PhysicalLinkVisualizerMobileShowcase.host7.udp packetSent:vector(packetBytes):starttime 0.006
scalar PhysicalLinkVisualizerMobileShowcase.host7.udp packetSent:vector(packetBytes):endtime 499.006
scalar PhysicalLinkVisualizerMobileShowcase.host7.udp packetReceived:vector(packetBytes):count 1664
scalar PhysicalLinkVisualizerMobileShowcase.host7.udp packetReceived:vector(packetBytes):sum 179712
scalar PhysicalLinkVisualizerMobileShowcase.host7.udp packetReceived:vector(packetBytes):sumweights 1664
scalar PhysicalLinkVisualizerMobileShowcase.host7.udp packetReceived:vector(packetBytes):mean 108
scalar PhysicalLinkVisualizerMobileShowcase.host7.udp packetReceived:vector(packetBytes):stddev 0
scalar PhysicalLinkVisualizerMobileShowcase.host7.udp packetReceived:vector(packetBytes):min 108
scalar PhysicalLinkVisualizerMobileShowcase.host7.udp packetReceived:vector(packetBytes):max 108
scalar PhysicalLinkVisualizerMobileShowcase.host7.udp packetReceived:vector(packetBytes):starttime 0.000472816481
scalar PhysicalLinkVisualizerMobileShowcase.host7.udp packetReceived:vector(packetBytes):endtime 499.0050827245
scalar PhysicalLinkVisualizerMobileShowcase.host7.udp passedUpPk:vector(count):count 1665
scalar PhysicalLinkVisualizerMobileShowcase.host7.udp passedUpPk:vector(count):sum 1385280
scalar PhysicalLinkVisualizerMobileShowcase.host7.udp passedUpPk:vector(count):sumweights 1665
scalar PhysicalLinkVisualizerMobileShowcase.host7.udp passedUpPk:vector(count):mean 832
scalar PhysicalLinkVisualizerMobileShowcase.host7.udp passedUpPk:vector(count):stddev 480.78841500186
scalar PhysicalLinkVisualizerMobileShowcase.host7.udp passedUpPk:vector(count):min 0
scalar PhysicalLinkVisualizerMobileShowcase.host7.udp passedUpPk:vector(count):max 1664
scalar PhysicalLinkVisualizerMobileShowcase.host7.udp passedUpPk:vector(count):starttime 0
scalar PhysicalLinkVisualizerMobileShowcase.host7.udp passedUpPk:vector(count):endtime 499.0050827245
scalar PhysicalLinkVisualizerMobileShowcase.host7.udp droppedPkWrongPort:vector(count):count 1
scalar PhysicalLinkVisualizerMobileShowcase.host7.udp droppedPkWrongPort:vector(count):sum 0
scalar PhysicalLinkVisualizerMobileShowcase.host7.udp droppedPkWrongPort:vector(count):sumweights 1
scalar PhysicalLinkVisualizerMobileShowcase.host7.udp droppedPkWrongPort:vector(count):mean 0
scalar PhysicalLinkVisualizerMobileShowcase.host7.udp droppedPkWrongPort:vector(count):stddev nan
scalar PhysicalLinkVisualizerMobileShowcase.host7.udp droppedPkWrongPort:vector(count):min 0
scalar PhysicalLinkVisualizerMobileShowcase.host7.udp droppedPkWrongPort:vector(count):max 0
scalar PhysicalLinkVisualizerMobileShowcase.host7.udp droppedPkWrongPort:vector(count):starttime 0
scalar PhysicalLinkVisualizerMobileShowcase.host7.udp droppedPkWrongPort:vector(count):endtime 0
scalar PhysicalLinkVisualizerMobileShowcase.host7.udp droppedPkBadChecksum:vector(count):count 1
scalar PhysicalLinkVisualizerMobileShowcase.host7.udp droppedPkBadChecksum:vector(count):sum 0
scalar PhysicalLinkVisualizerMobileShowcase.host7.udp droppedPkBadChecksum:vector(count):sumweights 1
scalar PhysicalLinkVisualizerMobileShowcase.host7.udp droppedPkBadChecksum:vector(count):mean 0
scalar PhysicalLinkVisualizerMobileShowcase.host7.udp droppedPkBadChecksum:vector(count):stddev nan
scalar PhysicalLinkVisualizerMobileShowcase.host7.udp droppedPkBadChecksum:vector(count):min 0
scalar PhysicalLinkVisualizerMobileShowcase.host7.udp droppedPkBadChecksum:vector(count):max 0
scalar PhysicalLinkVisualizerMobileShowcase.host7.udp droppedPkBadChecksum:vector(count):starttime 0
scalar PhysicalLinkVisualizerMobileShowcase.host7.udp droppedPkBadChecksum:vector(count):endtime 0
scalar PhysicalLinkVisualizerMobileShowcase.host7.app[0] packetReceived:vector(packetBytes):count 0
scalar PhysicalLinkVisualizerMobileShowcase.host7.app[0] packetReceived:vector(packetBytes):sum 0
scalar PhysicalLinkVisualizerMobileShowcase.host7.app[0] packetReceived:vector(packetBytes):sumweights 0
scalar PhysicalLinkVisualizerMobileShowcase.host7.app[0] packetReceived:vector(packetBytes):mean -nan
scalar PhysicalLinkVisualizerMobileShowcase.host7.app[0] packetReceived:vector(packetBytes):stddev nan
scalar PhysicalLinkVisualizerMobileShowcase.host7.app[0] packetReceived:vector(packetBytes):min inf
scalar PhysicalLinkVisualizerMobileShowcase.host7.app[0] packetReceived:vector(packetBytes):max -inf
scalar PhysicalLinkVisualizerMobileShowcase.host7.app[0] packetReceived:vector(packetBytes):starttime nan
scalar PhysicalLinkVisualizerMobileShowcase.host7.app[0] packetReceived:vector(packetBytes):endtime nan
scalar PhysicalLinkVisualizerMobileShowcase.host7.app[0] throughput:vector:count 5000
scalar PhysicalLinkVisualizerMobileShowcase.host7.app[0] throughput:vector:sum 0
scalar PhysicalLinkVisualizerMobileShowcase.host7.app[0] throughput:vector:sumweights 5000
scalar PhysicalLinkVisualizerMobileShowcase.host7.app[0] throughput:vector:mean 0
scalar PhysicalLinkVisualizerMobileShowcase.host7.app[0] throughput:vector:stddev 0
scalar PhysicalLinkVisualizerMobileShowcase.host7.app[0] throughput:vector:min 0
scalar PhysicalLinkVisualizerMobileShowcase.host7.app[0] throughput:vector:max 0
scalar PhysicalLinkVisualizerMobileShowcase.host7.app[0] throughput:vector:starttime 0.1
scalar PhysicalLinkVisualizerMobileShowcase.host7.app[0] throughput:vector:endtime 500
scalar PhysicalLinkVisualizerMobileShowcase.host7.app[0] packetSent:vector(packetBytes):count 500
scalar PhysicalLinkVisualizerMobileShowcase.host7.app[0] packetSent:vector(packetBytes):sum 50000
scalar PhysicalLinkVisualizerMobileShowcase.host7.app[0] packetSent:vector(packetBytes):sumweights 500
scalar PhysicalLinkVisualizerMobileShowcase.host7.app[0] packetSent:vector(packetBytes):mean 100
scalar PhysicalLinkVisualizerMobileShowcase.host7.app[0] packetSent:vector(packetBytes):stddev 0
scalar PhysicalLinkVisualizerMobileShowcase.host7.app[0] packetSent:vector(packetBytes):min 100
scalar PhysicalLinkVisualizerMobileShowcase.host7.app[0] packetSent:vector(packetBytes):max 100
scalar PhysicalLinkVisualizerMobileShowcase.host7.app[0] packetSent:vector(packetBytes):starttime 0.006
scalar PhysicalLinkVisualizerMobileShowcase.host7.app[0] packetSent:vector(packetBytes):endtime 499.006
scalar PhysicalLinkVisualizerMobileShowcase.host7.app[0] rcvdPkLifetime:vector:count 0
scalar PhysicalLinkVisualizerMobileShowcase.host7.app[0] rcvdPkLifetime:vector:sum 0
scalar PhysicalLinkVisualizerMobileShowcase.host7.app[0] rcvdPkLifetime:vector:sumweights 0
scalar PhysicalLinkVisualizerMobileShowcase.host7.app[0] rcvdPkLifetime:vector:mean -nan
scalar PhysicalLinkVisualizerMobileShowcase.host7.app[0] rcvdPkLifetime:vector:stddev nan
scalar PhysicalLinkVisualizerMobileShowcase.host7.app[0] rcvdPkLifetime:vector:min inf
scalar PhysicalLinkVisualizerMobileShowcase.host7.app[0] rcvdPkLifetime:vector:max -inf
scalar PhysicalLinkVisualizerMobileShowcase.host7.app[0] rcvdPkLifetime:vector:starttime nan
scalar PhysicalLinkVisualizerMobileShowcase.host7.app[0] rcvdPkLifetime:vector:endtime nan
scalar PhysicalLinkVisualizerMobileShowcase.host7.app[0] rcvdPkSeqNo:vector:count 0
scalar PhysicalLinkVisualizerMobileShowcase.host7.app[0] rcvdPkSeqNo:vector:sum 0
scalar PhysicalLinkVisualizerMobileShowcase.host7.app[0] rcvdPkSeqNo:vector:sumweights 0
scalar PhysicalLinkVisualizerMobileShowcase.host7.app[0] rcvdPkSeqNo:vector:mean -nan
scalar PhysicalLinkVisualizerMobileShowcase.host7.app[0] rcvdPkSeqNo:vector:stddev nan
scalar PhysicalLinkVisualizerMobileShowcase.host7.app[0] rcvdPkSeqNo:vector:min inf
scalar PhysicalLinkVisualizerMobileShowcase.host7.app[0] rcvdPkSeqNo:vector:max -inf
scalar PhysicalLinkVisualizerMobileShowcase.host7.app[0] rcvdPkSeqNo:vector:starttime nan
scalar PhysicalLinkVisualizerMobileShowcase.host7.app[0] rcvdPkSeqNo:vector:endtime nan
scalar PhysicalLinkVisualizerMobileShowcase.host7.app[1] packetReceived:vector(packetBytes):count 1664
scalar PhysicalLinkVisualizerMobileShowcase.host7.app[1] packetReceived:vector(packetBytes):sum 166400
scalar PhysicalLinkVisualizerMobileShowcase.host7.app[1] packetReceived:vector(packetBytes):sumweights 1664
scalar PhysicalLinkVisualizerMobileShowcase.host7.app[1] packetReceived:vector(packetBytes):mean 100
scalar PhysicalLinkVisualizerMobileShowcase.host7.app[1] packetReceived:vector(packetBytes):stddev 0
scalar PhysicalLinkVisualizerMobileShowcase.host7.app[1] packetReceived:vector(packetBytes):min 100
scalar PhysicalLinkVisualizerMobileShowcase.host7.app[1] packetReceived:vector(packetBytes):max 100
scalar PhysicalLinkVisualizerMobileShowcase.host7.app[1] packetReceived:vector(packetBytes):starttime 0.000472816481
scalar PhysicalLinkVisualizerMobileShowcase.host7.app[1] packetReceived:vector(packetBytes):endtime 499.0050827245
scalar PhysicalLinkVisualizerMobileShowcase.host7.app[1] throughput:vector:count 5000
scalar PhysicalLinkVisualizerMobileShowcase.host7.app[1] throughput:vector:sum 13312000
scalar PhysicalLinkVisualizerMobileShowcase.host7.app[1] throughput:vector:sumweights 5000
scalar PhysicalLinkVisualizerMobileShowcase.host7.app[1] throughput:vector:mean 2662.4
scalar PhysicalLinkVisualizerMobileShowcase.host7.app[1] throughput:vector:stddev 9027.9525378352
scalar PhysicalLinkVisualizerMobileShowcase.host7.app[1] throughput:vector:min 0
scalar PhysicalLinkVisualizerMobileShowcase.host7.app[1] throughput:vector:max 48000
scalar PhysicalLinkVisualizerMobileShowcase.host7.app[1] throughput:vector:starttime 0.1
scalar PhysicalLinkVisualizerMobileShowcase.host7.app[1] throughput:vector:endtime 500
scalar PhysicalLinkVisualizerMobileShowcase.host7.app[1] endToEndDelay:vector:count 1664
scalar PhysicalLinkVisualizerMobileShowcase.host7.app[1] endToEndDelay:vector:sum 0.13783891779
scalar PhysicalLinkVisualizerMobileShowcase.host7.app[1] endToEndDelay:vector:sumweights 1664
scalar PhysicalLinkVisualizerMobileShowcase.host7.app[1] endToEndDelay:vector:mean 8.2835888094952e-05
scalar PhysicalLinkVisualizerMobileShowcase.host7.app[1] endToEndDelay:vector:stddev 9.8922496808773e-06
scalar PhysicalLinkVisualizerMobileShowcase.host7.app[1] endToEndDelay:vector:min 8.2008377e-05
scalar PhysicalLinkVisualizerMobileShowcase.host7.app[1] endToEndDelay:vector:max 0.000472816481
scalar PhysicalLinkVisualizerMobileShowcase.host7.app[1] endToEndDelay:vector:starttime 0.000472816481
scalar PhysicalLinkVisualizerMobileShowcase.host7.app[1] endToEndDelay:vector:endtime 499.0050827245
scalar PhysicalLinkVisualizerMobileShowcase.host7.app[1] rcvdPkSeqNo:vector:count 1664
scalar PhysicalLinkVisualizerMobileShowcase.host7.app[1] rcvdPkSeqNo:vector:sum 439655
scalar PhysicalLinkVisualizerMobileShowcase.host7.app[1] rcvdPkSeqNo:vector:sumweights 1664
scalar PhysicalLinkVisualizerMobileShowcase.host7.app[1] rcvdPkSeqNo:vector:mean 264.21574519231
scalar PhysicalLinkVisualizerMobileShowcase.host7.app[1] rcvdPkSeqNo:vector:stddev 129.40907265828
scalar PhysicalLinkVisualizerMobileShowcase.host7.app[1] rcvdPkSeqNo:vector:min 0
scalar PhysicalLinkVisualizerMobileShowcase.host7.app[1] rcvdPkSeqNo:vector:max 499
scalar PhysicalLinkVisualizerMobileShowcase.host7.app[1] rcvdPkSeqNo:vector:starttime 0.000472816481
scalar PhysicalLinkVisualizerMobileShowcase.host7.app[1] rcvdPkSeqNo:vector:endtime 499.0050827245

