version 3
run Filtering-0-20230426-16:26:57-213974
attr configname Filtering
attr datetime 20230426-16:26:57
attr datetimef 20230426-162657
attr description "Filtering Physical Link Activity"
attr experiment Filtering
attr inifile omnetpp.ini
attr iterationvars ""
attr iterationvarsd ""
attr iterationvarsf ""
attr measurement ""
attr network PhysicalLinkVisualizerFilteringShowcase
attr processid 213974
attr repetition 0
attr replication #0
attr resultdir results
attr runnumber 0
attr seedset 0
config **.param-recording false
config **.vector-recording false
config image-path /home/levy/workspace/inet/images
config output-scalar-file results/omnetpp.ini-Filtering-#0.sca
config sim-time-limit 250s
config sim-time-limit 250s
config description "Filtering Physical Link Activity"
config network PhysicalLinkVisualizerFilteringShowcase
config **.arp.typename GlobalArp
config *.source.numApps 1
config *.source.app[0].typename PingApp
config *.source.app[0].destAddr "\"destination\""
config **.wlan[*].radio.transmitter.power 2mW
config *.visualizer.*.physicalLinkVisualizer.displayLinks true
config *.visualizer.*.physicalLinkVisualizer.packetFilter "\"ping*\""
config *.visualizer.*.physicalLinkVisualizer.fadeOutTime 5s

scalar PhysicalLinkVisualizerFilteringShowcase.radioMedium.propagation "Arrival computation count" 13635
scalar PhysicalLinkVisualizerFilteringShowcase.radioMedium "transmission count" 4545
scalar PhysicalLinkVisualizerFilteringShowcase.radioMedium "signal send count" 13635
scalar PhysicalLinkVisualizerFilteringShowcase.radioMedium "reception computation count" 13635
scalar PhysicalLinkVisualizerFilteringShowcase.radioMedium "interference computation count" 45458
scalar PhysicalLinkVisualizerFilteringShowcase.radioMedium "reception decision computation count" 12103
scalar PhysicalLinkVisualizerFilteringShowcase.radioMedium "listening decision computation count" 19720
scalar PhysicalLinkVisualizerFilteringShowcase.radioMedium "reception cache hit" 84.991579434006
attr unit %
scalar PhysicalLinkVisualizerFilteringShowcase.radioMedium "interference cache hit" 66.666666666667
attr unit %
scalar PhysicalLinkVisualizerFilteringShowcase.radioMedium "noise cache hit" 0
attr unit %
scalar PhysicalLinkVisualizerFilteringShowcase.radioMedium "snir cache hit" 50
attr unit %
scalar PhysicalLinkVisualizerFilteringShowcase.radioMedium "reception decision cache hit" 50
attr unit %
scalar PhysicalLinkVisualizerFilteringShowcase.radioMedium "reception result cache hit" 0
attr unit %
scalar PhysicalLinkVisualizerFilteringShowcase.source.lo[0].lo rcvdPkFromHl:count 0
attr interpolationmode none
attr recordingmode count
attr source packetReceivedFromUpper
attr title "packets received from higher layer, count"
scalar PhysicalLinkVisualizerFilteringShowcase.source.lo[0].lo rcvdPkFromHl:sum(packetBytes) 0
attr interpolationmode none
attr recordingmode sum(packetBytes)
attr source packetReceivedFromUpper
attr title "packets received from higher layer, sum(packetBytes)"
scalar PhysicalLinkVisualizerFilteringShowcase.source.lo[0].lo passedUpPk:count 0
attr interpolationmode none
attr recordingmode count
attr source packetSentToUpper
attr title "packets passed to higher layer, count"
scalar PhysicalLinkVisualizerFilteringShowcase.source.lo[0].lo passedUpPk:sum(packetBytes) 0
attr interpolationmode none
attr recordingmode sum(packetBytes)
attr source packetSentToUpper
attr title "packets passed to higher layer, sum(packetBytes)"
scalar PhysicalLinkVisualizerFilteringShowcase.source.lo[0] packetDropInterfaceDown:count 0
attr interpolationmode none
attr recordingmode count
attr source packetDropReasonIsInterfaceDown(packetDropped)
attr title "packet drops: interface down, count"
scalar PhysicalLinkVisualizerFilteringShowcase.source.lo[0] packetDropInterfaceDown:sum(packetBytes) 0
attr interpolationmode none
attr recordingmode sum(packetBytes)
attr source packetDropReasonIsInterfaceDown(packetDropped)
attr title "packet drops: interface down, sum(packetBytes)"
scalar PhysicalLinkVisualizerFilteringShowcase.source.lo[0] packetDropNoCarrier:count 0
attr interpolationmode none
attr recordingmode count
attr source packetDropReasonIsNoCarrier(packetDropped)
attr title "packet drops: no carrier, count"
scalar PhysicalLinkVisualizerFilteringShowcase.source.lo[0] packetDropNoCarrier:sum(packetBytes) 0
attr interpolationmode none
attr recordingmode sum(packetBytes)
attr source packetDropReasonIsNoCarrier(packetDropped)
attr title "packet drops: no carrier, sum(packetBytes)"
scalar PhysicalLinkVisualizerFilteringShowcase.source.wlan[0].agent dropConfirm:count 0
attr recordingmode count
attr title "dropped confirms, count"
scalar PhysicalLinkVisualizerFilteringShowcase.source.wlan[0].agent acceptConfirm:count 3
attr recordingmode count
attr title "accepted confirms, count"
scalar PhysicalLinkVisualizerFilteringShowcase.source.wlan[0].agent sentRequest:count 3
attr recordingmode count
attr title "sent requests, count"
scalar PhysicalLinkVisualizerFilteringShowcase.source.wlan[0].mac.dcf.channelAccess.pendingQueue queueLength:last 0
attr autoWarmupFilter false
attr interpolationmode sample-hold
attr recordingmode last
attr source "warmup(atomic(constant0(packetPushEnded) + count(packetPushStarted) - count(packetPulled) - count(packetRemoved) - count(packetDropped)))"
attr title "queue length, last"
attr unit pk
scalar PhysicalLinkVisualizerFilteringShowcase.source.wlan[0].mac.dcf.channelAccess.pendingQueue queueLength:max 1
attr autoWarmupFilter false
attr interpolationmode sample-hold
attr recordingmode max
attr source "warmup(atomic(constant0(packetPushEnded) + count(packetPushStarted) - count(packetPulled) - count(packetRemoved) - count(packetDropped)))"
attr title "queue length, max"
attr unit pk
scalar PhysicalLinkVisualizerFilteringShowcase.source.wlan[0].mac.dcf.channelAccess.pendingQueue queueLength:timeavg 2.3537819106502e-06
attr autoWarmupFilter false
attr interpolationmode sample-hold
attr recordingmode timeavg
attr source "warmup(atomic(constant0(packetPushEnded) + count(packetPushStarted) - count(packetPulled) - count(packetRemoved) - count(packetDropped)))"
attr title "queue length, timeavg"
attr unit pk
scalar PhysicalLinkVisualizerFilteringShowcase.source.wlan[0].mac.dcf.channelAccess.pendingQueue queueBitLength:last 0
attr autoWarmupFilter false
attr interpolationmode sample-hold
attr recordingmode last
attr source "warmup(atomic(constant0(packetPushEnded) + sum(packetLength(packetPushStarted)) - sum(packetLength(packetPulled)) - sum(packetLength(packetRemoved)) - sum(packetLength(packetDropped))))"
attr title "queue bit length, last"
attr unit b
scalar PhysicalLinkVisualizerFilteringShowcase.source.wlan[0].mac.dcf.channelAccess.pendingQueue queueBitLength:max 960
attr autoWarmupFilter false
attr interpolationmode sample-hold
attr recordingmode max
attr source "warmup(atomic(constant0(packetPushEnded) + sum(packetLength(packetPushStarted)) - sum(packetLength(packetPulled)) - sum(packetLength(packetRemoved)) - sum(packetLength(packetDropped))))"
attr title "queue bit length, max"
attr unit b
scalar PhysicalLinkVisualizerFilteringShowcase.source.wlan[0].mac.dcf.channelAccess.pendingQueue queueBitLength:timeavg 0.00066546378371853
attr autoWarmupFilter false
attr interpolationmode sample-hold
attr recordingmode timeavg
attr source "warmup(atomic(constant0(packetPushEnded) + sum(packetLength(packetPushStarted)) - sum(packetLength(packetPulled)) - sum(packetLength(packetRemoved)) - sum(packetLength(packetDropped))))"
attr title "queue bit length, timeavg"
attr unit b
statistic PhysicalLinkVisualizerFilteringShowcase.source.wlan[0].mac.dcf.channelAccess.pendingQueue queueingTime:histogram
field count 254
field mean 2.3149606299213e-06
field stddev 2.7512900542173e-05
field min 0
field max 0.000394
field sum 0.000588
field sqrsum 1.92872e-07
attr interpolationmode none
attr recordingmode histogram
attr source queueingTime(packetPulled)
attr title "queueing times"
attr unit s
bin	-inf	0
bin	0	252
bin	1e-05	0
bin	2e-05	0
bin	3e-05	0
bin	4e-05	0
bin	5e-05	0
bin	6e-05	0
bin	7e-05	0
bin	8e-05	0
bin	9e-05	0
bin	0.0001	0
bin	0.00011	0
bin	0.00012	0
bin	0.00013	0
bin	0.00014	0
bin	0.00015	0
bin	0.00016	0
bin	0.00017	0
bin	0.00018	0
bin	0.00019	1
bin	0.0002	0
bin	0.00021	0
bin	0.00022	0
bin	0.00023	0
bin	0.00024	0
bin	0.00025	0
bin	0.00026	0
bin	0.00027	0
bin	0.00028	0
bin	0.00029	0
bin	0.0003	0
bin	0.00031	0
bin	0.00032	0
bin	0.00033	0
bin	0.00034	0
bin	0.00035	0
bin	0.00036	0
bin	0.00037	0
bin	0.00038	0
bin	0.00039	1
bin	0.0004	0
bin	0.00041	0
bin	0.00042	0
bin	0.00043	0
bin	0.00044	0
bin	0.00045	0
bin	0.00046	0
bin	0.00047	0
bin	0.00048	0
bin	0.00049	0
bin	0.0005	0
scalar PhysicalLinkVisualizerFilteringShowcase.source.wlan[0].mac.dcf.channelAccess.pendingQueue outgoingPackets:count 254
attr recordingmode count
attr source packetPulled
attr title "outgoing packets, count"
attr unit pk
scalar PhysicalLinkVisualizerFilteringShowcase.source.wlan[0].mac.dcf.channelAccess.pendingQueue outgoingPacketLengths:sum 241088
attr interpolationmode none
attr recordingmode sum
attr source packetLength(packetPulled)
attr title "outgoing packet lengths, sum"
attr unit b
statistic PhysicalLinkVisualizerFilteringShowcase.source.wlan[0].mac.dcf.channelAccess.pendingQueue outgoingPacketLengths:histogram
field count 254
field mean 949.16535433071
field stddev 85.836296419845
field min 256
field max 960
field sum 241088
field sqrsum 230696448
attr interpolationmode none
attr recordingmode histogram
attr source packetLength(packetPulled)
attr title "outgoing packet lengths"
attr unit b
bin	-inf	0
bin	80	0
bin	100	0
bin	120	0
bin	140	0
bin	160	0
bin	180	0
bin	200	0
bin	220	0
bin	240	1
bin	260	2
bin	280	1
bin	300	0
bin	320	0
bin	340	0
bin	360	0
bin	380	0
bin	400	0
bin	420	0
bin	440	0
bin	460	0
bin	480	0
bin	500	0
bin	520	0
bin	540	0
bin	560	0
bin	580	0
bin	600	0
bin	620	0
bin	640	0
bin	660	0
bin	680	0
bin	700	0
bin	720	0
bin	740	0
bin	760	0
bin	780	0
bin	800	0
bin	820	0
bin	840	0
bin	860	0
bin	880	0
bin	900	0
bin	920	0
bin	940	0
bin	960	250
bin	980	0
bin	1000	0
bin	1020	0
bin	1040	0
bin	1060	0
bin	1080	0
bin	1100	0
bin	1120	0
bin	1140	0
statistic PhysicalLinkVisualizerFilteringShowcase.source.wlan[0].mac.dcf.channelAccess.pendingQueue flowQueueingTime:histogram
field count 0
field mean -nan
field stddev nan
field min nan
field max nan
field sum 0
field sqrsum 0
attr interpolationmode none
attr recordingmode histogram
attr source queueingTime(demuxFlow(packetPulled))
attr title "flow queueing times"
attr unit s
bin	-inf	0
bin	0	0
bin	1	0
scalar PhysicalLinkVisualizerFilteringShowcase.source.wlan[0].mac.dcf.channelAccess.pendingQueue incomingPackets:count 254
attr recordingmode count
attr source packetPushStarted
attr title "incoming packets, count"
attr unit pk
scalar PhysicalLinkVisualizerFilteringShowcase.source.wlan[0].mac.dcf.channelAccess.pendingQueue incomingPacketLengths:sum 241088
attr interpolationmode none
attr recordingmode sum
attr source packetLength(packetPushStarted)
attr title "incoming packet lengths, sum"
attr unit b
statistic PhysicalLinkVisualizerFilteringShowcase.source.wlan[0].mac.dcf.channelAccess.pendingQueue incomingPacketLengths:histogram
field count 254
field mean 949.16535433071
field stddev 85.836296419845
field min 256
field max 960
field sum 241088
field sqrsum 230696448
attr interpolationmode none
attr recordingmode histogram
attr source packetLength(packetPushStarted)
attr title "incoming packet lengths"
attr unit b
bin	-inf	0
bin	80	0
bin	100	0
bin	120	0
bin	140	0
bin	160	0
bin	180	0
bin	200	0
bin	220	0
bin	240	1
bin	260	2
bin	280	1
bin	300	0
bin	320	0
bin	340	0
bin	360	0
bin	380	0
bin	400	0
bin	420	0
bin	440	0
bin	460	0
bin	480	0
bin	500	0
bin	520	0
bin	540	0
bin	560	0
bin	580	0
bin	600	0
bin	620	0
bin	640	0
bin	660	0
bin	680	0
bin	700	0
bin	720	0
bin	740	0
bin	760	0
bin	780	0
bin	800	0
bin	820	0
bin	840	0
bin	860	0
bin	880	0
bin	900	0
bin	920	0
bin	940	0
bin	960	250
bin	980	0
bin	1000	0
bin	1020	0
bin	1040	0
bin	1060	0
bin	1080	0
bin	1100	0
bin	1120	0
bin	1140	0
scalar PhysicalLinkVisualizerFilteringShowcase.source.wlan[0].mac.dcf.channelAccess.pendingQueue droppedPacketsQueueOverflow:count 0
attr interpolationmode none
attr recordingmode count
attr source packetDropReasonIsQueueOverflow(packetDropped)
attr title "dropped packets: queue overflow, count"
attr unit pk
scalar PhysicalLinkVisualizerFilteringShowcase.source.wlan[0].mac.dcf.channelAccess.pendingQueue droppedPacketLengthsQueueOverflow:sum 0
attr interpolationmode none
attr recordingmode sum
attr source packetLength(packetDropReasonIsQueueOverflow(packetDropped))
attr title "dropped packet lengths: queue overflow, sum"
attr unit b
statistic PhysicalLinkVisualizerFilteringShowcase.source.wlan[0].mac.dcf.channelAccess.inProgressFrames queueingTime:histogram
field count 254
field mean 0.00011460573074016
field stddev 5.6985346085245e-06
field min 3.8e-05
field max 0.000115240536
field sum 0.029109855608
field sqrsum 3.3443720177565e-06
attr interpolationmode none
attr recordingmode histogram
attr source queueingTime(packetDequeued)
attr title "queueing times"
bin	-inf	0
bin	1.8e-05	0
bin	2e-05	0
bin	2.2e-05	0
bin	2.4e-05	0
bin	2.6e-05	0
bin	2.8e-05	0
bin	3e-05	0
bin	3.2e-05	0
bin	3.4e-05	0
bin	3.6e-05	1
bin	3.8e-05	0
bin	4e-05	0
bin	4.2e-05	0
bin	4.4e-05	0
bin	4.6e-05	0
bin	4.8e-05	0
bin	5e-05	0
bin	5.2e-05	0
bin	5.4e-05	0
bin	5.6e-05	0
bin	5.8e-05	0
bin	6e-05	0
bin	6.2e-05	0
bin	6.4e-05	0
bin	6.6e-05	0
bin	6.8e-05	0
bin	7e-05	0
bin	7.2e-05	0
bin	7.4e-05	0
bin	7.6e-05	0
bin	7.8e-05	0
bin	8e-05	0
bin	8.2e-05	0
bin	8.4e-05	0
bin	8.6e-05	3
bin	8.8e-05	0
bin	9e-05	0
bin	9.2e-05	0
bin	9.4e-05	0
bin	9.6e-05	0
bin	9.8e-05	0
bin	0.0001	0
bin	0.000102	0
bin	0.000104	0
bin	0.000106	0
bin	0.000108	0
bin	0.00011	0
bin	0.000112	0
bin	0.000114	250
bin	0.000116	0
bin	0.000118	0
bin	0.00012	0
bin	0.000122	0
bin	0.000124	0
bin	0.000126	0
bin	0.000128	0
bin	0.00013	0
bin	0.000132	0
bin	0.000134	0
bin	0.000136	0
scalar PhysicalLinkVisualizerFilteringShowcase.source.wlan[0].mac.dcf.channelAccess.inProgressFrames queueLength:max 1
attr autoWarmupFilter false
attr interpolationmode sample-hold
attr recordingmode max
attr source "warmup(count(packetEnqueued) - count(packetDequeued))"
attr title "queue length, max"
scalar PhysicalLinkVisualizerFilteringShowcase.source.wlan[0].mac.dcf.channelAccess.inProgressFrames queueLength:timeavg 0.000116439422432
attr autoWarmupFilter false
attr interpolationmode sample-hold
attr recordingmode timeavg
attr source "warmup(count(packetEnqueued) - count(packetDequeued))"
attr title "queue length, timeavg"
scalar PhysicalLinkVisualizerFilteringShowcase.source.wlan[0].mac.dcf.channelAccess.contention channelAccessGranted:count 254
attr recordingmode count
attr title "channel access granted, count"
scalar PhysicalLinkVisualizerFilteringShowcase.source.wlan[0].mac.dcf.channelAccess.contention stateChanged:count 17170
attr enum IDLE,DEFER,IFS_AND_BACKOFF
attr interpolationmode none
attr recordingmode count
attr title "contention state changed, count"
attr type enum
scalar PhysicalLinkVisualizerFilteringShowcase.source.wlan[0].mac.dcf.channelAccess channelOwnershipChanged:count 508
attr interpolationmode sample-hold
attr recordingmode count
attr title "channel ownership, count"
scalar PhysicalLinkVisualizerFilteringShowcase.source.wlan[0].mac.dcf.originatorMacDataService packetAggregated:count 0
attr recordingmode count
attr title "packets aggregated, count"
scalar PhysicalLinkVisualizerFilteringShowcase.source.wlan[0].mac.dcf.originatorMacDataService packetFragmented:count 0
attr recordingmode count
attr title "packets fragmented, count"
scalar PhysicalLinkVisualizerFilteringShowcase.source.wlan[0].mac.dcf.recipientMacDataService packetDeaggregated:count 0
attr recordingmode count
attr title "packets deaggregated, count"
scalar PhysicalLinkVisualizerFilteringShowcase.source.wlan[0].mac.dcf.recipientMacDataService packetDefragmented:count 2755
attr recordingmode count
attr title "packets defragmented, count"
scalar PhysicalLinkVisualizerFilteringShowcase.source.wlan[0].mac.dcf.recipientMacDataService packetDropDuplicateDetected:count 0
attr interpolationmode none
attr recordingmode count
attr source packetDropReasonIsDuplicateDetected(packetDropped)
attr title "packet drops: duplicate detected, count"
scalar PhysicalLinkVisualizerFilteringShowcase.source.wlan[0].mac.dcf.recipientMacDataService packetDropDuplicateDetected:sum(packetBytes) 0
attr interpolationmode none
attr recordingmode sum(packetBytes)
attr source packetDropReasonIsDuplicateDetected(packetDropped)
attr title "packet drops: duplicate detected, sum(packetBytes)"
scalar PhysicalLinkVisualizerFilteringShowcase.source.wlan[0].mac.dcf.recoveryProcedure retryLimitReached:count 0
attr recordingmode count
attr title "retry limit reached, count"
scalar PhysicalLinkVisualizerFilteringShowcase.source.wlan[0].mac.dcf frameSequenceFinished:count 254
attr recordingmode count
attr title "finished frame sequences, count"
statistic PhysicalLinkVisualizerFilteringShowcase.source.wlan[0].mac.dcf frameSequenceDuration:histogram
field count 254
field mean 0.00011460573074016
field stddev 5.6985346085245e-06
field min 3.8e-05
field max 0.000115240536
field sum 0.029109855608
field sqrsum 3.3443720177565e-06
attr recordingmode histogram
attr source frameSequenceDuration(frameSequenceFinished)
attr title "frame sequence durations"
bin	-inf	0
bin	1.8e-05	0
bin	2e-05	0
bin	2.2e-05	0
bin	2.4e-05	0
bin	2.6e-05	0
bin	2.8e-05	0
bin	3e-05	0
bin	3.2e-05	0
bin	3.4e-05	0
bin	3.6e-05	1
bin	3.8e-05	0
bin	4e-05	0
bin	4.2e-05	0
bin	4.4e-05	0
bin	4.6e-05	0
bin	4.8e-05	0
bin	5e-05	0
bin	5.2e-05	0
bin	5.4e-05	0
bin	5.6e-05	0
bin	5.8e-05	0
bin	6e-05	0
bin	6.2e-05	0
bin	6.4e-05	0
bin	6.6e-05	0
bin	6.8e-05	0
bin	7e-05	0
bin	7.2e-05	0
bin	7.4e-05	0
bin	7.6e-05	0
bin	7.8e-05	0
bin	8e-05	0
bin	8.2e-05	0
bin	8.4e-05	0
bin	8.6e-05	3
bin	8.8e-05	0
bin	9e-05	0
bin	9.2e-05	0
bin	9.4e-05	0
bin	9.6e-05	0
bin	9.8e-05	0
bin	0.0001	0
bin	0.000102	0
bin	0.000104	0
bin	0.000106	0
bin	0.000108	0
bin	0.00011	0
bin	0.000112	0
bin	0.000114	250
bin	0.000116	0
bin	0.000118	0
bin	0.00012	0
bin	0.000122	0
bin	0.000124	0
bin	0.000126	0
bin	0.000128	0
bin	0.00013	0
bin	0.000132	0
bin	0.000134	0
bin	0.000136	0
statistic PhysicalLinkVisualizerFilteringShowcase.source.wlan[0].mac.dcf frameSequenceNumPackets:histogram
field count 254
field mean 1.996062992126
field stddev 0.062745580513816
field min 1
field max 2
field sum 507
field sqrsum 1013
attr recordingmode histogram
attr source frameSequenceNumPackets(frameSequenceFinished)
attr title "frame sequences: number of packets"
bin	-inf	0
bin	0	0
bin	1	1
bin	2	253
bin	3	0
scalar PhysicalLinkVisualizerFilteringShowcase.source.wlan[0].mac.dcf packetReceivedFromPeer:count 3008
attr interpolationmode none
attr recordingmode count
attr title "packets received, count"
scalar PhysicalLinkVisualizerFilteringShowcase.source.wlan[0].mac.dcf packetReceivedFromPeer:sum(packetBytes) 153726
attr interpolationmode none
attr recordingmode sum(packetBytes)
attr title "packets received, sum(packetBytes)"
scalar PhysicalLinkVisualizerFilteringShowcase.source.wlan[0].mac.dcf packetReceivedFromPeerUnicast:count 507
attr interpolationmode none
attr recordingmode count
attr source ieee80211Unicast(packetReceivedFromPeer)
attr title "packets received: unicast, count"
scalar PhysicalLinkVisualizerFilteringShowcase.source.wlan[0].mac.dcf packetReceivedFromPeerUnicast:sum(packetBytes) 33694
attr interpolationmode none
attr recordingmode sum(packetBytes)
attr source ieee80211Unicast(packetReceivedFromPeer)
attr title "packets received: unicast, sum(packetBytes)"
scalar PhysicalLinkVisualizerFilteringShowcase.source.wlan[0].mac.dcf packetReceivedFromPeerMulticast:count 2501
attr interpolationmode none
attr recordingmode count
attr source ieee80211Multicast(packetReceivedFromPeer)
attr title "packets received: multicast, count"
scalar PhysicalLinkVisualizerFilteringShowcase.source.wlan[0].mac.dcf packetReceivedFromPeerMulticast:sum(packetBytes) 120032
attr interpolationmode none
attr recordingmode sum(packetBytes)
attr source ieee80211Multicast(packetReceivedFromPeer)
attr title "packets received: multicast, sum(packetBytes)"
scalar PhysicalLinkVisualizerFilteringShowcase.source.wlan[0].mac.dcf packetReceivedFromPeerBroadcast:count 2501
attr interpolationmode none
attr recordingmode count
attr source ieee80211Broadcast(packetReceivedFromPeer)
attr title "packets received: broadcast, count"
scalar PhysicalLinkVisualizerFilteringShowcase.source.wlan[0].mac.dcf packetReceivedFromPeerBroadcast:sum(packetBytes) 120032
attr interpolationmode none
attr recordingmode sum(packetBytes)
attr source ieee80211Broadcast(packetReceivedFromPeer)
attr title "packets received: broadcast, sum(packetBytes)"
scalar PhysicalLinkVisualizerFilteringShowcase.source.wlan[0].mac.dcf packetReceivedFromPeerWithRetry:count 0
attr interpolationmode none
attr recordingmode count
attr source ieee80211Retry(packetReceivedFromPeer)
attr title "packets received: with retry, count"
scalar PhysicalLinkVisualizerFilteringShowcase.source.wlan[0].mac.dcf packetReceivedFromPeerWithRetry:sum(packetBytes) 0
attr interpolationmode none
attr recordingmode sum(packetBytes)
attr source ieee80211Retry(packetReceivedFromPeer)
attr title "packets received: with retry, sum(packetBytes)"
scalar PhysicalLinkVisualizerFilteringShowcase.source.wlan[0].mac.dcf packetReceivedFromPeerWithoutRetry:count 3008
attr interpolationmode none
attr recordingmode count
attr source ieee80211NotRetry(packetReceivedFromPeer)
attr title "packets received: without retry, count"
scalar PhysicalLinkVisualizerFilteringShowcase.source.wlan[0].mac.dcf packetReceivedFromPeerWithoutRetry:sum(packetBytes) 153726
attr interpolationmode none
attr recordingmode sum(packetBytes)
attr source ieee80211NotRetry(packetReceivedFromPeer)
attr title "packets received: without retry, sum(packetBytes)"
scalar PhysicalLinkVisualizerFilteringShowcase.source.wlan[0].mac.dcf packetSentToPeer:count 508
attr interpolationmode none
attr recordingmode count
attr title "packets sent, count"
scalar PhysicalLinkVisualizerFilteringShowcase.source.wlan[0].mac.dcf packetSentToPeer:sum(packetBytes) 33692
attr interpolationmode none
attr recordingmode sum(packetBytes)
attr title "packets sent, sum(packetBytes)"
scalar PhysicalLinkVisualizerFilteringShowcase.source.wlan[0].mac.dcf packetSentToPeerUnicast:count 507
attr interpolationmode none
attr recordingmode count
attr source ieee80211Unicast(packetSentToPeer)
attr title "packets sent: unicast, count"
scalar PhysicalLinkVisualizerFilteringShowcase.source.wlan[0].mac.dcf packetSentToPeerUnicast:sum(packetBytes) 33660
attr interpolationmode none
attr recordingmode sum(packetBytes)
attr source ieee80211Unicast(packetSentToPeer)
attr title "packets sent: unicast, sum(packetBytes)"
scalar PhysicalLinkVisualizerFilteringShowcase.source.wlan[0].mac.dcf packetSentToPeerMulticast:count 1
attr interpolationmode none
attr recordingmode count
attr source ieee80211Multicast(packetSentToPeer)
attr title "packets sent: multicast, count"
scalar PhysicalLinkVisualizerFilteringShowcase.source.wlan[0].mac.dcf packetSentToPeerMulticast:sum(packetBytes) 32
attr interpolationmode none
attr recordingmode sum(packetBytes)
attr source ieee80211Multicast(packetSentToPeer)
attr title "packets sent: multicast, sum(packetBytes)"
scalar PhysicalLinkVisualizerFilteringShowcase.source.wlan[0].mac.dcf packetSentToPeerBroadcast:count 1
attr interpolationmode none
attr recordingmode count
attr source ieee80211Broadcast(packetSentToPeer)
attr title "packets sent: broadcast , count"
scalar PhysicalLinkVisualizerFilteringShowcase.source.wlan[0].mac.dcf packetSentToPeerBroadcast:sum(packetBytes) 32
attr interpolationmode none
attr recordingmode sum(packetBytes)
attr source ieee80211Broadcast(packetSentToPeer)
attr title "packets sent: broadcast , sum(packetBytes)"
scalar PhysicalLinkVisualizerFilteringShowcase.source.wlan[0].mac.dcf packetSentToPeerWithRetry:count 0
attr interpolationmode none
attr recordingmode count
attr source ieee80211Retry(packetSentToPeer)
attr title "packets sent: with retry, count"
scalar PhysicalLinkVisualizerFilteringShowcase.source.wlan[0].mac.dcf packetSentToPeerWithRetry:sum(packetBytes) 0
attr interpolationmode none
attr recordingmode sum(packetBytes)
attr source ieee80211Retry(packetSentToPeer)
attr title "packets sent: with retry, sum(packetBytes)"
scalar PhysicalLinkVisualizerFilteringShowcase.source.wlan[0].mac.dcf packetSentToPeerWithoutRetry:count 508
attr interpolationmode none
attr recordingmode count
attr source ieee80211NotRetry(packetSentToPeer)
attr title "packets sent: without retry, count"
scalar PhysicalLinkVisualizerFilteringShowcase.source.wlan[0].mac.dcf packetSentToPeerWithoutRetry:sum(packetBytes) 33692
attr interpolationmode none
attr recordingmode sum(packetBytes)
attr source ieee80211NotRetry(packetSentToPeer)
attr title "packets sent: without retry, sum(packetBytes)"
scalar PhysicalLinkVisualizerFilteringShowcase.source.wlan[0].mac.dcf packetDrop:count 521
attr interpolationmode none
attr recordingmode count
attr source packetDropped
attr title "packet drops, count"
scalar PhysicalLinkVisualizerFilteringShowcase.source.wlan[0].mac.dcf packetDrop:sum(packetBytes) 34048
attr interpolationmode none
attr recordingmode sum(packetBytes)
attr source packetDropped
attr title "packet drops, sum(packetBytes)"
scalar PhysicalLinkVisualizerFilteringShowcase.source.wlan[0].mac.dcf packetDropNotAddressedToUs:count 521
attr interpolationmode none
attr recordingmode count
attr source packetDropReasonIsNotAddressedToUs(packetDropped)
attr title "packet drops: not addressed to us, count"
scalar PhysicalLinkVisualizerFilteringShowcase.source.wlan[0].mac.dcf packetDropNotAddressedToUs:sum(packetBytes) 34048
attr interpolationmode none
attr recordingmode sum(packetBytes)
attr source packetDropReasonIsNotAddressedToUs(packetDropped)
attr title "packet drops: not addressed to us, sum(packetBytes)"
scalar PhysicalLinkVisualizerFilteringShowcase.source.wlan[0].mac.dcf packetDropQueueOverflow:count 0
attr interpolationmode none
attr recordingmode count
attr source packetDropReasonIsQueueOverflow(packetDropped)
attr title "packet drops: queue overflow, count"
scalar PhysicalLinkVisualizerFilteringShowcase.source.wlan[0].mac.dcf packetDropQueueOverflow:sum(packetBytes) 0
attr interpolationmode none
attr recordingmode sum(packetBytes)
attr source packetDropReasonIsQueueOverflow(packetDropped)
attr title "packet drops: queue overflow, sum(packetBytes)"
scalar PhysicalLinkVisualizerFilteringShowcase.source.wlan[0].mac.dcf packetDropRetryLimitReached:count 0
attr interpolationmode none
attr recordingmode count
attr source packetDropReasonIsRetryLimitReached(packetDropped)
attr title "packet drops: retry limit reached, count"
scalar PhysicalLinkVisualizerFilteringShowcase.source.wlan[0].mac.dcf packetDropRetryLimitReached:sum(packetBytes) 0
attr interpolationmode none
attr recordingmode sum(packetBytes)
attr source packetDropReasonIsRetryLimitReached(packetDropped)
attr title "packet drops: retry limit reached, sum(packetBytes)"
scalar PhysicalLinkVisualizerFilteringShowcase.source.wlan[0].mac.dcf linkBroken:count 0
attr interpolationmode none
attr recordingmode count
attr title "link breaks, count"
scalar PhysicalLinkVisualizerFilteringShowcase.source.wlan[0].mac packetReceivedFromLower:count 3529
attr interpolationmode none
attr recordingmode count
attr title "packets received from lower layer, count"
scalar PhysicalLinkVisualizerFilteringShowcase.source.wlan[0].mac packetReceivedFromLower:sum(packetBytes) 187774
attr interpolationmode none
attr recordingmode sum(packetBytes)
attr title "packets received from lower layer, sum(packetBytes)"
scalar PhysicalLinkVisualizerFilteringShowcase.source.wlan[0].mac packetSentToLower:count 508
attr interpolationmode none
attr recordingmode count
attr title "packets sent to lower layer, count"
scalar PhysicalLinkVisualizerFilteringShowcase.source.wlan[0].mac packetSentToLower:sum(packetBytes) 33692
attr interpolationmode none
attr recordingmode sum(packetBytes)
attr title "packets sent to lower layer, sum(packetBytes)"
scalar PhysicalLinkVisualizerFilteringShowcase.source.wlan[0].mac packetReceivedFromUpper:count 250
attr interpolationmode none
attr recordingmode count
attr title "packets received from upper layer, count"
scalar PhysicalLinkVisualizerFilteringShowcase.source.wlan[0].mac packetReceivedFromUpper:sum(packetBytes) 23000
attr interpolationmode none
attr recordingmode sum(packetBytes)
attr title "packets received from upper layer, sum(packetBytes)"
scalar PhysicalLinkVisualizerFilteringShowcase.source.wlan[0].mac packetSentToUpper:count 250
attr interpolationmode none
attr recordingmode count
attr title "packets sent to upper layer, count"
scalar PhysicalLinkVisualizerFilteringShowcase.source.wlan[0].mac packetSentToUpper:sum(packetBytes) 23000
attr interpolationmode none
attr recordingmode sum(packetBytes)
attr title "packets sent to upper layer, sum(packetBytes)"
scalar PhysicalLinkVisualizerFilteringShowcase.source.wlan[0].mac packetDrop:count 521
attr interpolationmode none
attr recordingmode count
attr source packetDropped
attr title "packet drops, count"
scalar PhysicalLinkVisualizerFilteringShowcase.source.wlan[0].mac packetDrop:sum(packetBytes) 34048
attr interpolationmode none
attr recordingmode sum(packetBytes)
attr source packetDropped
attr title "packet drops, sum(packetBytes)"
scalar PhysicalLinkVisualizerFilteringShowcase.source.wlan[0].mac packetDropIncorrectlyReceived:count 0
attr interpolationmode none
attr recordingmode count
attr source packetDropReasonIsIncorrectlyReceived(packetDropped)
attr title "packet drops: incorrectly received, count"
scalar PhysicalLinkVisualizerFilteringShowcase.source.wlan[0].mac packetDropIncorrectlyReceived:sum(packetBytes) 0
attr interpolationmode none
attr recordingmode sum(packetBytes)
attr source packetDropReasonIsIncorrectlyReceived(packetDropped)
attr title "packet drops: incorrectly received, sum(packetBytes)"
scalar PhysicalLinkVisualizerFilteringShowcase.source.wlan[0].mac packetDropNotAddressedToUs:count 521
attr interpolationmode none
attr recordingmode count
attr source packetDropReasonIsNotAddressedToUs(packetDropped)
attr title "packet drops: not addressed to us, count"
scalar PhysicalLinkVisualizerFilteringShowcase.source.wlan[0].mac packetDropNotAddressedToUs:sum(packetBytes) 34048
attr interpolationmode none
attr recordingmode sum(packetBytes)
attr source packetDropReasonIsNotAddressedToUs(packetDropped)
attr title "packet drops: not addressed to us, sum(packetBytes)"
scalar PhysicalLinkVisualizerFilteringShowcase.source.wlan[0].mac packetDropQueueOverflow:count 0
attr interpolationmode none
attr recordingmode count
attr source packetDropReasonIsQueueOverflow(packetDropped)
attr title "packet drops: queue overflow, count"
scalar PhysicalLinkVisualizerFilteringShowcase.source.wlan[0].mac packetDropQueueOverflow:sum(packetBytes) 0
attr interpolationmode none
attr recordingmode sum(packetBytes)
attr source packetDropReasonIsQueueOverflow(packetDropped)
attr title "packet drops: queue overflow, sum(packetBytes)"
scalar PhysicalLinkVisualizerFilteringShowcase.source.wlan[0].mac packetDropRetryLimitReached:count 0
attr interpolationmode none
attr recordingmode count
attr source packetDropReasonIsRetryLimitReached(packetDropped)
attr title "packet drops: retry limit reached, count"
scalar PhysicalLinkVisualizerFilteringShowcase.source.wlan[0].mac packetDropRetryLimitReached:sum(packetBytes) 0
attr interpolationmode none
attr recordingmode sum(packetBytes)
attr source packetDropReasonIsRetryLimitReached(packetDropped)
attr title "packet drops: retry limit reached, sum(packetBytes)"
scalar PhysicalLinkVisualizerFilteringShowcase.source.wlan[0].mac packetDropDuplicateDetected:count 0
attr interpolationmode none
attr recordingmode count
attr source packetDropReasonIsDuplicateDetected(packetDropped)
attr title "packet drops: duplicate detected, count"
scalar PhysicalLinkVisualizerFilteringShowcase.source.wlan[0].mac packetDropDuplicateDetected:sum(packetBytes) 0
attr interpolationmode none
attr recordingmode sum(packetBytes)
attr source packetDropReasonIsDuplicateDetected(packetDropped)
attr title "packet drops: duplicate detected, sum(packetBytes)"
scalar PhysicalLinkVisualizerFilteringShowcase.source.wlan[0].mac packetDropOther:count 0
attr interpolationmode none
attr recordingmode count
attr source packetDropReasonIsOther(packetDropped)
attr title "packet drops: other, count"
scalar PhysicalLinkVisualizerFilteringShowcase.source.wlan[0].mac packetDropOther:sum(packetBytes) 0
attr interpolationmode none
attr recordingmode sum(packetBytes)
attr source packetDropReasonIsOther(packetDropped)
attr title "packet drops: other, sum(packetBytes)"
scalar PhysicalLinkVisualizerFilteringShowcase.source.wlan[0].mac linkBroken:count 0
attr interpolationmode none
attr recordingmode count
attr title "link breaks, count"
statistic PhysicalLinkVisualizerFilteringShowcase.source.wlan[0].radio radioChannel:histogram
field count 4
field mean 0
field stddev 0
field min 0
field max 0
field sum 0
field sqrsum 0
attr interpolationmode sample-hold
attr recordingmode histogram
attr source radioChannelChanged
attr title "Radio channel"
bin	-inf	0
bin	-0.5	0
bin	-0.48	0
bin	-0.46	0
bin	-0.44	0
bin	-0.42	0
bin	-0.4	0
bin	-0.38	0
bin	-0.36	0
bin	-0.34	0
bin	-0.32	0
bin	-0.3	0
bin	-0.28	0
bin	-0.26	0
bin	-0.24	0
bin	-0.22	0
bin	-0.2	0
bin	-0.18	0
bin	-0.16	0
bin	-0.14	0
bin	-0.12	0
bin	-0.1	0
bin	-0.08	0
bin	-0.06	0
bin	-0.04	0
bin	-0.02	0
bin	0	4
bin	0.02	0
bin	0.04	0
bin	0.06	0
bin	0.08	0
bin	0.1	0
bin	0.12	0
bin	0.14	0
bin	0.16	0
bin	0.18	0
bin	0.2	0
bin	0.22	0
bin	0.24	0
bin	0.26	0
bin	0.28	0
bin	0.3	0
bin	0.32	0
bin	0.34	0
bin	0.36	0
bin	0.38	0
bin	0.4	0
bin	0.42	0
bin	0.44	0
bin	0.46	0
bin	0.48	0
bin	0.5	0
scalar PhysicalLinkVisualizerFilteringShowcase.source.wlan[0].radio radioMode:count 1019
attr interpolationmode sample-hold
attr recordingmode count
attr source radioModeChanged
attr title "Radio mode, count"
scalar PhysicalLinkVisualizerFilteringShowcase.source.wlan[0].radio receptionState:count 8075
attr interpolationmode sample-hold
attr recordingmode count
attr source receptionStateChanged
attr title "Radio reception state, count"
scalar PhysicalLinkVisualizerFilteringShowcase.source.wlan[0].radio transmissionState:count 2032
attr interpolationmode sample-hold
attr recordingmode count
attr source transmissionStateChanged
attr title "Radio transmission state, count"
statistic PhysicalLinkVisualizerFilteringShowcase.source.wlan[0].radio minSnir:histogram
field count 3529
field mean 567.44653912252
field stddev 33.611522119715
field min 565.84462724966
field max 1272.4880021487
field sum 2002518.8365634
field sqrsum 1140308086.3665
attr recordingmode histogram
attr source minimumSnir(packetSentToUpper)
attr title "Min SNIR"
bin	-inf	0
bin	380	0
bin	400	0
bin	420	0
bin	440	0
bin	460	0
bin	480	0
bin	500	0
bin	520	0
bin	540	0
bin	560	3521
bin	580	0
bin	600	0
bin	620	0
bin	640	0
bin	660	0
bin	680	0
bin	700	0
bin	720	0
bin	740	0
bin	760	0
bin	780	0
bin	800	0
bin	820	0
bin	840	0
bin	860	0
bin	880	0
bin	900	0
bin	920	0
bin	940	0
bin	960	0
bin	980	0
bin	1000	0
bin	1020	0
bin	1040	0
bin	1060	0
bin	1080	0
bin	1100	0
bin	1120	0
bin	1140	0
bin	1160	0
bin	1180	0
bin	1200	0
bin	1220	0
bin	1240	0
bin	1260	8
bin	1280	0
bin	1300	0
bin	1320	0
bin	1340	0
bin	1360	0
bin	1380	0
bin	1400	0
bin	1420	0
bin	1440	0
bin	1460	0
statistic PhysicalLinkVisualizerFilteringShowcase.source.wlan[0].radio packetErrorRate:histogram
field count 3529
field mean 0
field stddev 0
field min 0
field max 0
field sum 0
field sqrsum 0
attr recordingmode histogram
attr source packetErrorRate(packetSentToUpper)
attr title "Packet error rate"
bin	-inf	0
bin	-0.5	0
bin	-0.48	0
bin	-0.46	0
bin	-0.44	0
bin	-0.42	0
bin	-0.4	0
bin	-0.38	0
bin	-0.36	0
bin	-0.34	0
bin	-0.32	0
bin	-0.3	0
bin	-0.28	0
bin	-0.26	0
bin	-0.24	0
bin	-0.22	0
bin	-0.2	0
bin	-0.18	0
bin	-0.16	0
bin	-0.14	0
bin	-0.12	0
bin	-0.1	0
bin	-0.08	0
bin	-0.06	0
bin	-0.04	0
bin	-0.02	0
bin	0	3529
bin	0.02	0
bin	0.04	0
bin	0.06	0
bin	0.08	0
bin	0.1	0
bin	0.12	0
bin	0.14	0
bin	0.16	0
bin	0.18	0
bin	0.2	0
bin	0.22	0
bin	0.24	0
bin	0.26	0
bin	0.28	0
bin	0.3	0
bin	0.32	0
bin	0.34	0
bin	0.36	0
bin	0.38	0
bin	0.4	0
bin	0.42	0
bin	0.44	0
bin	0.46	0
bin	0.48	0
bin	0.5	0
statistic PhysicalLinkVisualizerFilteringShowcase.source.wlan[0].radio bitErrorRate:histogram
field count 0
field mean -nan
field stddev nan
field min nan
field max nan
field sum 0
field sqrsum 0
attr recordingmode histogram
attr source bitErrorRate(packetSentToUpper)
attr title "Bit error rate"
bin	-inf	0
bin	0	0
bin	1	0
statistic PhysicalLinkVisualizerFilteringShowcase.source.wlan[0].radio symbolErrorRate:histogram
field count 0
field mean -nan
field stddev nan
field min nan
field max nan
field sum 0
field sqrsum 0
attr recordingmode histogram
attr source symbolErrorRate(packetSentToUpper)
attr title "Symbol error rate"
bin	-inf	0
bin	0	0
bin	1	0
scalar PhysicalLinkVisualizerFilteringShowcase.source.wlan[0] packetDropInterfaceDown:count 0
attr interpolationmode none
attr recordingmode count
attr source packetDropReasonIsInterfaceDown(packetDropped)
attr title "packet drops: interface down, count"
scalar PhysicalLinkVisualizerFilteringShowcase.source.wlan[0] packetDropInterfaceDown:sum(packetBytes) 0
attr interpolationmode none
attr recordingmode sum(packetBytes)
attr source packetDropReasonIsInterfaceDown(packetDropped)
attr title "packet drops: interface down, sum(packetBytes)"
scalar PhysicalLinkVisualizerFilteringShowcase.source.wlan[0] packetDropNoCarrier:count 0
attr interpolationmode none
attr recordingmode count
attr source packetDropReasonIsNoCarrier(packetDropped)
attr title "packet drops: no carrier, count"
scalar PhysicalLinkVisualizerFilteringShowcase.source.wlan[0] packetDropNoCarrier:sum(packetBytes) 0
attr interpolationmode none
attr recordingmode sum(packetBytes)
attr source packetDropReasonIsNoCarrier(packetDropped)
attr title "packet drops: no carrier, sum(packetBytes)"
scalar PhysicalLinkVisualizerFilteringShowcase.source.ipv4.ip packetDropAddressResolutionFailed:count 0
attr interpolationmode none
attr recordingmode count
attr source packetDropReasonIsAddressResolutionFailed(packetDropped)
attr title "packet drop: address resolution failed, count"
scalar PhysicalLinkVisualizerFilteringShowcase.source.ipv4.ip packetDropAddressResolutionFailed:sum(packetBytes) 0
attr interpolationmode none
attr recordingmode sum(packetBytes)
attr source packetDropReasonIsAddressResolutionFailed(packetDropped)
attr title "packet drop: address resolution failed, sum(packetBytes)"
scalar PhysicalLinkVisualizerFilteringShowcase.source.ipv4.ip packetDropHopLimitReached:count 0
attr interpolationmode none
attr recordingmode count
attr source packetDropReasonIsHopLimitReached(packetDropped)
attr title "packet drop: hop limit reached, count"
scalar PhysicalLinkVisualizerFilteringShowcase.source.ipv4.ip packetDropHopLimitReached:sum(packetBytes) 0
attr interpolationmode none
attr recordingmode sum(packetBytes)
attr source packetDropReasonIsHopLimitReached(packetDropped)
attr title "packet drop: hop limit reached, sum(packetBytes)"
scalar PhysicalLinkVisualizerFilteringShowcase.source.ipv4.ip packetDropForwardingDisabled:count 0
attr interpolationmode none
attr recordingmode count
attr source packetDropReasonIsForwardingDisabled(packetDropped)
attr title "packet drop: forwarding disabled, count"
scalar PhysicalLinkVisualizerFilteringShowcase.source.ipv4.ip packetDropForwardingDisabled:sum(packetBytes) 0
attr interpolationmode none
attr recordingmode sum(packetBytes)
attr source packetDropReasonIsForwardingDisabled(packetDropped)
attr title "packet drop: forwarding disabled, sum(packetBytes)"
scalar PhysicalLinkVisualizerFilteringShowcase.source.ipv4.ip packetDropNoInterfaceFound:count 0
attr interpolationmode none
attr recordingmode count
attr source packetDropReasonIsNoInterfaceFound(packetDropped)
attr title "packet drop: no interface found, count"
scalar PhysicalLinkVisualizerFilteringShowcase.source.ipv4.ip packetDropNoInterfaceFound:sum(packetBytes) 0
attr interpolationmode none
attr recordingmode sum(packetBytes)
attr source packetDropReasonIsNoInterfaceFound(packetDropped)
attr title "packet drop: no interface found, sum(packetBytes)"
scalar PhysicalLinkVisualizerFilteringShowcase.source.ipv4.ip packetDropNoRouteFound:count 0
attr interpolationmode none
attr recordingmode count
attr source packetDropReasonIsNoRouteFound(packetDropped)
attr title "packet drop: no route found, count"
scalar PhysicalLinkVisualizerFilteringShowcase.source.ipv4.ip packetDropNoRouteFound:sum(packetBytes) 0
attr interpolationmode none
attr recordingmode sum(packetBytes)
attr source packetDropReasonIsNoRouteFound(packetDropped)
attr title "packet drop: no route found, sum(packetBytes)"
scalar PhysicalLinkVisualizerFilteringShowcase.source.ipv4.ip packetDropUndefined:count 0
attr interpolationmode none
attr recordingmode count
attr source packetDropReasonIsUndefined(packetDropped)
attr title "packet drop: undefined, count"
scalar PhysicalLinkVisualizerFilteringShowcase.source.ipv4.ip packetDropUndefined:sum(packetBytes) 0
attr interpolationmode none
attr recordingmode sum(packetBytes)
attr source packetDropReasonIsUndefined(packetDropped)
attr title "packet drop: undefined, sum(packetBytes)"
scalar PhysicalLinkVisualizerFilteringShowcase.source.udp packetReceived:count 0
attr interpolationmode none
attr recordingmode count
attr source packetReceived
attr title "packets received, count"
scalar PhysicalLinkVisualizerFilteringShowcase.source.udp packetReceived:sum(packetBytes) 0
attr interpolationmode none
attr recordingmode sum(packetBytes)
attr source packetReceived
attr title "packets received, sum(packetBytes)"
scalar PhysicalLinkVisualizerFilteringShowcase.source.udp packetSent:count 0
attr interpolationmode none
attr recordingmode count
attr source packetSent
attr title "packets sent, count"
scalar PhysicalLinkVisualizerFilteringShowcase.source.udp packetSent:sum(packetBytes) 0
attr interpolationmode none
attr recordingmode sum(packetBytes)
attr source packetSent
attr title "packets sent, sum(packetBytes)"
scalar PhysicalLinkVisualizerFilteringShowcase.source.udp passedUpPk:count 0
attr interpolationmode none
attr recordingmode count
attr source packetSentToUpper
attr title "packets passed up, count"
scalar PhysicalLinkVisualizerFilteringShowcase.source.udp droppedPkWrongPort:count 0
attr interpolationmode none
attr recordingmode count
attr source packetDropReasonIsNoPortFound(packetDropped)
attr title "packets dropped (wrong port), count"
scalar PhysicalLinkVisualizerFilteringShowcase.source.udp droppedPkBadChecksum:count 0
attr interpolationmode none
attr recordingmode count
attr source packetDropReasonIsIncorrectlyReceived(packetDropped)
attr title "packets dropped (checksum error), count"
scalar PhysicalLinkVisualizerFilteringShowcase.source.app[0] "Pings sent" 250
scalar PhysicalLinkVisualizerFilteringShowcase.source.app[0] "ping loss rate (%)" 0
scalar PhysicalLinkVisualizerFilteringShowcase.source.app[0] "ping out-of-order rate (%)" 0
scalar PhysicalLinkVisualizerFilteringShowcase.source.app[0] pingRxSeq:count 250
attr interpolationmode none
attr recordingmode count
attr title "ping rx seq, count"
scalar PhysicalLinkVisualizerFilteringShowcase.source.app[0] pingTxSeq:count 250
attr interpolationmode none
attr recordingmode count
attr title "ping tx seq, count"
scalar PhysicalLinkVisualizerFilteringShowcase.source.app[0] numOutOfOrderArrivals:last nan
attr interpolationmode none
attr recordingmode last
attr title "ping out-of-order arrivals, last"
scalar PhysicalLinkVisualizerFilteringShowcase.source.app[0] numLost:last nan
attr interpolationmode none
attr recordingmode last
attr title "pings lost, last"
statistic PhysicalLinkVisualizerFilteringShowcase.source.app[0] rtt:histogram
field count 250
field mean 0.001509714822
field stddev 0.00034855897497575
field min 0.000744594822
field max 0.002384594822
field sum 0.3774287055
field sqrsum 0.00060006155734162
attr interpolationmode none
attr recordingmode histogram
attr title "ping round-trip time"
attr unit s
bin	-inf	0
bin	0.00035	0
bin	0.0004	0
bin	0.00045	0
bin	0.0005	0
bin	0.00055	0
bin	0.0006	0
bin	0.00065	0
bin	0.0007	2
bin	0.00075	2
bin	0.0008	3
bin	0.00085	4
bin	0.0009	2
bin	0.00095	3
bin	0.001	7
bin	0.00105	8
bin	0.0011	7
bin	0.00115	7
bin	0.0012	20
bin	0.00125	9
bin	0.0013	12
bin	0.00135	9
bin	0.0014	15
bin	0.00145	14
bin	0.0015	15
bin	0.00155	14
bin	0.0016	14
bin	0.00165	10
bin	0.0017	12
bin	0.00175	7
bin	0.0018	8
bin	0.00185	7
bin	0.0019	9
bin	0.00195	1
bin	0.002	10
bin	0.00205	6
bin	0.0021	7
bin	0.00215	3
bin	0.0022	1
bin	0.00225	1
bin	0.0023	0
bin	0.00235	1
bin	0.0024	0
bin	0.00245	0
bin	0.0025	0
bin	0.00255	0
scalar PhysicalLinkVisualizerFilteringShowcase.destination.lo[0].lo rcvdPkFromHl:count 0
attr interpolationmode none
attr recordingmode count
attr source packetReceivedFromUpper
attr title "packets received from higher layer, count"
scalar PhysicalLinkVisualizerFilteringShowcase.destination.lo[0].lo rcvdPkFromHl:sum(packetBytes) 0
attr interpolationmode none
attr recordingmode sum(packetBytes)
attr source packetReceivedFromUpper
attr title "packets received from higher layer, sum(packetBytes)"
scalar PhysicalLinkVisualizerFilteringShowcase.destination.lo[0].lo passedUpPk:count 0
attr interpolationmode none
attr recordingmode count
attr source packetSentToUpper
attr title "packets passed to higher layer, count"
scalar PhysicalLinkVisualizerFilteringShowcase.destination.lo[0].lo passedUpPk:sum(packetBytes) 0
attr interpolationmode none
attr recordingmode sum(packetBytes)
attr source packetSentToUpper
attr title "packets passed to higher layer, sum(packetBytes)"
scalar PhysicalLinkVisualizerFilteringShowcase.destination.lo[0] packetDropInterfaceDown:count 0
attr interpolationmode none
attr recordingmode count
attr source packetDropReasonIsInterfaceDown(packetDropped)
attr title "packet drops: interface down, count"
scalar PhysicalLinkVisualizerFilteringShowcase.destination.lo[0] packetDropInterfaceDown:sum(packetBytes) 0
attr interpolationmode none
attr recordingmode sum(packetBytes)
attr source packetDropReasonIsInterfaceDown(packetDropped)
attr title "packet drops: interface down, sum(packetBytes)"
scalar PhysicalLinkVisualizerFilteringShowcase.destination.lo[0] packetDropNoCarrier:count 0
attr interpolationmode none
attr recordingmode count
attr source packetDropReasonIsNoCarrier(packetDropped)
attr title "packet drops: no carrier, count"
scalar PhysicalLinkVisualizerFilteringShowcase.destination.lo[0] packetDropNoCarrier:sum(packetBytes) 0
attr interpolationmode none
attr recordingmode sum(packetBytes)
attr source packetDropReasonIsNoCarrier(packetDropped)
attr title "packet drops: no carrier, sum(packetBytes)"
scalar PhysicalLinkVisualizerFilteringShowcase.destination.wlan[0].agent dropConfirm:count 0
attr recordingmode count
attr title "dropped confirms, count"
scalar PhysicalLinkVisualizerFilteringShowcase.destination.wlan[0].agent acceptConfirm:count 3
attr recordingmode count
attr title "accepted confirms, count"
scalar PhysicalLinkVisualizerFilteringShowcase.destination.wlan[0].agent sentRequest:count 3
attr recordingmode count
attr title "sent requests, count"
scalar PhysicalLinkVisualizerFilteringShowcase.destination.wlan[0].mac.dcf.channelAccess.pendingQueue queueLength:last 0
attr autoWarmupFilter false
attr interpolationmode sample-hold
attr recordingmode last
attr source "warmup(atomic(constant0(packetPushEnded) + count(packetPushStarted) - count(packetPulled) - count(packetRemoved) - count(packetDropped)))"
attr title "queue length, last"
attr unit pk
scalar PhysicalLinkVisualizerFilteringShowcase.destination.wlan[0].mac.dcf.channelAccess.pendingQueue queueLength:max 1
attr autoWarmupFilter false
attr interpolationmode sample-hold
attr recordingmode max
attr source "warmup(atomic(constant0(packetPushEnded) + count(packetPushStarted) - count(packetPulled) - count(packetRemoved) - count(packetDropped)))"
attr title "queue length, max"
attr unit pk
scalar PhysicalLinkVisualizerFilteringShowcase.destination.wlan[0].mac.dcf.channelAccess.pendingQueue queueLength:timeavg 0.0004366739664512
attr autoWarmupFilter false
attr interpolationmode sample-hold
attr recordingmode timeavg
attr source "warmup(atomic(constant0(packetPushEnded) + count(packetPushStarted) - count(packetPulled) - count(packetRemoved) - count(packetDropped)))"
attr title "queue length, timeavg"
attr unit pk
scalar PhysicalLinkVisualizerFilteringShowcase.destination.wlan[0].mac.dcf.channelAccess.pendingQueue queueBitLength:last 0
attr autoWarmupFilter false
attr interpolationmode sample-hold
attr recordingmode last
attr source "warmup(atomic(constant0(packetPushEnded) + sum(packetLength(packetPushStarted)) - sum(packetLength(packetPulled)) - sum(packetLength(packetRemoved)) - sum(packetLength(packetDropped))))"
attr title "queue bit length, last"
attr unit b
scalar PhysicalLinkVisualizerFilteringShowcase.destination.wlan[0].mac.dcf.channelAccess.pendingQueue queueBitLength:max 960
attr autoWarmupFilter false
attr interpolationmode sample-hold
attr recordingmode max
attr source "warmup(atomic(constant0(packetPushEnded) + sum(packetLength(packetPushStarted)) - sum(packetLength(packetPulled)) - sum(packetLength(packetRemoved)) - sum(packetLength(packetDropped))))"
attr title "queue bit length, max"
attr unit b
scalar PhysicalLinkVisualizerFilteringShowcase.destination.wlan[0].mac.dcf.channelAccess.pendingQueue queueBitLength:timeavg 0.41619650196544
attr autoWarmupFilter false
attr interpolationmode sample-hold
attr recordingmode timeavg
attr source "warmup(atomic(constant0(packetPushEnded) + sum(packetLength(packetPushStarted)) - sum(packetLength(packetPulled)) - sum(packetLength(packetRemoved)) - sum(packetLength(packetDropped))))"
attr title "queue bit length, timeavg"
attr unit b
statistic PhysicalLinkVisualizerFilteringShowcase.destination.wlan[0].mac.dcf.channelAccess.pendingQueue queueingTime:histogram
field count 254
field mean 0.00042916535433071
field stddev 0.00019756997114564
field min 0
field max 0.000714
field sum 0.109008
field sqrsum 5.6658032e-05
attr interpolationmode none
attr recordingmode histogram
attr source queueingTime(packetPulled)
attr title "queueing times"
attr unit s
bin	-inf	0
bin	0	2
bin	1e-05	0
bin	2e-05	0
bin	3e-05	0
bin	4e-05	0
bin	5e-05	0
bin	6e-05	0
bin	7e-05	0
bin	8e-05	0
bin	9e-05	3
bin	0.0001	0
bin	0.00011	10
bin	0.00012	0
bin	0.00013	6
bin	0.00014	0
bin	0.00015	7
bin	0.00016	0
bin	0.00017	11
bin	0.00018	0
bin	0.00019	6
bin	0.0002	0
bin	0.00021	10
bin	0.00022	0
bin	0.00023	9
bin	0.00024	0
bin	0.00025	7
bin	0.00026	0
bin	0.00027	2
bin	0.00028	0
bin	0.00029	7
bin	0.0003	0
bin	0.00031	7
bin	0.00032	0
bin	0.00033	7
bin	0.00034	0
bin	0.00035	5
bin	0.00036	0
bin	0.00037	5
bin	0.00038	0
bin	0.00039	11
bin	0.0004	0
bin	0.00041	5
bin	0.00042	0
bin	0.00043	9
bin	0.00044	0
bin	0.00045	8
bin	0.00046	0
bin	0.00047	9
bin	0.00048	0
bin	0.00049	7
bin	0.0005	0
bin	0.00051	2
bin	0.00052	0
bin	0.00053	3
bin	0.00054	0
bin	0.00055	10
bin	0.00056	0
bin	0.00057	10
bin	0.00058	0
bin	0.00059	8
bin	0.0006	0
bin	0.00061	9
bin	0.00062	0
bin	0.00063	8
bin	0.00064	0
bin	0.00065	10
bin	0.00066	0
bin	0.00067	16
bin	0.00068	0
bin	0.00069	14
bin	0.0007	0
bin	0.00071	11
bin	0.00072	0
bin	0.00073	0
bin	0.00074	0
bin	0.00075	0
bin	0.00076	0
bin	0.00077	0
bin	0.00078	0
bin	0.00079	0
bin	0.0008	0
bin	0.00081	0
bin	0.00082	0
bin	0.00083	0
bin	0.00084	0
bin	0.00085	0
bin	0.00086	0
bin	0.00087	0
bin	0.00088	0
bin	0.00089	0
bin	0.0009	0
scalar PhysicalLinkVisualizerFilteringShowcase.destination.wlan[0].mac.dcf.channelAccess.pendingQueue outgoingPackets:count 254
attr recordingmode count
attr source packetPulled
attr title "outgoing packets, count"
attr unit pk
scalar PhysicalLinkVisualizerFilteringShowcase.destination.wlan[0].mac.dcf.channelAccess.pendingQueue outgoingPacketLengths:sum 241088
attr interpolationmode none
attr recordingmode sum
attr source packetLength(packetPulled)
attr title "outgoing packet lengths, sum"
attr unit b
statistic PhysicalLinkVisualizerFilteringShowcase.destination.wlan[0].mac.dcf.channelAccess.pendingQueue outgoingPacketLengths:histogram
field count 254
field mean 949.16535433071
field stddev 85.836296419845
field min 256
field max 960
field sum 241088
field sqrsum 230696448
attr interpolationmode none
attr recordingmode histogram
attr source packetLength(packetPulled)
attr title "outgoing packet lengths"
attr unit b
bin	-inf	0
bin	80	0
bin	100	0
bin	120	0
bin	140	0
bin	160	0
bin	180	0
bin	200	0
bin	220	0
bin	240	1
bin	260	2
bin	280	1
bin	300	0
bin	320	0
bin	340	0
bin	360	0
bin	380	0
bin	400	0
bin	420	0
bin	440	0
bin	460	0
bin	480	0
bin	500	0
bin	520	0
bin	540	0
bin	560	0
bin	580	0
bin	600	0
bin	620	0
bin	640	0
bin	660	0
bin	680	0
bin	700	0
bin	720	0
bin	740	0
bin	760	0
bin	780	0
bin	800	0
bin	820	0
bin	840	0
bin	860	0
bin	880	0
bin	900	0
bin	920	0
bin	940	0
bin	960	250
bin	980	0
bin	1000	0
bin	1020	0
bin	1040	0
bin	1060	0
bin	1080	0
bin	1100	0
bin	1120	0
bin	1140	0
statistic PhysicalLinkVisualizerFilteringShowcase.destination.wlan[0].mac.dcf.channelAccess.pendingQueue flowQueueingTime:histogram
field count 0
field mean -nan
field stddev nan
field min nan
field max nan
field sum 0
field sqrsum 0
attr interpolationmode none
attr recordingmode histogram
attr source queueingTime(demuxFlow(packetPulled))
attr title "flow queueing times"
attr unit s
bin	-inf	0
bin	0	0
bin	1	0
scalar PhysicalLinkVisualizerFilteringShowcase.destination.wlan[0].mac.dcf.channelAccess.pendingQueue incomingPackets:count 254
attr recordingmode count
attr source packetPushStarted
attr title "incoming packets, count"
attr unit pk
scalar PhysicalLinkVisualizerFilteringShowcase.destination.wlan[0].mac.dcf.channelAccess.pendingQueue incomingPacketLengths:sum 241088
attr interpolationmode none
attr recordingmode sum
attr source packetLength(packetPushStarted)
attr title "incoming packet lengths, sum"
attr unit b
statistic PhysicalLinkVisualizerFilteringShowcase.destination.wlan[0].mac.dcf.channelAccess.pendingQueue incomingPacketLengths:histogram
field count 254
field mean 949.16535433071
field stddev 85.836296419845
field min 256
field max 960
field sum 241088
field sqrsum 230696448
attr interpolationmode none
attr recordingmode histogram
attr source packetLength(packetPushStarted)
attr title "incoming packet lengths"
attr unit b
bin	-inf	0
bin	80	0
bin	100	0
bin	120	0
bin	140	0
bin	160	0
bin	180	0
bin	200	0
bin	220	0
bin	240	1
bin	260	2
bin	280	1
bin	300	0
bin	320	0
bin	340	0
bin	360	0
bin	380	0
bin	400	0
bin	420	0
bin	440	0
bin	460	0
bin	480	0
bin	500	0
bin	520	0
bin	540	0
bin	560	0
bin	580	0
bin	600	0
bin	620	0
bin	640	0
bin	660	0
bin	680	0
bin	700	0
bin	720	0
bin	740	0
bin	760	0
bin	780	0
bin	800	0
bin	820	0
bin	840	0
bin	860	0
bin	880	0
bin	900	0
bin	920	0
bin	940	0
bin	960	250
bin	980	0
bin	1000	0
bin	1020	0
bin	1040	0
bin	1060	0
bin	1080	0
bin	1100	0
bin	1120	0
bin	1140	0
scalar PhysicalLinkVisualizerFilteringShowcase.destination.wlan[0].mac.dcf.channelAccess.pendingQueue droppedPacketsQueueOverflow:count 0
attr interpolationmode none
attr recordingmode count
attr source packetDropReasonIsQueueOverflow(packetDropped)
attr title "dropped packets: queue overflow, count"
attr unit pk
scalar PhysicalLinkVisualizerFilteringShowcase.destination.wlan[0].mac.dcf.channelAccess.pendingQueue droppedPacketLengthsQueueOverflow:sum 0
attr interpolationmode none
attr recordingmode sum
attr source packetLength(packetDropReasonIsQueueOverflow(packetDropped))
attr title "dropped packet lengths: queue overflow, sum"
attr unit b
statistic PhysicalLinkVisualizerFilteringShowcase.destination.wlan[0].mac.dcf.channelAccess.inProgressFrames queueingTime:histogram
field count 254
field mean 0.00011471903290551
field stddev 5.7045799341983e-06
field min 3.8e-05
field max 0.000115354286
field sum 0.029138634358
field sqrsum 3.3509891384902e-06
attr interpolationmode none
attr recordingmode histogram
attr source queueingTime(packetDequeued)
attr title "queueing times"
bin	-inf	0
bin	1.8e-05	0
bin	2e-05	0
bin	2.2e-05	0
bin	2.4e-05	0
bin	2.6e-05	0
bin	2.8e-05	0
bin	3e-05	0
bin	3.2e-05	0
bin	3.4e-05	0
bin	3.6e-05	1
bin	3.8e-05	0
bin	4e-05	0
bin	4.2e-05	0
bin	4.4e-05	0
bin	4.6e-05	0
bin	4.8e-05	0
bin	5e-05	0
bin	5.2e-05	0
bin	5.4e-05	0
bin	5.6e-05	0
bin	5.8e-05	0
bin	6e-05	0
bin	6.2e-05	0
bin	6.4e-05	0
bin	6.6e-05	0
bin	6.8e-05	0
bin	7e-05	0
bin	7.2e-05	0
bin	7.4e-05	0
bin	7.6e-05	0
bin	7.8e-05	0
bin	8e-05	0
bin	8.2e-05	0
bin	8.4e-05	0
bin	8.6e-05	3
bin	8.8e-05	0
bin	9e-05	0
bin	9.2e-05	0
bin	9.4e-05	0
bin	9.6e-05	0
bin	9.8e-05	0
bin	0.0001	0
bin	0.000102	0
bin	0.000104	0
bin	0.000106	0
bin	0.000108	0
bin	0.00011	0
bin	0.000112	0
bin	0.000114	250
bin	0.000116	0
bin	0.000118	0
bin	0.00012	0
bin	0.000122	0
bin	0.000124	0
bin	0.000126	0
bin	0.000128	0
bin	0.00013	0
bin	0.000132	0
bin	0.000134	0
bin	0.000136	0
scalar PhysicalLinkVisualizerFilteringShowcase.destination.wlan[0].mac.dcf.channelAccess.inProgressFrames queueLength:max 1
attr autoWarmupFilter false
attr interpolationmode sample-hold
attr recordingmode max
attr source "warmup(count(packetEnqueued) - count(packetDequeued))"
attr title "queue length, max"
scalar PhysicalLinkVisualizerFilteringShowcase.destination.wlan[0].mac.dcf.channelAccess.inProgressFrames queueLength:timeavg 0.000116554537432
attr autoWarmupFilter false
attr interpolationmode sample-hold
attr recordingmode timeavg
attr source "warmup(count(packetEnqueued) - count(packetDequeued))"
attr title "queue length, timeavg"
scalar PhysicalLinkVisualizerFilteringShowcase.destination.wlan[0].mac.dcf.channelAccess.contention channelAccessGranted:count 254
attr recordingmode count
attr title "channel access granted, count"
scalar PhysicalLinkVisualizerFilteringShowcase.destination.wlan[0].mac.dcf.channelAccess.contention stateChanged:count 17154
attr enum IDLE,DEFER,IFS_AND_BACKOFF
attr interpolationmode none
attr recordingmode count
attr title "contention state changed, count"
attr type enum
scalar PhysicalLinkVisualizerFilteringShowcase.destination.wlan[0].mac.dcf.channelAccess channelOwnershipChanged:count 508
attr interpolationmode sample-hold
attr recordingmode count
attr title "channel ownership, count"
scalar PhysicalLinkVisualizerFilteringShowcase.destination.wlan[0].mac.dcf.originatorMacDataService packetAggregated:count 0
attr recordingmode count
attr title "packets aggregated, count"
scalar PhysicalLinkVisualizerFilteringShowcase.destination.wlan[0].mac.dcf.originatorMacDataService packetFragmented:count 0
attr recordingmode count
attr title "packets fragmented, count"
scalar PhysicalLinkVisualizerFilteringShowcase.destination.wlan[0].mac.dcf.recipientMacDataService packetDeaggregated:count 0
attr recordingmode count
attr title "packets deaggregated, count"
scalar PhysicalLinkVisualizerFilteringShowcase.destination.wlan[0].mac.dcf.recipientMacDataService packetDefragmented:count 2754
attr recordingmode count
attr title "packets defragmented, count"
scalar PhysicalLinkVisualizerFilteringShowcase.destination.wlan[0].mac.dcf.recipientMacDataService packetDropDuplicateDetected:count 0
attr interpolationmode none
attr recordingmode count
attr source packetDropReasonIsDuplicateDetected(packetDropped)
attr title "packet drops: duplicate detected, count"
scalar PhysicalLinkVisualizerFilteringShowcase.destination.wlan[0].mac.dcf.recipientMacDataService packetDropDuplicateDetected:sum(packetBytes) 0
attr interpolationmode none
attr recordingmode sum(packetBytes)
attr source packetDropReasonIsDuplicateDetected(packetDropped)
attr title "packet drops: duplicate detected, sum(packetBytes)"
scalar PhysicalLinkVisualizerFilteringShowcase.destination.wlan[0].mac.dcf.recoveryProcedure retryLimitReached:count 0
attr recordingmode count
attr title "retry limit reached, count"
scalar PhysicalLinkVisualizerFilteringShowcase.destination.wlan[0].mac.dcf frameSequenceFinished:count 254
attr recordingmode count
attr title "finished frame sequences, count"
statistic PhysicalLinkVisualizerFilteringShowcase.destination.wlan[0].mac.dcf frameSequenceDuration:histogram
field count 254
field mean 0.00011471903290551
field stddev 5.7045799341983e-06
field min 3.8e-05
field max 0.000115354286
field sum 0.029138634358
field sqrsum 3.3509891384902e-06
attr recordingmode histogram
attr source frameSequenceDuration(frameSequenceFinished)
attr title "frame sequence durations"
bin	-inf	0
bin	1.8e-05	0
bin	2e-05	0
bin	2.2e-05	0
bin	2.4e-05	0
bin	2.6e-05	0
bin	2.8e-05	0
bin	3e-05	0
bin	3.2e-05	0
bin	3.4e-05	0
bin	3.6e-05	1
bin	3.8e-05	0
bin	4e-05	0
bin	4.2e-05	0
bin	4.4e-05	0
bin	4.6e-05	0
bin	4.8e-05	0
bin	5e-05	0
bin	5.2e-05	0
bin	5.4e-05	0
bin	5.6e-05	0
bin	5.8e-05	0
bin	6e-05	0
bin	6.2e-05	0
bin	6.4e-05	0
bin	6.6e-05	0
bin	6.8e-05	0
bin	7e-05	0
bin	7.2e-05	0
bin	7.4e-05	0
bin	7.6e-05	0
bin	7.8e-05	0
bin	8e-05	0
bin	8.2e-05	0
bin	8.4e-05	0
bin	8.6e-05	3
bin	8.8e-05	0
bin	9e-05	0
bin	9.2e-05	0
bin	9.4e-05	0
bin	9.6e-05	0
bin	9.8e-05	0
bin	0.0001	0
bin	0.000102	0
bin	0.000104	0
bin	0.000106	0
bin	0.000108	0
bin	0.00011	0
bin	0.000112	0
bin	0.000114	250
bin	0.000116	0
bin	0.000118	0
bin	0.00012	0
bin	0.000122	0
bin	0.000124	0
bin	0.000126	0
bin	0.000128	0
bin	0.00013	0
bin	0.000132	0
bin	0.000134	0
bin	0.000136	0
statistic PhysicalLinkVisualizerFilteringShowcase.destination.wlan[0].mac.dcf frameSequenceNumPackets:histogram
field count 254
field mean 1.996062992126
field stddev 0.062745580513816
field min 1
field max 2
field sum 507
field sqrsum 1013
attr recordingmode histogram
attr source frameSequenceNumPackets(frameSequenceFinished)
attr title "frame sequences: number of packets"
bin	-inf	0
bin	0	0
bin	1	1
bin	2	253
bin	3	0
scalar PhysicalLinkVisualizerFilteringShowcase.destination.wlan[0].mac.dcf packetReceivedFromPeer:count 3007
attr interpolationmode none
attr recordingmode count
attr title "packets received, count"
scalar PhysicalLinkVisualizerFilteringShowcase.destination.wlan[0].mac.dcf packetReceivedFromPeer:sum(packetBytes) 153694
attr interpolationmode none
attr recordingmode sum(packetBytes)
attr title "packets received, sum(packetBytes)"
scalar PhysicalLinkVisualizerFilteringShowcase.destination.wlan[0].mac.dcf packetReceivedFromPeerUnicast:count 507
attr interpolationmode none
attr recordingmode count
attr source ieee80211Unicast(packetReceivedFromPeer)
attr title "packets received: unicast, count"
scalar PhysicalLinkVisualizerFilteringShowcase.destination.wlan[0].mac.dcf packetReceivedFromPeerUnicast:sum(packetBytes) 33694
attr interpolationmode none
attr recordingmode sum(packetBytes)
attr source ieee80211Unicast(packetReceivedFromPeer)
attr title "packets received: unicast, sum(packetBytes)"
scalar PhysicalLinkVisualizerFilteringShowcase.destination.wlan[0].mac.dcf packetReceivedFromPeerMulticast:count 2500
attr interpolationmode none
attr recordingmode count
attr source ieee80211Multicast(packetReceivedFromPeer)
attr title "packets received: multicast, count"
scalar PhysicalLinkVisualizerFilteringShowcase.destination.wlan[0].mac.dcf packetReceivedFromPeerMulticast:sum(packetBytes) 120000
attr interpolationmode none
attr recordingmode sum(packetBytes)
attr source ieee80211Multicast(packetReceivedFromPeer)
attr title "packets received: multicast, sum(packetBytes)"
scalar PhysicalLinkVisualizerFilteringShowcase.destination.wlan[0].mac.dcf packetReceivedFromPeerBroadcast:count 2500
attr interpolationmode none
attr recordingmode count
attr source ieee80211Broadcast(packetReceivedFromPeer)
attr title "packets received: broadcast, count"
scalar PhysicalLinkVisualizerFilteringShowcase.destination.wlan[0].mac.dcf packetReceivedFromPeerBroadcast:sum(packetBytes) 120000
attr interpolationmode none
attr recordingmode sum(packetBytes)
attr source ieee80211Broadcast(packetReceivedFromPeer)
attr title "packets received: broadcast, sum(packetBytes)"
scalar PhysicalLinkVisualizerFilteringShowcase.destination.wlan[0].mac.dcf packetReceivedFromPeerWithRetry:count 0
attr interpolationmode none
attr recordingmode count
attr source ieee80211Retry(packetReceivedFromPeer)
attr title "packets received: with retry, count"
scalar PhysicalLinkVisualizerFilteringShowcase.destination.wlan[0].mac.dcf packetReceivedFromPeerWithRetry:sum(packetBytes) 0
attr interpolationmode none
attr recordingmode sum(packetBytes)
attr source ieee80211Retry(packetReceivedFromPeer)
attr title "packets received: with retry, sum(packetBytes)"
scalar PhysicalLinkVisualizerFilteringShowcase.destination.wlan[0].mac.dcf packetReceivedFromPeerWithoutRetry:count 3007
attr interpolationmode none
attr recordingmode count
attr source ieee80211NotRetry(packetReceivedFromPeer)
attr title "packets received: without retry, count"
scalar PhysicalLinkVisualizerFilteringShowcase.destination.wlan[0].mac.dcf packetReceivedFromPeerWithoutRetry:sum(packetBytes) 153694
attr interpolationmode none
attr recordingmode sum(packetBytes)
attr source ieee80211NotRetry(packetReceivedFromPeer)
attr title "packets received: without retry, sum(packetBytes)"
scalar PhysicalLinkVisualizerFilteringShowcase.destination.wlan[0].mac.dcf packetSentToPeer:count 508
attr interpolationmode none
attr recordingmode count
attr title "packets sent, count"
scalar PhysicalLinkVisualizerFilteringShowcase.destination.wlan[0].mac.dcf packetSentToPeer:sum(packetBytes) 33692
attr interpolationmode none
attr recordingmode sum(packetBytes)
attr title "packets sent, sum(packetBytes)"
scalar PhysicalLinkVisualizerFilteringShowcase.destination.wlan[0].mac.dcf packetSentToPeerUnicast:count 507
attr interpolationmode none
attr recordingmode count
attr source ieee80211Unicast(packetSentToPeer)
attr title "packets sent: unicast, count"
scalar PhysicalLinkVisualizerFilteringShowcase.destination.wlan[0].mac.dcf packetSentToPeerUnicast:sum(packetBytes) 33660
attr interpolationmode none
attr recordingmode sum(packetBytes)
attr source ieee80211Unicast(packetSentToPeer)
attr title "packets sent: unicast, sum(packetBytes)"
scalar PhysicalLinkVisualizerFilteringShowcase.destination.wlan[0].mac.dcf packetSentToPeerMulticast:count 1
attr interpolationmode none
attr recordingmode count
attr source ieee80211Multicast(packetSentToPeer)
attr title "packets sent: multicast, count"
scalar PhysicalLinkVisualizerFilteringShowcase.destination.wlan[0].mac.dcf packetSentToPeerMulticast:sum(packetBytes) 32
attr interpolationmode none
attr recordingmode sum(packetBytes)
attr source ieee80211Multicast(packetSentToPeer)
attr title "packets sent: multicast, sum(packetBytes)"
scalar PhysicalLinkVisualizerFilteringShowcase.destination.wlan[0].mac.dcf packetSentToPeerBroadcast:count 1
attr interpolationmode none
attr recordingmode count
attr source ieee80211Broadcast(packetSentToPeer)
attr title "packets sent: broadcast , count"
scalar PhysicalLinkVisualizerFilteringShowcase.destination.wlan[0].mac.dcf packetSentToPeerBroadcast:sum(packetBytes) 32
attr interpolationmode none
attr recordingmode sum(packetBytes)
attr source ieee80211Broadcast(packetSentToPeer)
attr title "packets sent: broadcast , sum(packetBytes)"
scalar PhysicalLinkVisualizerFilteringShowcase.destination.wlan[0].mac.dcf packetSentToPeerWithRetry:count 0
attr interpolationmode none
attr recordingmode count
attr source ieee80211Retry(packetSentToPeer)
attr title "packets sent: with retry, count"
scalar PhysicalLinkVisualizerFilteringShowcase.destination.wlan[0].mac.dcf packetSentToPeerWithRetry:sum(packetBytes) 0
attr interpolationmode none
attr recordingmode sum(packetBytes)
attr source ieee80211Retry(packetSentToPeer)
attr title "packets sent: with retry, sum(packetBytes)"
scalar PhysicalLinkVisualizerFilteringShowcase.destination.wlan[0].mac.dcf packetSentToPeerWithoutRetry:count 508
attr interpolationmode none
attr recordingmode count
attr source ieee80211NotRetry(packetSentToPeer)
attr title "packets sent: without retry, count"
scalar PhysicalLinkVisualizerFilteringShowcase.destination.wlan[0].mac.dcf packetSentToPeerWithoutRetry:sum(packetBytes) 33692
attr interpolationmode none
attr recordingmode sum(packetBytes)
attr source ieee80211NotRetry(packetSentToPeer)
attr title "packets sent: without retry, sum(packetBytes)"
scalar PhysicalLinkVisualizerFilteringShowcase.destination.wlan[0].mac.dcf packetDrop:count 514
attr interpolationmode none
attr recordingmode count
attr source packetDropped
attr title "packet drops, count"
scalar PhysicalLinkVisualizerFilteringShowcase.destination.wlan[0].mac.dcf packetDrop:sum(packetBytes) 33888
attr interpolationmode none
attr recordingmode sum(packetBytes)
attr source packetDropped
attr title "packet drops, sum(packetBytes)"
scalar PhysicalLinkVisualizerFilteringShowcase.destination.wlan[0].mac.dcf packetDropNotAddressedToUs:count 514
attr interpolationmode none
attr recordingmode count
attr source packetDropReasonIsNotAddressedToUs(packetDropped)
attr title "packet drops: not addressed to us, count"
scalar PhysicalLinkVisualizerFilteringShowcase.destination.wlan[0].mac.dcf packetDropNotAddressedToUs:sum(packetBytes) 33888
attr interpolationmode none
attr recordingmode sum(packetBytes)
attr source packetDropReasonIsNotAddressedToUs(packetDropped)
attr title "packet drops: not addressed to us, sum(packetBytes)"
scalar PhysicalLinkVisualizerFilteringShowcase.destination.wlan[0].mac.dcf packetDropQueueOverflow:count 0
attr interpolationmode none
attr recordingmode count
attr source packetDropReasonIsQueueOverflow(packetDropped)
attr title "packet drops: queue overflow, count"
scalar PhysicalLinkVisualizerFilteringShowcase.destination.wlan[0].mac.dcf packetDropQueueOverflow:sum(packetBytes) 0
attr interpolationmode none
attr recordingmode sum(packetBytes)
attr source packetDropReasonIsQueueOverflow(packetDropped)
attr title "packet drops: queue overflow, sum(packetBytes)"
scalar PhysicalLinkVisualizerFilteringShowcase.destination.wlan[0].mac.dcf packetDropRetryLimitReached:count 0
attr interpolationmode none
attr recordingmode count
attr source packetDropReasonIsRetryLimitReached(packetDropped)
attr title "packet drops: retry limit reached, count"
scalar PhysicalLinkVisualizerFilteringShowcase.destination.wlan[0].mac.dcf packetDropRetryLimitReached:sum(packetBytes) 0
attr interpolationmode none
attr recordingmode sum(packetBytes)
attr source packetDropReasonIsRetryLimitReached(packetDropped)
attr title "packet drops: retry limit reached, sum(packetBytes)"
scalar PhysicalLinkVisualizerFilteringShowcase.destination.wlan[0].mac.dcf linkBroken:count 0
attr interpolationmode none
attr recordingmode count
attr title "link breaks, count"
scalar PhysicalLinkVisualizerFilteringShowcase.destination.wlan[0].mac packetReceivedFromLower:count 3521
attr interpolationmode none
attr recordingmode count
attr title "packets received from lower layer, count"
scalar PhysicalLinkVisualizerFilteringShowcase.destination.wlan[0].mac packetReceivedFromLower:sum(packetBytes) 187582
attr interpolationmode none
attr recordingmode sum(packetBytes)
attr title "packets received from lower layer, sum(packetBytes)"
scalar PhysicalLinkVisualizerFilteringShowcase.destination.wlan[0].mac packetSentToLower:count 508
attr interpolationmode none
attr recordingmode count
attr title "packets sent to lower layer, count"
scalar PhysicalLinkVisualizerFilteringShowcase.destination.wlan[0].mac packetSentToLower:sum(packetBytes) 33692
attr interpolationmode none
attr recordingmode sum(packetBytes)
attr title "packets sent to lower layer, sum(packetBytes)"
scalar PhysicalLinkVisualizerFilteringShowcase.destination.wlan[0].mac packetReceivedFromUpper:count 250
attr interpolationmode none
attr recordingmode count
attr title "packets received from upper layer, count"
scalar PhysicalLinkVisualizerFilteringShowcase.destination.wlan[0].mac packetReceivedFromUpper:sum(packetBytes) 23000
attr interpolationmode none
attr recordingmode sum(packetBytes)
attr title "packets received from upper layer, sum(packetBytes)"
scalar PhysicalLinkVisualizerFilteringShowcase.destination.wlan[0].mac packetSentToUpper:count 250
attr interpolationmode none
attr recordingmode count
attr title "packets sent to upper layer, count"
scalar PhysicalLinkVisualizerFilteringShowcase.destination.wlan[0].mac packetSentToUpper:sum(packetBytes) 23000
attr interpolationmode none
attr recordingmode sum(packetBytes)
attr title "packets sent to upper layer, sum(packetBytes)"
scalar PhysicalLinkVisualizerFilteringShowcase.destination.wlan[0].mac packetDrop:count 514
attr interpolationmode none
attr recordingmode count
attr source packetDropped
attr title "packet drops, count"
scalar PhysicalLinkVisualizerFilteringShowcase.destination.wlan[0].mac packetDrop:sum(packetBytes) 33888
attr interpolationmode none
attr recordingmode sum(packetBytes)
attr source packetDropped
attr title "packet drops, sum(packetBytes)"
scalar PhysicalLinkVisualizerFilteringShowcase.destination.wlan[0].mac packetDropIncorrectlyReceived:count 0
attr interpolationmode none
attr recordingmode count
attr source packetDropReasonIsIncorrectlyReceived(packetDropped)
attr title "packet drops: incorrectly received, count"
scalar PhysicalLinkVisualizerFilteringShowcase.destination.wlan[0].mac packetDropIncorrectlyReceived:sum(packetBytes) 0
attr interpolationmode none
attr recordingmode sum(packetBytes)
attr source packetDropReasonIsIncorrectlyReceived(packetDropped)
attr title "packet drops: incorrectly received, sum(packetBytes)"
scalar PhysicalLinkVisualizerFilteringShowcase.destination.wlan[0].mac packetDropNotAddressedToUs:count 514
attr interpolationmode none
attr recordingmode count
attr source packetDropReasonIsNotAddressedToUs(packetDropped)
attr title "packet drops: not addressed to us, count"
scalar PhysicalLinkVisualizerFilteringShowcase.destination.wlan[0].mac packetDropNotAddressedToUs:sum(packetBytes) 33888
attr interpolationmode none
attr recordingmode sum(packetBytes)
attr source packetDropReasonIsNotAddressedToUs(packetDropped)
attr title "packet drops: not addressed to us, sum(packetBytes)"
scalar PhysicalLinkVisualizerFilteringShowcase.destination.wlan[0].mac packetDropQueueOverflow:count 0
attr interpolationmode none
attr recordingmode count
attr source packetDropReasonIsQueueOverflow(packetDropped)
attr title "packet drops: queue overflow, count"
scalar PhysicalLinkVisualizerFilteringShowcase.destination.wlan[0].mac packetDropQueueOverflow:sum(packetBytes) 0
attr interpolationmode none
attr recordingmode sum(packetBytes)
attr source packetDropReasonIsQueueOverflow(packetDropped)
attr title "packet drops: queue overflow, sum(packetBytes)"
scalar PhysicalLinkVisualizerFilteringShowcase.destination.wlan[0].mac packetDropRetryLimitReached:count 0
attr interpolationmode none
attr recordingmode count
attr source packetDropReasonIsRetryLimitReached(packetDropped)
attr title "packet drops: retry limit reached, count"
scalar PhysicalLinkVisualizerFilteringShowcase.destination.wlan[0].mac packetDropRetryLimitReached:sum(packetBytes) 0
attr interpolationmode none
attr recordingmode sum(packetBytes)
attr source packetDropReasonIsRetryLimitReached(packetDropped)
attr title "packet drops: retry limit reached, sum(packetBytes)"
scalar PhysicalLinkVisualizerFilteringShowcase.destination.wlan[0].mac packetDropDuplicateDetected:count 0
attr interpolationmode none
attr recordingmode count
attr source packetDropReasonIsDuplicateDetected(packetDropped)
attr title "packet drops: duplicate detected, count"
scalar PhysicalLinkVisualizerFilteringShowcase.destination.wlan[0].mac packetDropDuplicateDetected:sum(packetBytes) 0
attr interpolationmode none
attr recordingmode sum(packetBytes)
attr source packetDropReasonIsDuplicateDetected(packetDropped)
attr title "packet drops: duplicate detected, sum(packetBytes)"
scalar PhysicalLinkVisualizerFilteringShowcase.destination.wlan[0].mac packetDropOther:count 0
attr interpolationmode none
attr recordingmode count
attr source packetDropReasonIsOther(packetDropped)
attr title "packet drops: other, count"
scalar PhysicalLinkVisualizerFilteringShowcase.destination.wlan[0].mac packetDropOther:sum(packetBytes) 0
attr interpolationmode none
attr recordingmode sum(packetBytes)
attr source packetDropReasonIsOther(packetDropped)
attr title "packet drops: other, sum(packetBytes)"
scalar PhysicalLinkVisualizerFilteringShowcase.destination.wlan[0].mac linkBroken:count 0
attr interpolationmode none
attr recordingmode count
attr title "link breaks, count"
statistic PhysicalLinkVisualizerFilteringShowcase.destination.wlan[0].radio radioChannel:histogram
field count 4
field mean 0
field stddev 0
field min 0
field max 0
field sum 0
field sqrsum 0
attr interpolationmode sample-hold
attr recordingmode histogram
attr source radioChannelChanged
attr title "Radio channel"
bin	-inf	0
bin	-0.5	0
bin	-0.48	0
bin	-0.46	0
bin	-0.44	0
bin	-0.42	0
bin	-0.4	0
bin	-0.38	0
bin	-0.36	0
bin	-0.34	0
bin	-0.32	0
bin	-0.3	0
bin	-0.28	0
bin	-0.26	0
bin	-0.24	0
bin	-0.22	0
bin	-0.2	0
bin	-0.18	0
bin	-0.16	0
bin	-0.14	0
bin	-0.12	0
bin	-0.1	0
bin	-0.08	0
bin	-0.06	0
bin	-0.04	0
bin	-0.02	0
bin	0	4
bin	0.02	0
bin	0.04	0
bin	0.06	0
bin	0.08	0
bin	0.1	0
bin	0.12	0
bin	0.14	0
bin	0.16	0
bin	0.18	0
bin	0.2	0
bin	0.22	0
bin	0.24	0
bin	0.26	0
bin	0.28	0
bin	0.3	0
bin	0.32	0
bin	0.34	0
bin	0.36	0
bin	0.38	0
bin	0.4	0
bin	0.42	0
bin	0.44	0
bin	0.46	0
bin	0.48	0
bin	0.5	0
scalar PhysicalLinkVisualizerFilteringShowcase.destination.wlan[0].radio radioMode:count 1019
attr interpolationmode sample-hold
attr recordingmode count
attr source radioModeChanged
attr title "Radio mode, count"
scalar PhysicalLinkVisualizerFilteringShowcase.destination.wlan[0].radio receptionState:count 8059
attr interpolationmode sample-hold
attr recordingmode count
attr source receptionStateChanged
attr title "Radio reception state, count"
scalar PhysicalLinkVisualizerFilteringShowcase.destination.wlan[0].radio transmissionState:count 2032
attr interpolationmode sample-hold
attr recordingmode count
attr source transmissionStateChanged
attr title "Radio transmission state, count"
statistic PhysicalLinkVisualizerFilteringShowcase.destination.wlan[0].radio minSnir:histogram
field count 3521
field mean 474.78222569863
field stddev 0
field min 474.78222569858
field max 474.78222569858
field sum 1671708.2166849
field sqrsum 793697347.83613
attr recordingmode histogram
attr source minimumSnir(packetSentToUpper)
attr title "Min SNIR"
bin	-inf	0
bin	474.28	0
bin	474.3	0
bin	474.32	0
bin	474.34	0
bin	474.36	0
bin	474.38	0
bin	474.4	0
bin	474.42	0
bin	474.44	0
bin	474.46	0
bin	474.48	0
bin	474.5	0
bin	474.52	0
bin	474.54	0
bin	474.56	0
bin	474.58	0
bin	474.6	0
bin	474.62	0
bin	474.64	0
bin	474.66	0
bin	474.68	0
bin	474.7	0
bin	474.72	0
bin	474.74	0
bin	474.76	0
bin	474.78	3521
bin	474.8	0
bin	474.82	0
bin	474.84	0
bin	474.86	0
bin	474.88	0
bin	474.9	0
bin	474.92	0
bin	474.94	0
bin	474.96	0
bin	474.98	0
bin	475	0
bin	475.02	0
bin	475.04	0
bin	475.06	0
bin	475.08	0
bin	475.1	0
bin	475.12	0
bin	475.14	0
bin	475.16	0
bin	475.18	0
bin	475.2	0
bin	475.22	0
bin	475.24	0
bin	475.26	0
bin	475.28	0
bin	475.3	0
statistic PhysicalLinkVisualizerFilteringShowcase.destination.wlan[0].radio packetErrorRate:histogram
field count 3521
field mean 0
field stddev 0
field min 0
field max 0
field sum 0
field sqrsum 0
attr recordingmode histogram
attr source packetErrorRate(packetSentToUpper)
attr title "Packet error rate"
bin	-inf	0
bin	-0.5	0
bin	-0.48	0
bin	-0.46	0
bin	-0.44	0
bin	-0.42	0
bin	-0.4	0
bin	-0.38	0
bin	-0.36	0
bin	-0.34	0
bin	-0.32	0
bin	-0.3	0
bin	-0.28	0
bin	-0.26	0
bin	-0.24	0
bin	-0.22	0
bin	-0.2	0
bin	-0.18	0
bin	-0.16	0
bin	-0.14	0
bin	-0.12	0
bin	-0.1	0
bin	-0.08	0
bin	-0.06	0
bin	-0.04	0
bin	-0.02	0
bin	0	3521
bin	0.02	0
[...]
bin	3	0
scalar PhysicalLinkVisualizerFilteringShowcase.accessPoint.wlan[0].mac.dcf packetReceivedFromPeer:count 1024
attr interpolationmode none
attr recordingmode count
attr title "packets received, count"
scalar PhysicalLinkVisualizerFilteringShowcase.accessPoint.wlan[0].mac.dcf packetReceivedFromPeer:sum(packetBytes) 67576
attr interpolationmode none
attr recordingmode sum(packetBytes)
attr title "packets received, sum(packetBytes)"
scalar PhysicalLinkVisualizerFilteringShowcase.accessPoint.wlan[0].mac.dcf packetReceivedFromPeerUnicast:count 1021
attr interpolationmode none
attr recordingmode count
attr source ieee80211Unicast(packetReceivedFromPeer)
attr title "packets received: unicast, count"
scalar PhysicalLinkVisualizerFilteringShowcase.accessPoint.wlan[0].mac.dcf packetReceivedFromPeerUnicast:sum(packetBytes) 67480
attr interpolationmode none
attr recordingmode sum(packetBytes)
attr source ieee80211Unicast(packetReceivedFromPeer)
attr title "packets received: unicast, sum(packetBytes)"
scalar PhysicalLinkVisualizerFilteringShowcase.accessPoint.wlan[0].mac.dcf packetReceivedFromPeerMulticast:count 3
attr interpolationmode none
attr recordingmode count
attr source ieee80211Multicast(packetReceivedFromPeer)
attr title "packets received: multicast, count"
scalar PhysicalLinkVisualizerFilteringShowcase.accessPoint.wlan[0].mac.dcf packetReceivedFromPeerMulticast:sum(packetBytes) 96
attr interpolationmode none
attr recordingmode sum(packetBytes)
attr source ieee80211Multicast(packetReceivedFromPeer)
attr title "packets received: multicast, sum(packetBytes)"
scalar PhysicalLinkVisualizerFilteringShowcase.accessPoint.wlan[0].mac.dcf packetReceivedFromPeerBroadcast:count 3
attr interpolationmode none
attr recordingmode count
attr source ieee80211Broadcast(packetReceivedFromPeer)
attr title "packets received: broadcast, count"
scalar PhysicalLinkVisualizerFilteringShowcase.accessPoint.wlan[0].mac.dcf packetReceivedFromPeerBroadcast:sum(packetBytes) 96
attr interpolationmode none
attr recordingmode sum(packetBytes)
attr source ieee80211Broadcast(packetReceivedFromPeer)
attr title "packets received: broadcast, sum(packetBytes)"
scalar PhysicalLinkVisualizerFilteringShowcase.accessPoint.wlan[0].mac.dcf packetReceivedFromPeerWithRetry:count 0
attr interpolationmode none
attr recordingmode count
attr source ieee80211Retry(packetReceivedFromPeer)
attr title "packets received: with retry, count"
scalar PhysicalLinkVisualizerFilteringShowcase.accessPoint.wlan[0].mac.dcf packetReceivedFromPeerWithRetry:sum(packetBytes) 0
attr interpolationmode none
attr recordingmode sum(packetBytes)
attr source ieee80211Retry(packetReceivedFromPeer)
attr title "packets received: with retry, sum(packetBytes)"
scalar PhysicalLinkVisualizerFilteringShowcase.accessPoint.wlan[0].mac.dcf packetReceivedFromPeerWithoutRetry:count 1024
attr interpolationmode none
attr recordingmode count
attr source ieee80211NotRetry(packetReceivedFromPeer)
attr title "packets received: without retry, count"
scalar PhysicalLinkVisualizerFilteringShowcase.accessPoint.wlan[0].mac.dcf packetReceivedFromPeerWithoutRetry:sum(packetBytes) 67576
attr interpolationmode none
attr recordingmode sum(packetBytes)
attr source ieee80211NotRetry(packetReceivedFromPeer)
attr title "packets received: without retry, sum(packetBytes)"
scalar PhysicalLinkVisualizerFilteringShowcase.accessPoint.wlan[0].mac.dcf packetSentToPeer:count 3521
attr interpolationmode none
attr recordingmode count
attr title "packets sent, count"
scalar PhysicalLinkVisualizerFilteringShowcase.accessPoint.wlan[0].mac.dcf packetSentToPeer:sum(packetBytes) 187582
attr interpolationmode none
attr recordingmode sum(packetBytes)
attr title "packets sent, sum(packetBytes)"
scalar PhysicalLinkVisualizerFilteringShowcase.accessPoint.wlan[0].mac.dcf packetSentToPeerUnicast:count 1021
attr interpolationmode none
attr recordingmode count
attr source ieee80211Unicast(packetSentToPeer)
attr title "packets sent: unicast, count"
scalar PhysicalLinkVisualizerFilteringShowcase.accessPoint.wlan[0].mac.dcf packetSentToPeerUnicast:sum(packetBytes) 67582
attr interpolationmode none
attr recordingmode sum(packetBytes)
attr source ieee80211Unicast(packetSentToPeer)
attr title "packets sent: unicast, sum(packetBytes)"
scalar PhysicalLinkVisualizerFilteringShowcase.accessPoint.wlan[0].mac.dcf packetSentToPeerMulticast:count 2500
attr interpolationmode none
attr recordingmode count
attr source ieee80211Multicast(packetSentToPeer)
attr title "packets sent: multicast, count"
scalar PhysicalLinkVisualizerFilteringShowcase.accessPoint.wlan[0].mac.dcf packetSentToPeerMulticast:sum(packetBytes) 120000
attr interpolationmode none
attr recordingmode sum(packetBytes)
attr source ieee80211Multicast(packetSentToPeer)
attr title "packets sent: multicast, sum(packetBytes)"
scalar PhysicalLinkVisualizerFilteringShowcase.accessPoint.wlan[0].mac.dcf packetSentToPeerBroadcast:count 2500
attr interpolationmode none
attr recordingmode count
attr source ieee80211Broadcast(packetSentToPeer)
attr title "packets sent: broadcast , count"
scalar PhysicalLinkVisualizerFilteringShowcase.accessPoint.wlan[0].mac.dcf packetSentToPeerBroadcast:sum(packetBytes) 120000
attr interpolationmode none
attr recordingmode sum(packetBytes)
attr source ieee80211Broadcast(packetSentToPeer)
attr title "packets sent: broadcast , sum(packetBytes)"
scalar PhysicalLinkVisualizerFilteringShowcase.accessPoint.wlan[0].mac.dcf packetSentToPeerWithRetry:count 0
attr interpolationmode none
attr recordingmode count
attr source ieee80211Retry(packetSentToPeer)
attr title "packets sent: with retry, count"
scalar PhysicalLinkVisualizerFilteringShowcase.accessPoint.wlan[0].mac.dcf packetSentToPeerWithRetry:sum(packetBytes) 0
attr interpolationmode none
attr recordingmode sum(packetBytes)
attr source ieee80211Retry(packetSentToPeer)
attr title "packets sent: with retry, sum(packetBytes)"
scalar PhysicalLinkVisualizerFilteringShowcase.accessPoint.wlan[0].mac.dcf packetSentToPeerWithoutRetry:count 3521
attr interpolationmode none
attr recordingmode count
attr source ieee80211NotRetry(packetSentToPeer)
attr title "packets sent: without retry, count"
scalar PhysicalLinkVisualizerFilteringShowcase.accessPoint.wlan[0].mac.dcf packetSentToPeerWithoutRetry:sum(packetBytes) 187582
attr interpolationmode none
attr recordingmode sum(packetBytes)
attr source ieee80211NotRetry(packetSentToPeer)
attr title "packets sent: without retry, sum(packetBytes)"
scalar PhysicalLinkVisualizerFilteringShowcase.accessPoint.wlan[0].mac.dcf packetDrop:count 0
attr interpolationmode none
attr recordingmode count
attr source packetDropped
attr title "packet drops, count"
scalar PhysicalLinkVisualizerFilteringShowcase.accessPoint.wlan[0].mac.dcf packetDrop:sum(packetBytes) 0
attr interpolationmode none
attr recordingmode sum(packetBytes)
attr source packetDropped
attr title "packet drops, sum(packetBytes)"
scalar PhysicalLinkVisualizerFilteringShowcase.accessPoint.wlan[0].mac.dcf packetDropNotAddressedToUs:count 0
attr interpolationmode none
attr recordingmode count
attr source packetDropReasonIsNotAddressedToUs(packetDropped)
attr title "packet drops: not addressed to us, count"
scalar PhysicalLinkVisualizerFilteringShowcase.accessPoint.wlan[0].mac.dcf packetDropNotAddressedToUs:sum(packetBytes) 0
attr interpolationmode none
attr recordingmode sum(packetBytes)
attr source packetDropReasonIsNotAddressedToUs(packetDropped)
attr title "packet drops: not addressed to us, sum(packetBytes)"
scalar PhysicalLinkVisualizerFilteringShowcase.accessPoint.wlan[0].mac.dcf packetDropQueueOverflow:count 0
attr interpolationmode none
attr recordingmode count
attr source packetDropReasonIsQueueOverflow(packetDropped)
attr title "packet drops: queue overflow, count"
scalar PhysicalLinkVisualizerFilteringShowcase.accessPoint.wlan[0].mac.dcf packetDropQueueOverflow:sum(packetBytes) 0
attr interpolationmode none
attr recordingmode sum(packetBytes)
attr source packetDropReasonIsQueueOverflow(packetDropped)
attr title "packet drops: queue overflow, sum(packetBytes)"
scalar PhysicalLinkVisualizerFilteringShowcase.accessPoint.wlan[0].mac.dcf packetDropRetryLimitReached:count 0
attr interpolationmode none
attr recordingmode count
attr source packetDropReasonIsRetryLimitReached(packetDropped)
attr title "packet drops: retry limit reached, count"
scalar PhysicalLinkVisualizerFilteringShowcase.accessPoint.wlan[0].mac.dcf packetDropRetryLimitReached:sum(packetBytes) 0
attr interpolationmode none
attr recordingmode sum(packetBytes)
attr source packetDropReasonIsRetryLimitReached(packetDropped)
attr title "packet drops: retry limit reached, sum(packetBytes)"
scalar PhysicalLinkVisualizerFilteringShowcase.accessPoint.wlan[0].mac.dcf linkBroken:count 0
attr interpolationmode none
attr recordingmode count
attr title "link breaks, count"
scalar PhysicalLinkVisualizerFilteringShowcase.accessPoint.wlan[0].mac packetReceivedFromLower:count 1024
attr interpolationmode none
attr recordingmode count
attr title "packets received from lower layer, count"
scalar PhysicalLinkVisualizerFilteringShowcase.accessPoint.wlan[0].mac packetReceivedFromLower:sum(packetBytes) 67576
attr interpolationmode none
attr recordingmode sum(packetBytes)
attr title "packets received from lower layer, sum(packetBytes)"
scalar PhysicalLinkVisualizerFilteringShowcase.accessPoint.wlan[0].mac packetSentToLower:count 3521
attr interpolationmode none
attr recordingmode count
attr title "packets sent to lower layer, count"
scalar PhysicalLinkVisualizerFilteringShowcase.accessPoint.wlan[0].mac packetSentToLower:sum(packetBytes) 187582
attr interpolationmode none
attr recordingmode sum(packetBytes)
attr title "packets sent to lower layer, sum(packetBytes)"
scalar PhysicalLinkVisualizerFilteringShowcase.accessPoint.wlan[0].mac packetReceivedFromUpper:count 0
attr interpolationmode none
attr recordingmode count
attr title "packets received from upper layer, count"
scalar PhysicalLinkVisualizerFilteringShowcase.accessPoint.wlan[0].mac packetReceivedFromUpper:sum(packetBytes) 0
attr interpolationmode none
attr recordingmode sum(packetBytes)
attr title "packets received from upper layer, sum(packetBytes)"
scalar PhysicalLinkVisualizerFilteringShowcase.accessPoint.wlan[0].mac packetSentToUpper:count 0
attr interpolationmode none
attr recordingmode count
attr title "packets sent to upper layer, count"
scalar PhysicalLinkVisualizerFilteringShowcase.accessPoint.wlan[0].mac packetSentToUpper:sum(packetBytes) 0
attr interpolationmode none
attr recordingmode sum(packetBytes)
attr title "packets sent to upper layer, sum(packetBytes)"
scalar PhysicalLinkVisualizerFilteringShowcase.accessPoint.wlan[0].mac packetDrop:count 0
attr interpolationmode none
attr recordingmode count
attr source packetDropped
attr title "packet drops, count"
scalar PhysicalLinkVisualizerFilteringShowcase.accessPoint.wlan[0].mac packetDrop:sum(packetBytes) 0
attr interpolationmode none
attr recordingmode sum(packetBytes)
attr source packetDropped
attr title "packet drops, sum(packetBytes)"
scalar PhysicalLinkVisualizerFilteringShowcase.accessPoint.wlan[0].mac packetDropIncorrectlyReceived:count 0
attr interpolationmode none
attr recordingmode count
attr source packetDropReasonIsIncorrectlyReceived(packetDropped)
attr title "packet drops: incorrectly received, count"
scalar PhysicalLinkVisualizerFilteringShowcase.accessPoint.wlan[0].mac packetDropIncorrectlyReceived:sum(packetBytes) 0
attr interpolationmode none
attr recordingmode sum(packetBytes)
attr source packetDropReasonIsIncorrectlyReceived(packetDropped)
attr title "packet drops: incorrectly received, sum(packetBytes)"
scalar PhysicalLinkVisualizerFilteringShowcase.accessPoint.wlan[0].mac packetDropNotAddressedToUs:count 0
attr interpolationmode none
attr recordingmode count
attr source packetDropReasonIsNotAddressedToUs(packetDropped)
attr title "packet drops: not addressed to us, count"
scalar PhysicalLinkVisualizerFilteringShowcase.accessPoint.wlan[0].mac packetDropNotAddressedToUs:sum(packetBytes) 0
attr interpolationmode none
attr recordingmode sum(packetBytes)
attr source packetDropReasonIsNotAddressedToUs(packetDropped)
attr title "packet drops: not addressed to us, sum(packetBytes)"
scalar PhysicalLinkVisualizerFilteringShowcase.accessPoint.wlan[0].mac packetDropQueueOverflow:count 0
attr interpolationmode none
attr recordingmode count
attr source packetDropReasonIsQueueOverflow(packetDropped)
attr title "packet drops: queue overflow, count"
scalar PhysicalLinkVisualizerFilteringShowcase.accessPoint.wlan[0].mac packetDropQueueOverflow:sum(packetBytes) 0
attr interpolationmode none
attr recordingmode sum(packetBytes)
attr source packetDropReasonIsQueueOverflow(packetDropped)
attr title "packet drops: queue overflow, sum(packetBytes)"
scalar PhysicalLinkVisualizerFilteringShowcase.accessPoint.wlan[0].mac packetDropRetryLimitReached:count 0
attr interpolationmode none
attr recordingmode count
attr source packetDropReasonIsRetryLimitReached(packetDropped)
attr title "packet drops: retry limit reached, count"
scalar PhysicalLinkVisualizerFilteringShowcase.accessPoint.wlan[0].mac packetDropRetryLimitReached:sum(packetBytes) 0
attr interpolationmode none
attr recordingmode sum(packetBytes)
attr source packetDropReasonIsRetryLimitReached(packetDropped)
attr title "packet drops: retry limit reached, sum(packetBytes)"
scalar PhysicalLinkVisualizerFilteringShowcase.accessPoint.wlan[0].mac packetDropDuplicateDetected:count 0
attr interpolationmode none
attr recordingmode count
attr source packetDropReasonIsDuplicateDetected(packetDropped)
attr title "packet drops: duplicate detected, count"
scalar PhysicalLinkVisualizerFilteringShowcase.accessPoint.wlan[0].mac packetDropDuplicateDetected:sum(packetBytes) 0
attr interpolationmode none
attr recordingmode sum(packetBytes)
attr source packetDropReasonIsDuplicateDetected(packetDropped)
attr title "packet drops: duplicate detected, sum(packetBytes)"
scalar PhysicalLinkVisualizerFilteringShowcase.accessPoint.wlan[0].mac packetDropOther:count 0
attr interpolationmode none
attr recordingmode count
attr source packetDropReasonIsOther(packetDropped)
attr title "packet drops: other, count"
scalar PhysicalLinkVisualizerFilteringShowcase.accessPoint.wlan[0].mac packetDropOther:sum(packetBytes) 0
attr interpolationmode none
attr recordingmode sum(packetBytes)
attr source packetDropReasonIsOther(packetDropped)
attr title "packet drops: other, sum(packetBytes)"
scalar PhysicalLinkVisualizerFilteringShowcase.accessPoint.wlan[0].mac linkBroken:count 0
attr interpolationmode none
attr recordingmode count
attr title "link breaks, count"
statistic PhysicalLinkVisualizerFilteringShowcase.accessPoint.wlan[0].radio radioChannel:histogram
field count 1
field mean 0
field stddev nan
field min 0
field max 0
field sum 0
field sqrsum 0
attr interpolationmode sample-hold
attr recordingmode histogram
attr source radioChannelChanged
attr title "Radio channel"
bin	-inf	0
bin	-0.5	0
bin	-0.48	0
bin	-0.46	0
bin	-0.44	0
bin	-0.42	0
bin	-0.4	0
bin	-0.38	0
bin	-0.36	0
bin	-0.34	0
bin	-0.32	0
bin	-0.3	0
bin	-0.28	0
bin	-0.26	0
bin	-0.24	0
bin	-0.22	0
bin	-0.2	0
bin	-0.18	0
bin	-0.16	0
bin	-0.14	0
bin	-0.12	0
bin	-0.1	0
bin	-0.08	0
bin	-0.06	0
bin	-0.04	0
bin	-0.02	0
bin	0	1
bin	0.02	0
bin	0.04	0
bin	0.06	0
bin	0.08	0
bin	0.1	0
bin	0.12	0
bin	0.14	0
bin	0.16	0
bin	0.18	0
bin	0.2	0
bin	0.22	0
bin	0.24	0
bin	0.26	0
bin	0.28	0
bin	0.3	0
bin	0.32	0
bin	0.34	0
bin	0.36	0
bin	0.38	0
bin	0.4	0
bin	0.42	0
bin	0.44	0
bin	0.46	0
bin	0.48	0
bin	0.5	0
scalar PhysicalLinkVisualizerFilteringShowcase.accessPoint.wlan[0].radio radioMode:count 7045
attr interpolationmode sample-hold
attr recordingmode count
attr source radioModeChanged
attr title "Radio mode, count"
scalar PhysicalLinkVisualizerFilteringShowcase.accessPoint.wlan[0].radio receptionState:count 9091
attr interpolationmode sample-hold
attr recordingmode count
attr source receptionStateChanged
attr title "Radio reception state, count"
scalar PhysicalLinkVisualizerFilteringShowcase.accessPoint.wlan[0].radio transmissionState:count 14084
attr interpolationmode sample-hold
attr recordingmode count
attr source transmissionStateChanged
attr title "Radio transmission state, count"
statistic PhysicalLinkVisualizerFilteringShowcase.accessPoint.wlan[0].radio minSnir:histogram
field count 1024
field mean 520.51609805588
field stddev 45.432660036182
field min 474.78222569858
field max 565.84462724966
field sum 533008.48440922
field sqrsum 279551098.04508
attr recordingmode histogram
attr source minimumSnir(packetSentToUpper)
attr title "Min SNIR"
bin	-inf	0
bin	452	0
bin	454	0
bin	456	0
bin	458	0
bin	460	0
bin	462	0
bin	464	0
bin	466	0
bin	468	0
bin	470	0
bin	472	0
bin	474	508
bin	476	0
bin	478	0
bin	480	0
bin	482	0
bin	484	0
bin	486	0
bin	488	0
bin	490	0
bin	492	0
bin	494	0
bin	496	0
bin	498	0
bin	500	0
bin	502	0
bin	504	0
bin	506	0
bin	508	0
bin	510	0
bin	512	0
bin	514	0
bin	516	0
bin	518	0
bin	520	0
bin	522	0
bin	524	0
bin	526	0
bin	528	0
bin	530	0
bin	532	0
bin	534	0
bin	536	0
bin	538	0
bin	540	0
bin	542	0
bin	544	0
bin	546	8
bin	548	0
bin	550	0
bin	552	0
bin	554	0
bin	556	0
bin	558	0
bin	560	0
bin	562	0
bin	564	508
bin	566	0
bin	568	0
bin	570	0
bin	572	0
bin	574	0
bin	576	0
bin	578	0
bin	580	0
bin	582	0
bin	584	0
bin	586	0
bin	588	0
bin	590	0
statistic PhysicalLinkVisualizerFilteringShowcase.accessPoint.wlan[0].radio packetErrorRate:histogram
field count 1024
field mean 0
field stddev 0
field min 0
field max 0
field sum 0
field sqrsum 0
attr recordingmode histogram
attr source packetErrorRate(packetSentToUpper)
attr title "Packet error rate"
bin	-inf	0
bin	-0.5	0
bin	-0.48	0
bin	-0.46	0
bin	-0.44	0
bin	-0.42	0
bin	-0.4	0
bin	-0.38	0
bin	-0.36	0
bin	-0.34	0
bin	-0.32	0
bin	-0.3	0
bin	-0.28	0
bin	-0.26	0
bin	-0.24	0
bin	-0.22	0
bin	-0.2	0
bin	-0.18	0
bin	-0.16	0
bin	-0.14	0
bin	-0.12	0
bin	-0.1	0
bin	-0.08	0
bin	-0.06	0
bin	-0.04	0
bin	-0.02	0
bin	0	1024
bin	0.02	0
bin	0.04	0
bin	0.06	0
bin	0.08	0
bin	0.1	0
bin	0.12	0
bin	0.14	0
bin	0.16	0
bin	0.18	0
bin	0.2	0
bin	0.22	0
bin	0.24	0
bin	0.26	0
bin	0.28	0
bin	0.3	0
bin	0.32	0
bin	0.34	0
bin	0.36	0
bin	0.38	0
bin	0.4	0
bin	0.42	0
bin	0.44	0
bin	0.46	0
bin	0.48	0
bin	0.5	0
statistic PhysicalLinkVisualizerFilteringShowcase.accessPoint.wlan[0].radio bitErrorRate:histogram
field count 0
field mean -nan
field stddev nan
field min nan
field max nan
field sum 0
field sqrsum 0
attr recordingmode histogram
attr source bitErrorRate(packetSentToUpper)
attr title "Bit error rate"
bin	-inf	0
bin	0	0
bin	1	0
statistic PhysicalLinkVisualizerFilteringShowcase.accessPoint.wlan[0].radio symbolErrorRate:histogram
field count 0
field mean -nan
field stddev nan
field min nan
field max nan
field sum 0
field sqrsum 0
attr recordingmode histogram
attr source symbolErrorRate(packetSentToUpper)
attr title "Symbol error rate"
bin	-inf	0
bin	0	0
bin	1	0
scalar PhysicalLinkVisualizerFilteringShowcase.accessPoint.wlan[0] packetDropInterfaceDown:count 0
attr interpolationmode none
attr recordingmode count
attr source packetDropReasonIsInterfaceDown(packetDropped)
attr title "packet drops: interface down, count"
scalar PhysicalLinkVisualizerFilteringShowcase.accessPoint.wlan[0] packetDropInterfaceDown:sum(packetBytes) 0
attr interpolationmode none
attr recordingmode sum(packetBytes)
attr source packetDropReasonIsInterfaceDown(packetDropped)
attr title "packet drops: interface down, sum(packetBytes)"
scalar PhysicalLinkVisualizerFilteringShowcase.accessPoint.wlan[0] packetDropNoCarrier:count 0
attr interpolationmode none
attr recordingmode count
attr source packetDropReasonIsNoCarrier(packetDropped)
attr title "packet drops: no carrier, count"
scalar PhysicalLinkVisualizerFilteringShowcase.accessPoint.wlan[0] packetDropNoCarrier:sum(packetBytes) 0
attr interpolationmode none
attr recordingmode sum(packetBytes)
attr source packetDropReasonIsNoCarrier(packetDropped)
attr title "packet drops: no carrier, sum(packetBytes)"

