version 3
run ARPTest-0-20250108-11:18:58-9479
attr configname ARPTest
attr datetime 20250108-11:18:58
attr datetimef 20250108-111858
attr experiment ARPTest
attr inifile omnetpp.ini
attr iterationvars ""
attr iterationvarsd ""
attr iterationvarsf ""
attr measurement ""
attr network ARPTest
attr processid 9479
attr repetition 0
attr replication #0
attr resultdir results
attr runnumber 0
attr seedset 0
config **.param-recording false
config image-path /home/levy/workspace/inet/images
config output-scalar-file results/omnetpp.ini-ARPTest-#0.sca
config output-vector-file results/omnetpp.ini-ARPTest-#0.vec
config sim-time-limit 500s
config **.client.numApps 1
config **.client.app[*].typename TcpSessionApp
config **.client.app[*].active true
config **.client.app[*].localAddress "\"\""
config **.client.app[*].localPort -1
config **.client.app[*].connectAddress "\"server\""
config **.client.app[*].connectPort 1000
config **.client.app[*].tOpen 1.0s
config **.client.app[*].tSend 1.1s
config **.client.app[*].sendBytes 1MiB
config **.client.app[*].sendScript "\"\""
config **.client.app[*].tClose 0s
config **.server.numApps 1
config **.server.app[*].typename TcpEchoApp
config **.server.app[0].localAddress "\"\""
config **.server.app[0].localPort 1000
config **.server.app[0].echoFactor 2.0
config **.server.app[0].echoDelay 0s
config **.eth[*].duplexMode true
config **.ppp[*].queue.typename DropTailQueue
config **.ppp[*].queue.packetCapacity 10
config **.eth[*].queue.typename EthernetQosQueue
config **.eth[*].queue.dataQueue.typename DropTailQueue
config **.eth[*].queue.dataQueue.packetCapacity 10
config **.switch*.bridging.typename MacRelayUnit
config network ARPTest
config sim-time-limit 500s
config total-stack 2MiB

scalar ARPTest.client.ethernet pauseSent:count 0
scalar ARPTest.client.ethernet pauseSent:sum 0
scalar ARPTest.client.ethernet decapPk:count 5896
scalar ARPTest.client.ethernet decapPk:sum(packetBytes) 2351780
scalar ARPTest.client.ethernet encapPk:count 5937
scalar ARPTest.client.ethernet encapPk:sum(packetBytes) 1313384
scalar ARPTest.client.lo[0].lo rcvdPkFromHl:count 0
scalar ARPTest.client.lo[0].lo rcvdPkFromHl:sum(packetBytes) 0
scalar ARPTest.client.lo[0].lo passedUpPk:count 0
scalar ARPTest.client.lo[0].lo passedUpPk:sum(packetBytes) 0
scalar ARPTest.client.lo[0] packetDropInterfaceDown:count 0
scalar ARPTest.client.lo[0] packetDropInterfaceDown:sum(packetBytes) 0
scalar ARPTest.client.lo[0] packetDropNoCarrier:count 0
scalar ARPTest.client.lo[0] packetDropNoCarrier:sum(packetBytes) 0
scalar ARPTest.client.eth[0].queue.classifier packets:count 5937
scalar ARPTest.client.eth[0].queue.classifier packetLengths:sum 11362000
scalar ARPTest.client.eth[0].queue.pauseQueue queueLength:last 0
scalar ARPTest.client.eth[0].queue.pauseQueue queueLength:max 0
scalar ARPTest.client.eth[0].queue.pauseQueue queueLength:timeavg 0
scalar ARPTest.client.eth[0].queue.pauseQueue queueBitLength:last 0
scalar ARPTest.client.eth[0].queue.pauseQueue queueBitLength:max 0
scalar ARPTest.client.eth[0].queue.pauseQueue queueBitLength:timeavg 0
scalar ARPTest.client.eth[0].queue.pauseQueue outgoingPackets:count 0
scalar ARPTest.client.eth[0].queue.pauseQueue outgoingPacketLengths:sum 0
scalar ARPTest.client.eth[0].queue.pauseQueue incomingPackets:count 0
scalar ARPTest.client.eth[0].queue.pauseQueue incomingPacketLengths:sum 0
scalar ARPTest.client.eth[0].queue.pauseQueue droppedPacketsQueueOverflow:count 0
scalar ARPTest.client.eth[0].queue.pauseQueue droppedPacketLengthsQueueOverflow:sum 0
scalar ARPTest.client.eth[0].queue.dataQueue queueLength:last 0
scalar ARPTest.client.eth[0].queue.dataQueue queueLength:max 10
scalar ARPTest.client.eth[0].queue.dataQueue queueLength:timeavg 0.0012935856125
scalar ARPTest.client.eth[0].queue.dataQueue queueBitLength:last 0
scalar ARPTest.client.eth[0].queue.dataQueue queueBitLength:max 47520
scalar ARPTest.client.eth[0].queue.dataQueue queueBitLength:timeavg 5.78985829852
scalar ARPTest.client.eth[0].queue.dataQueue outgoingPackets:count 5897
scalar ARPTest.client.eth[0].queue.dataQueue outgoingPacketLengths:sum 11171920
scalar ARPTest.client.eth[0].queue.dataQueue incomingPackets:count 5937
scalar ARPTest.client.eth[0].queue.dataQueue incomingPacketLengths:sum 11362000
scalar ARPTest.client.eth[0].queue.dataQueue droppedPacketsQueueOverflow:count 40
scalar ARPTest.client.eth[0].queue.dataQueue droppedPacketLengthsQueueOverflow:sum 190080
scalar ARPTest.client.eth[0].queue.scheduler packets:count 5897
scalar ARPTest.client.eth[0].queue.scheduler packetLengths:sum 11171920
scalar ARPTest.client.eth[0].queue queueLength:last -5897
scalar ARPTest.client.eth[0].queue queueLength:max 0
scalar ARPTest.client.eth[0].queue queueLength:timeavg -5825.644981982
scalar ARPTest.client.eth[0].queue queueBitLength:last -11171920
scalar ARPTest.client.eth[0].queue queueBitLength:max 0
scalar ARPTest.client.eth[0].queue queueBitLength:timeavg -11048163.190395
scalar ARPTest.client.eth[0].queue outgoingPackets:count 5897
scalar ARPTest.client.eth[0].queue outgoingPacketLengths:sum 11171920
scalar ARPTest.client.eth[0].queue incomingPackets:count 0
scalar ARPTest.client.eth[0].queue incomingPacketLengths:sum 0
scalar ARPTest.client.eth[0].queue droppedPacketsQueueOverflow:count 0
scalar ARPTest.client.eth[0].queue droppedPacketLengthsQueueOverflow:sum 0
scalar ARPTest.client.eth[0].mac "simulated time" 500
scalar ARPTest.client.eth[0].mac full-duplex 1
scalar ARPTest.client.eth[0].mac "frames/sec sent" 11.794
scalar ARPTest.client.eth[0].mac "frames/sec rcvd" 11.792
scalar ARPTest.client.eth[0].mac "bits/sec sent" 22721.152
scalar ARPTest.client.eth[0].mac "bits/sec rcvd" 39326.528
scalar ARPTest.client.eth[0].mac "rx channel idle (%)" 99.959918784
scalar ARPTest.client.eth[0].mac "rx channel utilization (%)" 0.040081216
scalar ARPTest.client.eth[0].mac rxPausePkUnits:count 0
scalar ARPTest.client.eth[0].mac rxPausePkUnits:sum 0
scalar ARPTest.client.eth[0].mac txPausePkUnits:count 0
scalar ARPTest.client.eth[0].mac txPausePkUnits:sum 0
scalar ARPTest.client.eth[0].mac rxPkOk:count 5896
scalar ARPTest.client.eth[0].mac rxPkOk:sum(packetBytes) 2457908
scalar ARPTest.client.eth[0].mac txPk:count 5897
scalar ARPTest.client.eth[0].mac txPk:sum(packetBytes) 1420072
scalar ARPTest.client.eth[0].mac packetReceivedFromUpper:count 5897
scalar ARPTest.client.eth[0].mac packetReceivedFromUpper:sum(packetBytes) 1396490
scalar ARPTest.client.eth[0].mac passedUpPk:count 5896
scalar ARPTest.client.eth[0].mac passedUpPk:sum(packetBytes) 2457908
scalar ARPTest.client.eth[0].mac packetDropIncorrectlyReceived:count 0
scalar ARPTest.client.eth[0].mac packetDropIncorrectlyReceived:sum(packetBytes) 0
scalar ARPTest.client.eth[0].mac packetDropInterfaceDown:count 0
scalar ARPTest.client.eth[0].mac packetDropInterfaceDown:sum(packetBytes) 0
scalar ARPTest.client.eth[0].mac packetDropNotAddressedToUs:count 0
scalar ARPTest.client.eth[0].mac packetDropNotAddressedToUs:sum(packetBytes) 0
scalar ARPTest.client.eth[0] packetDropInterfaceDown:count 0
scalar ARPTest.client.eth[0] packetDropInterfaceDown:sum(packetBytes) 0
scalar ARPTest.client.eth[0] packetDropNoCarrier:count 0
scalar ARPTest.client.eth[0] packetDropNoCarrier:sum(packetBytes) 0
scalar ARPTest.client.ipv4.ip packetDropAddressResolutionFailed:count 0
scalar ARPTest.client.ipv4.ip packetDropAddressResolutionFailed:sum(packetBytes) 0
scalar ARPTest.client.ipv4.ip packetDropHopLimitReached:count 0
scalar ARPTest.client.ipv4.ip packetDropHopLimitReached:sum(packetBytes) 0
scalar ARPTest.client.ipv4.ip packetDropForwardingDisabled:count 0
scalar ARPTest.client.ipv4.ip packetDropForwardingDisabled:sum(packetBytes) 0
scalar ARPTest.client.ipv4.ip packetDropLifetimeExpired:count 0
scalar ARPTest.client.ipv4.ip packetDropLifetimeExpired:sum(packetBytes) 0
scalar ARPTest.client.ipv4.ip packetDropNoInterfaceFound:count 0
scalar ARPTest.client.ipv4.ip packetDropNoInterfaceFound:sum(packetBytes) 0
scalar ARPTest.client.ipv4.ip packetDropNoRouteFound:count 0
scalar ARPTest.client.ipv4.ip packetDropNoRouteFound:sum(packetBytes) 0
scalar ARPTest.client.ipv4.ip packetDropUndefined:count 0
scalar ARPTest.client.ipv4.ip packetDropUndefined:sum(packetBytes) 0
scalar ARPTest.client.ipv4.arp arpResolutionFailed:count 0
scalar ARPTest.client.ipv4.arp arpResolutionCompleted:count 1
scalar ARPTest.client.ipv4.arp arpResolutionInitiated:count 1
scalar ARPTest.client.ipv4.arp arpReplySent:count 0
scalar ARPTest.client.ipv4.arp arpReplySent:sum(packetBytes) 0
scalar ARPTest.client.ipv4.arp arpRequestSent:count 1
scalar ARPTest.client.ipv4.arp arpRequestSent:sum(packetBytes) 28
scalar ARPTest.client.udp packetReceived:count 0
scalar ARPTest.client.udp packetReceived:sum(packetBytes) 0
scalar ARPTest.client.udp packetSent:count 0
scalar ARPTest.client.udp packetSent:sum(packetBytes) 0
scalar ARPTest.client.udp passedUpPk:count 0
scalar ARPTest.client.udp droppedPkWrongPort:count 0
scalar ARPTest.client.udp droppedPkBadChecksum:count 0
scalar ARPTest.client.app[0] bytesRcvd 2097152
scalar ARPTest.client.app[0] bytesSent 1048576
scalar ARPTest.client.app[0] packetReceived:count 3372
scalar ARPTest.client.app[0] packetReceived:sum(packetBytes) 2097152
scalar ARPTest.client.app[0] packetSent:count 1
scalar ARPTest.client.app[0] packetSent:sum(packetBytes) 1048576
scalar ARPTest.host1.ethernet pauseSent:count 0
scalar ARPTest.host1.ethernet pauseSent:sum 0
scalar ARPTest.host1.ethernet decapPk:count 1
scalar ARPTest.host1.ethernet decapPk:sum(packetBytes) 46
scalar ARPTest.host1.ethernet encapPk:count 0
scalar ARPTest.host1.ethernet encapPk:sum(packetBytes) 0
scalar ARPTest.host1.lo[0].lo rcvdPkFromHl:count 0
scalar ARPTest.host1.lo[0].lo rcvdPkFromHl:sum(packetBytes) 0
scalar ARPTest.host1.lo[0].lo passedUpPk:count 0
scalar ARPTest.host1.lo[0].lo passedUpPk:sum(packetBytes) 0
scalar ARPTest.host1.lo[0] packetDropInterfaceDown:count 0
scalar ARPTest.host1.lo[0] packetDropInterfaceDown:sum(packetBytes) 0
scalar ARPTest.host1.lo[0] packetDropNoCarrier:count 0
scalar ARPTest.host1.lo[0] packetDropNoCarrier:sum(packetBytes) 0
scalar ARPTest.host1.eth[0].queue.classifier packets:count 0
scalar ARPTest.host1.eth[0].queue.classifier packetLengths:sum 0
scalar ARPTest.host1.eth[0].queue.pauseQueue queueLength:last 0
scalar ARPTest.host1.eth[0].queue.pauseQueue queueLength:max 0
scalar ARPTest.host1.eth[0].queue.pauseQueue queueLength:timeavg 0
scalar ARPTest.host1.eth[0].queue.pauseQueue queueBitLength:last 0
scalar ARPTest.host1.eth[0].queue.pauseQueue queueBitLength:max 0
scalar ARPTest.host1.eth[0].queue.pauseQueue queueBitLength:timeavg 0
scalar ARPTest.host1.eth[0].queue.pauseQueue outgoingPackets:count 0
scalar ARPTest.host1.eth[0].queue.pauseQueue outgoingPacketLengths:sum 0
scalar ARPTest.host1.eth[0].queue.pauseQueue incomingPackets:count 0
scalar ARPTest.host1.eth[0].queue.pauseQueue incomingPacketLengths:sum 0
scalar ARPTest.host1.eth[0].queue.pauseQueue droppedPacketsQueueOverflow:count 0
scalar ARPTest.host1.eth[0].queue.pauseQueue droppedPacketLengthsQueueOverflow:sum 0
scalar ARPTest.host1.eth[0].queue.dataQueue queueLength:last 0
scalar ARPTest.host1.eth[0].queue.dataQueue queueLength:max 0
scalar ARPTest.host1.eth[0].queue.dataQueue queueLength:timeavg 0
scalar ARPTest.host1.eth[0].queue.dataQueue queueBitLength:last 0
scalar ARPTest.host1.eth[0].queue.dataQueue queueBitLength:max 0
scalar ARPTest.host1.eth[0].queue.dataQueue queueBitLength:timeavg 0
scalar ARPTest.host1.eth[0].queue.dataQueue outgoingPackets:count 0
scalar ARPTest.host1.eth[0].queue.dataQueue outgoingPacketLengths:sum 0
scalar ARPTest.host1.eth[0].queue.dataQueue incomingPackets:count 0
scalar ARPTest.host1.eth[0].queue.dataQueue incomingPacketLengths:sum 0
scalar ARPTest.host1.eth[0].queue.dataQueue droppedPacketsQueueOverflow:count 0
scalar ARPTest.host1.eth[0].queue.dataQueue droppedPacketLengthsQueueOverflow:sum 0
scalar ARPTest.host1.eth[0].queue.scheduler packets:count 0
scalar ARPTest.host1.eth[0].queue.scheduler packetLengths:sum 0
scalar ARPTest.host1.eth[0].queue queueLength:last 0
scalar ARPTest.host1.eth[0].queue queueLength:max 0
scalar ARPTest.host1.eth[0].queue queueLength:timeavg 0
scalar ARPTest.host1.eth[0].queue queueBitLength:last 0
scalar ARPTest.host1.eth[0].queue queueBitLength:max 0
scalar ARPTest.host1.eth[0].queue queueBitLength:timeavg 0
scalar ARPTest.host1.eth[0].queue outgoingPackets:count 0
scalar ARPTest.host1.eth[0].queue outgoingPacketLengths:sum 0
scalar ARPTest.host1.eth[0].queue incomingPackets:count 0
scalar ARPTest.host1.eth[0].queue incomingPacketLengths:sum 0
scalar ARPTest.host1.eth[0].queue droppedPacketsQueueOverflow:count 0
scalar ARPTest.host1.eth[0].queue droppedPacketLengthsQueueOverflow:sum 0
scalar ARPTest.host1.eth[0].mac "simulated time" 500
scalar ARPTest.host1.eth[0].mac full-duplex 1
scalar ARPTest.host1.eth[0].mac "frames/sec sent" 0
scalar ARPTest.host1.eth[0].mac "frames/sec rcvd" 0.002
scalar ARPTest.host1.eth[0].mac "bits/sec sent" 0
scalar ARPTest.host1.eth[0].mac "bits/sec rcvd" 1.024
scalar ARPTest.host1.eth[0].mac "rx channel idle (%)" 99.999998848
scalar ARPTest.host1.eth[0].mac "rx channel utilization (%)" 1.152e-06
scalar ARPTest.host1.eth[0].mac rxPausePkUnits:count 0
scalar ARPTest.host1.eth[0].mac rxPausePkUnits:sum 0
scalar ARPTest.host1.eth[0].mac txPausePkUnits:count 0
scalar ARPTest.host1.eth[0].mac txPausePkUnits:sum 0
scalar ARPTest.host1.eth[0].mac rxPkOk:count 1
scalar ARPTest.host1.eth[0].mac rxPkOk:sum(packetBytes) 64
scalar ARPTest.host1.eth[0].mac txPk:count 0
scalar ARPTest.host1.eth[0].mac txPk:sum(packetBytes) 0
scalar ARPTest.host1.eth[0].mac packetReceivedFromUpper:count 0
scalar ARPTest.host1.eth[0].mac packetReceivedFromUpper:sum(packetBytes) 0
scalar ARPTest.host1.eth[0].mac passedUpPk:count 1
scalar ARPTest.host1.eth[0].mac passedUpPk:sum(packetBytes) 64
scalar ARPTest.host1.eth[0].mac packetDropIncorrectlyReceived:count 0
scalar ARPTest.host1.eth[0].mac packetDropIncorrectlyReceived:sum(packetBytes) 0
scalar ARPTest.host1.eth[0].mac packetDropInterfaceDown:count 0
scalar ARPTest.host1.eth[0].mac packetDropInterfaceDown:sum(packetBytes) 0
scalar ARPTest.host1.eth[0].mac packetDropNotAddressedToUs:count 0
scalar ARPTest.host1.eth[0].mac packetDropNotAddressedToUs:sum(packetBytes) 0
scalar ARPTest.host1.eth[0] packetDropInterfaceDown:count 0
scalar ARPTest.host1.eth[0] packetDropInterfaceDown:sum(packetBytes) 0
scalar ARPTest.host1.eth[0] packetDropNoCarrier:count 0
scalar ARPTest.host1.eth[0] packetDropNoCarrier:sum(packetBytes) 0
scalar ARPTest.host1.ipv4.ip packetDropAddressResolutionFailed:count 0
scalar ARPTest.host1.ipv4.ip packetDropAddressResolutionFailed:sum(packetBytes) 0
scalar ARPTest.host1.ipv4.ip packetDropHopLimitReached:count 0
scalar ARPTest.host1.ipv4.ip packetDropHopLimitReached:sum(packetBytes) 0
scalar ARPTest.host1.ipv4.ip packetDropForwardingDisabled:count 0
scalar ARPTest.host1.ipv4.ip packetDropForwardingDisabled:sum(packetBytes) 0
scalar ARPTest.host1.ipv4.ip packetDropLifetimeExpired:count 0
scalar ARPTest.host1.ipv4.ip packetDropLifetimeExpired:sum(packetBytes) 0
scalar ARPTest.host1.ipv4.ip packetDropNoInterfaceFound:count 0
scalar ARPTest.host1.ipv4.ip packetDropNoInterfaceFound:sum(packetBytes) 0
scalar ARPTest.host1.ipv4.ip packetDropNoRouteFound:count 0
scalar ARPTest.host1.ipv4.ip packetDropNoRouteFound:sum(packetBytes) 0
scalar ARPTest.host1.ipv4.ip packetDropUndefined:count 0
scalar ARPTest.host1.ipv4.ip packetDropUndefined:sum(packetBytes) 0
scalar ARPTest.host1.ipv4.arp arpResolutionFailed:count 0
scalar ARPTest.host1.ipv4.arp arpResolutionCompleted:count 0
scalar ARPTest.host1.ipv4.arp arpResolutionInitiated:count 0
scalar ARPTest.host1.ipv4.arp arpReplySent:count 0
scalar ARPTest.host1.ipv4.arp arpReplySent:sum(packetBytes) 0
scalar ARPTest.host1.ipv4.arp arpRequestSent:count 0
scalar ARPTest.host1.ipv4.arp arpRequestSent:sum(packetBytes) 0
scalar ARPTest.host1.udp packetReceived:count 0
scalar ARPTest.host1.udp packetReceived:sum(packetBytes) 0
scalar ARPTest.host1.udp packetSent:count 0
scalar ARPTest.host1.udp packetSent:sum(packetBytes) 0
scalar ARPTest.host1.udp passedUpPk:count 0
scalar ARPTest.host1.udp droppedPkWrongPort:count 0
scalar ARPTest.host1.udp droppedPkBadChecksum:count 0
scalar ARPTest.host2.ethernet pauseSent:count 0
scalar ARPTest.host2.ethernet pauseSent:sum 0
scalar ARPTest.host2.ethernet decapPk:count 1
scalar ARPTest.host2.ethernet decapPk:sum(packetBytes) 46
scalar ARPTest.host2.ethernet encapPk:count 0
scalar ARPTest.host2.ethernet encapPk:sum(packetBytes) 0
scalar ARPTest.host2.lo[0].lo rcvdPkFromHl:count 0
scalar ARPTest.host2.lo[0].lo rcvdPkFromHl:sum(packetBytes) 0
scalar ARPTest.host2.lo[0].lo passedUpPk:count 0
scalar ARPTest.host2.lo[0].lo passedUpPk:sum(packetBytes) 0
scalar ARPTest.host2.lo[0] packetDropInterfaceDown:count 0
scalar ARPTest.host2.lo[0] packetDropInterfaceDown:sum(packetBytes) 0
scalar ARPTest.host2.lo[0] packetDropNoCarrier:count 0
scalar ARPTest.host2.lo[0] packetDropNoCarrier:sum(packetBytes) 0
scalar ARPTest.host2.eth[0].queue.classifier packets:count 0
scalar ARPTest.host2.eth[0].queue.classifier packetLengths:sum 0
scalar ARPTest.host2.eth[0].queue.pauseQueue queueLength:last 0
scalar ARPTest.host2.eth[0].queue.pauseQueue queueLength:max 0
scalar ARPTest.host2.eth[0].queue.pauseQueue queueLength:timeavg 0
scalar ARPTest.host2.eth[0].queue.pauseQueue queueBitLength:last 0
scalar ARPTest.host2.eth[0].queue.pauseQueue queueBitLength:max 0
scalar ARPTest.host2.eth[0].queue.pauseQueue queueBitLength:timeavg 0
scalar ARPTest.host2.eth[0].queue.pauseQueue outgoingPackets:count 0
scalar ARPTest.host2.eth[0].queue.pauseQueue outgoingPacketLengths:sum 0
scalar ARPTest.host2.eth[0].queue.pauseQueue incomingPackets:count 0
scalar ARPTest.host2.eth[0].queue.pauseQueue incomingPacketLengths:sum 0
scalar ARPTest.host2.eth[0].queue.pauseQueue droppedPacketsQueueOverflow:count 0
scalar ARPTest.host2.eth[0].queue.pauseQueue droppedPacketLengthsQueueOverflow:sum 0
scalar ARPTest.host2.eth[0].queue.dataQueue queueLength:last 0
scalar ARPTest.host2.eth[0].queue.dataQueue queueLength:max 0
scalar ARPTest.host2.eth[0].queue.dataQueue queueLength:timeavg 0
scalar ARPTest.host2.eth[0].queue.dataQueue queueBitLength:last 0
scalar ARPTest.host2.eth[0].queue.dataQueue queueBitLength:max 0
scalar ARPTest.host2.eth[0].queue.dataQueue queueBitLength:timeavg 0
scalar ARPTest.host2.eth[0].queue.dataQueue outgoingPackets:count 0
scalar ARPTest.host2.eth[0].queue.dataQueue outgoingPacketLengths:sum 0
scalar ARPTest.host2.eth[0].queue.dataQueue incomingPackets:count 0
scalar ARPTest.host2.eth[0].queue.dataQueue incomingPacketLengths:sum 0
scalar ARPTest.host2.eth[0].queue.dataQueue droppedPacketsQueueOverflow:count 0
scalar ARPTest.host2.eth[0].queue.dataQueue droppedPacketLengthsQueueOverflow:sum 0
scalar ARPTest.host2.eth[0].queue.scheduler packets:count 0
scalar ARPTest.host2.eth[0].queue.scheduler packetLengths:sum 0
scalar ARPTest.host2.eth[0].queue queueLength:last 0
scalar ARPTest.host2.eth[0].queue queueLength:max 0
scalar ARPTest.host2.eth[0].queue queueLength:timeavg 0
scalar ARPTest.host2.eth[0].queue queueBitLength:last 0
scalar ARPTest.host2.eth[0].queue queueBitLength:max 0
scalar ARPTest.host2.eth[0].queue queueBitLength:timeavg 0
scalar ARPTest.host2.eth[0].queue outgoingPackets:count 0
scalar ARPTest.host2.eth[0].queue outgoingPacketLengths:sum 0
scalar ARPTest.host2.eth[0].queue incomingPackets:count 0
scalar ARPTest.host2.eth[0].queue incomingPacketLengths:sum 0
scalar ARPTest.host2.eth[0].queue droppedPacketsQueueOverflow:count 0
scalar ARPTest.host2.eth[0].queue droppedPacketLengthsQueueOverflow:sum 0
scalar ARPTest.host2.eth[0].mac "simulated time" 500
scalar ARPTest.host2.eth[0].mac full-duplex 1
scalar ARPTest.host2.eth[0].mac "frames/sec sent" 0
scalar ARPTest.host2.eth[0].mac "frames/sec rcvd" 0.002
scalar ARPTest.host2.eth[0].mac "bits/sec sent" 0
scalar ARPTest.host2.eth[0].mac "bits/sec rcvd" 1.024
scalar ARPTest.host2.eth[0].mac "rx channel idle (%)" 99.999998848
scalar ARPTest.host2.eth[0].mac "rx channel utilization (%)" 1.152e-06
scalar ARPTest.host2.eth[0].mac rxPausePkUnits:count 0
scalar ARPTest.host2.eth[0].mac rxPausePkUnits:sum 0
scalar ARPTest.host2.eth[0].mac txPausePkUnits:count 0
scalar ARPTest.host2.eth[0].mac txPausePkUnits:sum 0
scalar ARPTest.host2.eth[0].mac rxPkOk:count 1
scalar ARPTest.host2.eth[0].mac rxPkOk:sum(packetBytes) 64
scalar ARPTest.host2.eth[0].mac txPk:count 0
scalar ARPTest.host2.eth[0].mac txPk:sum(packetBytes) 0
scalar ARPTest.host2.eth[0].mac packetReceivedFromUpper:count 0
scalar ARPTest.host2.eth[0].mac packetReceivedFromUpper:sum(packetBytes) 0
scalar ARPTest.host2.eth[0].mac passedUpPk:count 1
scalar ARPTest.host2.eth[0].mac passedUpPk:sum(packetBytes) 64
scalar ARPTest.host2.eth[0].mac packetDropIncorrectlyReceived:count 0
scalar ARPTest.host2.eth[0].mac packetDropIncorrectlyReceived:sum(packetBytes) 0
scalar ARPTest.host2.eth[0].mac packetDropInterfaceDown:count 0
scalar ARPTest.host2.eth[0].mac packetDropInterfaceDown:sum(packetBytes) 0
scalar ARPTest.host2.eth[0].mac packetDropNotAddressedToUs:count 0
scalar ARPTest.host2.eth[0].mac packetDropNotAddressedToUs:sum(packetBytes) 0
scalar ARPTest.host2.eth[0] packetDropInterfaceDown:count 0
scalar ARPTest.host2.eth[0] packetDropInterfaceDown:sum(packetBytes) 0
scalar ARPTest.host2.eth[0] packetDropNoCarrier:count 0
scalar ARPTest.host2.eth[0] packetDropNoCarrier:sum(packetBytes) 0
scalar ARPTest.host2.ipv4.ip packetDropAddressResolutionFailed:count 0
scalar ARPTest.host2.ipv4.ip packetDropAddressResolutionFailed:sum(packetBytes) 0
scalar ARPTest.host2.ipv4.ip packetDropHopLimitReached:count 0
scalar ARPTest.host2.ipv4.ip packetDropHopLimitReached:sum(packetBytes) 0
scalar ARPTest.host2.ipv4.ip packetDropForwardingDisabled:count 0
scalar ARPTest.host2.ipv4.ip packetDropForwardingDisabled:sum(packetBytes) 0
scalar ARPTest.host2.ipv4.ip packetDropLifetimeExpired:count 0
scalar ARPTest.host2.ipv4.ip packetDropLifetimeExpired:sum(packetBytes) 0
scalar ARPTest.host2.ipv4.ip packetDropNoInterfaceFound:count 0
scalar ARPTest.host2.ipv4.ip packetDropNoInterfaceFound:sum(packetBytes) 0
scalar ARPTest.host2.ipv4.ip packetDropNoRouteFound:count 0
scalar ARPTest.host2.ipv4.ip packetDropNoRouteFound:sum(packetBytes) 0
scalar ARPTest.host2.ipv4.ip packetDropUndefined:count 0
scalar ARPTest.host2.ipv4.ip packetDropUndefined:sum(packetBytes) 0
scalar ARPTest.host2.ipv4.arp arpResolutionFailed:count 0
scalar ARPTest.host2.ipv4.arp arpResolutionCompleted:count 0
scalar ARPTest.host2.ipv4.arp arpResolutionInitiated:count 0
scalar ARPTest.host2.ipv4.arp arpReplySent:count 0
scalar ARPTest.host2.ipv4.arp arpReplySent:sum(packetBytes) 0
scalar ARPTest.host2.ipv4.arp arpRequestSent:count 0
scalar ARPTest.host2.ipv4.arp arpRequestSent:sum(packetBytes) 0
scalar ARPTest.host2.udp packetReceived:count 0
scalar ARPTest.host2.udp packetReceived:sum(packetBytes) 0
scalar ARPTest.host2.udp packetSent:count 0
scalar ARPTest.host2.udp packetSent:sum(packetBytes) 0
scalar ARPTest.host2.udp passedUpPk:count 0
scalar ARPTest.host2.udp droppedPkWrongPort:count 0
scalar ARPTest.host2.udp droppedPkBadChecksum:count 0
scalar ARPTest.switch.bridging "processed frames" 11793
scalar ARPTest.switch.bridging "discarded frames" 0
scalar ARPTest.switch.bridging packetDropped:count 0
scalar ARPTest.switch.bridging packetDropped:sum(packetBytes) 0
scalar ARPTest.switch.ethernet pauseSent:count 0
scalar ARPTest.switch.ethernet pauseSent:sum 0
scalar ARPTest.switch.ethernet decapPk:count 11793
scalar ARPTest.switch.ethernet decapPk:sum(packetBytes) 3665706
scalar ARPTest.switch.ethernet encapPk:count 11795
scalar ARPTest.switch.ethernet encapPk:sum(packetBytes) 3665798
scalar ARPTest.switch.eth[0].queue.classifier packets:count 5896
scalar ARPTest.switch.eth[0].queue.classifier packetLengths:sum 19663264
scalar ARPTest.switch.eth[0].queue.pauseQueue queueLength:last 0
scalar ARPTest.switch.eth[0].queue.pauseQueue queueLength:max 0
scalar ARPTest.switch.eth[0].queue.pauseQueue queueLength:timeavg 0
scalar ARPTest.switch.eth[0].queue.pauseQueue queueBitLength:last 0
scalar ARPTest.switch.eth[0].queue.pauseQueue queueBitLength:max 0
scalar ARPTest.switch.eth[0].queue.pauseQueue queueBitLength:timeavg 0
scalar ARPTest.switch.eth[0].queue.pauseQueue outgoingPackets:count 0
scalar ARPTest.switch.eth[0].queue.pauseQueue outgoingPacketLengths:sum 0
scalar ARPTest.switch.eth[0].queue.pauseQueue incomingPackets:count 0
scalar ARPTest.switch.eth[0].queue.pauseQueue incomingPacketLengths:sum 0
scalar ARPTest.switch.eth[0].queue.pauseQueue droppedPacketsQueueOverflow:count 0
scalar ARPTest.switch.eth[0].queue.pauseQueue droppedPacketLengthsQueueOverflow:sum 0
scalar ARPTest.switch.eth[0].queue.dataQueue queueLength:last 0
scalar ARPTest.switch.eth[0].queue.dataQueue queueLength:max 7
scalar ARPTest.switch.eth[0].queue.dataQueue queueLength:timeavg 2.5229324094e-05
scalar ARPTest.switch.eth[0].queue.dataQueue queueBitLength:last 0
scalar ARPTest.switch.eth[0].queue.dataQueue queueBitLength:max 3584
scalar ARPTest.switch.eth[0].queue.dataQueue queueBitLength:timeavg 0.013004228656128
scalar ARPTest.switch.eth[0].queue.dataQueue outgoingPackets:count 5896
scalar ARPTest.switch.eth[0].queue.dataQueue outgoingPacketLengths:sum 19663264
scalar ARPTest.switch.eth[0].queue.dataQueue incomingPackets:count 5896
scalar ARPTest.switch.eth[0].queue.dataQueue incomingPacketLengths:sum 19663264
scalar ARPTest.switch.eth[0].queue.dataQueue droppedPacketsQueueOverflow:count 0
scalar ARPTest.switch.eth[0].queue.dataQueue droppedPacketLengthsQueueOverflow:sum 0
scalar ARPTest.switch.eth[0].queue.scheduler packets:count 5896
scalar ARPTest.switch.eth[0].queue.scheduler packetLengths:sum 19663264
scalar ARPTest.switch.eth[0].queue queueLength:last -5896
scalar ARPTest.switch.eth[0].queue queueLength:max 0
scalar ARPTest.switch.eth[0].queue queueLength:timeavg -5824.6468257396
scalar ARPTest.switch.eth[0].queue queueBitLength:last -19663264
scalar ARPTest.switch.eth[0].queue queueBitLength:max 0
scalar ARPTest.switch.eth[0].queue queueBitLength:timeavg -19413904.573076
scalar ARPTest.switch.eth[0].queue outgoingPackets:count 5896
scalar ARPTest.switch.eth[0].queue outgoingPacketLengths:sum 19663264
scalar ARPTest.switch.eth[0].queue incomingPackets:count 0
scalar ARPTest.switch.eth[0].queue incomingPacketLengths:sum 0
scalar ARPTest.switch.eth[0].queue droppedPacketsQueueOverflow:count 0
scalar ARPTest.switch.eth[0].queue droppedPacketLengthsQueueOverflow:sum 0
scalar ARPTest.switch.eth[0].mac "simulated time" 500
scalar ARPTest.switch.eth[0].mac full-duplex 1
scalar ARPTest.switch.eth[0].mac "frames/sec sent" 11.792
scalar ARPTest.switch.eth[0].mac "frames/sec rcvd" 11.794
scalar ARPTest.switch.eth[0].mac "bits/sec sent" 39326.528
scalar ARPTest.switch.eth[0].mac "bits/sec rcvd" 22721.152
scalar ARPTest.switch.eth[0].mac "rx channel idle (%)" 99.976524032
scalar ARPTest.switch.eth[0].mac "rx channel utilization (%)" 0.023475968
scalar ARPTest.switch.eth[0].mac rxPausePkUnits:count 0
scalar ARPTest.switch.eth[0].mac rxPausePkUnits:sum 0
scalar ARPTest.switch.eth[0].mac txPausePkUnits:count 0
scalar ARPTest.switch.eth[0].mac txPausePkUnits:sum 0
scalar ARPTest.switch.eth[0].mac rxPkOk:count 5897
scalar ARPTest.switch.eth[0].mac rxPkOk:sum(packetBytes) 1420072
scalar ARPTest.switch.eth[0].mac txPk:count 5896
scalar ARPTest.switch.eth[0].mac txPk:sum(packetBytes) 2457908
scalar ARPTest.switch.eth[0].mac packetReceivedFromUpper:count 5896
scalar ARPTest.switch.eth[0].mac packetReceivedFromUpper:sum(packetBytes) 2457908
scalar ARPTest.switch.eth[0].mac passedUpPk:count 5897
scalar ARPTest.switch.eth[0].mac passedUpPk:sum(packetBytes) 1420072
scalar ARPTest.switch.eth[0].mac packetDropIncorrectlyReceived:count 0
scalar ARPTest.switch.eth[0].mac packetDropIncorrectlyReceived:sum(packetBytes) 0
scalar ARPTest.switch.eth[0].mac packetDropInterfaceDown:count 0
scalar ARPTest.switch.eth[0].mac packetDropInterfaceDown:sum(packetBytes) 0
scalar ARPTest.switch.eth[0].mac packetDropNotAddressedToUs:count 0
scalar ARPTest.switch.eth[0].mac packetDropNotAddressedToUs:sum(packetBytes) 0
scalar ARPTest.switch.eth[0] packetDropInterfaceDown:count 0
scalar ARPTest.switch.eth[0] packetDropInterfaceDown:sum(packetBytes) 0
scalar ARPTest.switch.eth[0] packetDropNoCarrier:count 0
scalar ARPTest.switch.eth[0] packetDropNoCarrier:sum(packetBytes) 0
scalar ARPTest.switch.eth[1].queue.classifier packets:count 1
scalar ARPTest.switch.eth[1].queue.classifier packetLengths:sum 512
scalar ARPTest.switch.eth[1].queue.pauseQueue queueLength:last 0
scalar ARPTest.switch.eth[1].queue.pauseQueue queueLength:max 0
scalar ARPTest.switch.eth[1].queue.pauseQueue queueLength:timeavg 0
scalar ARPTest.switch.eth[1].queue.pauseQueue queueBitLength:last 0
scalar ARPTest.switch.eth[1].queue.pauseQueue queueBitLength:max 0
scalar ARPTest.switch.eth[1].queue.pauseQueue queueBitLength:timeavg 0
scalar ARPTest.switch.eth[1].queue.pauseQueue outgoingPackets:count 0
scalar ARPTest.switch.eth[1].queue.pauseQueue outgoingPacketLengths:sum 0
scalar ARPTest.switch.eth[1].queue.pauseQueue incomingPackets:count 0
scalar ARPTest.switch.eth[1].queue.pauseQueue incomingPacketLengths:sum 0
scalar ARPTest.switch.eth[1].queue.pauseQueue droppedPacketsQueueOverflow:count 0
scalar ARPTest.switch.eth[1].queue.pauseQueue droppedPacketLengthsQueueOverflow:sum 0
scalar ARPTest.switch.eth[1].queue.dataQueue queueLength:last 0
scalar ARPTest.switch.eth[1].queue.dataQueue queueLength:max 0
scalar ARPTest.switch.eth[1].queue.dataQueue queueLength:timeavg 0
scalar ARPTest.switch.eth[1].queue.dataQueue queueBitLength:last 0
scalar ARPTest.switch.eth[1].queue.dataQueue queueBitLength:max 0
scalar ARPTest.switch.eth[1].queue.dataQueue queueBitLength:timeavg 0
scalar ARPTest.switch.eth[1].queue.dataQueue outgoingPackets:count 1
scalar ARPTest.switch.eth[1].queue.dataQueue outgoingPacketLengths:sum 512
scalar ARPTest.switch.eth[1].queue.dataQueue incomingPackets:count 1
scalar ARPTest.switch.eth[1].queue.dataQueue incomingPacketLengths:sum 512
scalar ARPTest.switch.eth[1].queue.dataQueue droppedPacketsQueueOverflow:count 0
scalar ARPTest.switch.eth[1].queue.dataQueue droppedPacketLengthsQueueOverflow:sum 0
scalar ARPTest.switch.eth[1].queue.scheduler packets:count 1
scalar ARPTest.switch.eth[1].queue.scheduler packetLengths:sum 512
scalar ARPTest.switch.eth[1].queue queueLength:last -1
scalar ARPTest.switch.eth[1].queue queueLength:max 0
scalar ARPTest.switch.eth[1].queue queueLength:timeavg -0.99799998838
scalar ARPTest.switch.eth[1].queue queueBitLength:last -512
scalar ARPTest.switch.eth[1].queue queueBitLength:max 0
scalar ARPTest.switch.eth[1].queue queueBitLength:timeavg -510.97599405056
scalar ARPTest.switch.eth[1].queue outgoingPackets:count 1
scalar ARPTest.switch.eth[1].queue outgoingPacketLengths:sum 512
scalar ARPTest.switch.eth[1].queue incomingPackets:count 0
scalar ARPTest.switch.eth[1].queue incomingPacketLengths:sum 0
scalar ARPTest.switch.eth[1].queue droppedPacketsQueueOverflow:count 0
scalar ARPTest.switch.eth[1].queue droppedPacketLengthsQueueOverflow:sum 0
scalar ARPTest.switch.eth[1].mac "simulated time" 500
scalar ARPTest.switch.eth[1].mac full-duplex 1
scalar ARPTest.switch.eth[1].mac "frames/sec sent" 0.002
scalar ARPTest.switch.eth[1].mac "frames/sec rcvd" 0
scalar ARPTest.switch.eth[1].mac "bits/sec sent" 1.024
scalar ARPTest.switch.eth[1].mac "bits/sec rcvd" 0
scalar ARPTest.switch.eth[1].mac "rx channel idle (%)" 100
scalar ARPTest.switch.eth[1].mac "rx channel utilization (%)" 0
scalar ARPTest.switch.eth[1].mac rxPausePkUnits:count 0
scalar ARPTest.switch.eth[1].mac rxPausePkUnits:sum 0
scalar ARPTest.switch.eth[1].mac txPausePkUnits:count 0
scalar ARPTest.switch.eth[1].mac txPausePkUnits:sum 0
scalar ARPTest.switch.eth[1].mac rxPkOk:count 0
scalar ARPTest.switch.eth[1].mac rxPkOk:sum(packetBytes) 0
scalar ARPTest.switch.eth[1].mac txPk:count 1
scalar ARPTest.switch.eth[1].mac txPk:sum(packetBytes) 64
scalar ARPTest.switch.eth[1].mac packetReceivedFromUpper:count 1
scalar ARPTest.switch.eth[1].mac packetReceivedFromUpper:sum(packetBytes) 64
scalar ARPTest.switch.eth[1].mac passedUpPk:count 0
scalar ARPTest.switch.eth[1].mac passedUpPk:sum(packetBytes) 0
scalar ARPTest.switch.eth[1].mac packetDropIncorrectlyReceived:count 0
scalar ARPTest.switch.eth[1].mac packetDropIncorrectlyReceived:sum(packetBytes) 0
scalar ARPTest.switch.eth[1].mac packetDropInterfaceDown:count 0
scalar ARPTest.switch.eth[1].mac packetDropInterfaceDown:sum(packetBytes) 0
scalar ARPTest.switch.eth[1].mac packetDropNotAddressedToUs:count 0
scalar ARPTest.switch.eth[1].mac packetDropNotAddressedToUs:sum(packetBytes) 0
scalar ARPTest.switch.eth[1] packetDropInterfaceDown:count 0
scalar ARPTest.switch.eth[1] packetDropInterfaceDown:sum(packetBytes) 0
scalar ARPTest.switch.eth[1] packetDropNoCarrier:count 0
scalar ARPTest.switch.eth[1] packetDropNoCarrier:sum(packetBytes) 0
scalar ARPTest.switch.eth[2].queue.classifier packets:count 1
scalar ARPTest.switch.eth[2].queue.classifier packetLengths:sum 512
scalar ARPTest.switch.eth[2].queue.pauseQueue queueLength:last 0
scalar ARPTest.switch.eth[2].queue.pauseQueue queueLength:max 0
scalar ARPTest.switch.eth[2].queue.pauseQueue queueLength:timeavg 0
scalar ARPTest.switch.eth[2].queue.pauseQueue queueBitLength:last 0
scalar ARPTest.switch.eth[2].queue.pauseQueue queueBitLength:max 0
scalar ARPTest.switch.eth[2].queue.pauseQueue queueBitLength:timeavg 0
scalar ARPTest.switch.eth[2].queue.pauseQueue outgoingPackets:count 0
scalar ARPTest.switch.eth[2].queue.pauseQueue outgoingPacketLengths:sum 0
scalar ARPTest.switch.eth[2].queue.pauseQueue incomingPackets:count 0
scalar ARPTest.switch.eth[2].queue.pauseQueue incomingPacketLengths:sum 0
scalar ARPTest.switch.eth[2].queue.pauseQueue droppedPacketsQueueOverflow:count 0
scalar ARPTest.switch.eth[2].queue.pauseQueue droppedPacketLengthsQueueOverflow:sum 0
scalar ARPTest.switch.eth[2].queue.dataQueue queueLength:last 0
scalar ARPTest.switch.eth[2].queue.dataQueue queueLength:max 0
scalar ARPTest.switch.eth[2].queue.dataQueue queueLength:timeavg 0
scalar ARPTest.switch.eth[2].queue.dataQueue queueBitLength:last 0
scalar ARPTest.switch.eth[2].queue.dataQueue queueBitLength:max 0
scalar ARPTest.switch.eth[2].queue.dataQueue queueBitLength:timeavg 0
scalar ARPTest.switch.eth[2].queue.dataQueue outgoingPackets:count 1
scalar ARPTest.switch.eth[2].queue.dataQueue outgoingPacketLengths:sum 512
scalar ARPTest.switch.eth[2].queue.dataQueue incomingPackets:count 1
scalar ARPTest.switch.eth[2].queue.dataQueue incomingPacketLengths:sum 512
scalar ARPTest.switch.eth[2].queue.dataQueue droppedPacketsQueueOverflow:count 0
scalar ARPTest.switch.eth[2].queue.dataQueue droppedPacketLengthsQueueOverflow:sum 0
scalar ARPTest.switch.eth[2].queue.scheduler packets:count 1
scalar ARPTest.switch.eth[2].queue.scheduler packetLengths:sum 512
scalar ARPTest.switch.eth[2].queue queueLength:last -1
scalar ARPTest.switch.eth[2].queue queueLength:max 0
scalar ARPTest.switch.eth[2].queue queueLength:timeavg -0.99799998838
scalar ARPTest.switch.eth[2].queue queueBitLength:last -512
scalar ARPTest.switch.eth[2].queue queueBitLength:max 0
scalar ARPTest.switch.eth[2].queue queueBitLength:timeavg -510.97599405056
scalar ARPTest.switch.eth[2].queue outgoingPackets:count 1
scalar ARPTest.switch.eth[2].queue outgoingPacketLengths:sum 512
scalar ARPTest.switch.eth[2].queue incomingPackets:count 0
scalar ARPTest.switch.eth[2].queue incomingPacketLengths:sum 0
scalar ARPTest.switch.eth[2].queue droppedPacketsQueueOverflow:count 0
scalar ARPTest.switch.eth[2].queue droppedPacketLengthsQueueOverflow:sum 0
scalar ARPTest.switch.eth[2].mac "simulated time" 500
scalar ARPTest.switch.eth[2].mac full-duplex 1
scalar ARPTest.switch.eth[2].mac "frames/sec sent" 0.002
scalar ARPTest.switch.eth[2].mac "frames/sec rcvd" 0
scalar ARPTest.switch.eth[2].mac "bits/sec sent" 1.024
scalar ARPTest.switch.eth[2].mac "bits/sec rcvd" 0
scalar ARPTest.switch.eth[2].mac "rx channel idle (%)" 100
scalar ARPTest.switch.eth[2].mac "rx channel utilization (%)" 0
scalar ARPTest.switch.eth[2].mac rxPausePkUnits:count 0
scalar ARPTest.switch.eth[2].mac rxPausePkUnits:sum 0
scalar ARPTest.switch.eth[2].mac txPausePkUnits:count 0
scalar ARPTest.switch.eth[2].mac txPausePkUnits:sum 0
scalar ARPTest.switch.eth[2].mac rxPkOk:count 0
scalar ARPTest.switch.eth[2].mac rxPkOk:sum(packetBytes) 0
scalar ARPTest.switch.eth[2].mac txPk:count 1
scalar ARPTest.switch.eth[2].mac txPk:sum(packetBytes) 64
scalar ARPTest.switch.eth[2].mac packetReceivedFromUpper:count 1
scalar ARPTest.switch.eth[2].mac packetReceivedFromUpper:sum(packetBytes) 64
scalar ARPTest.switch.eth[2].mac passedUpPk:count 0
scalar ARPTest.switch.eth[2].mac passedUpPk:sum(packetBytes) 0
scalar ARPTest.switch.eth[2].mac packetDropIncorrectlyReceived:count 0
scalar ARPTest.switch.eth[2].mac packetDropIncorrectlyReceived:sum(packetBytes) 0
scalar ARPTest.switch.eth[2].mac packetDropInterfaceDown:count 0
scalar ARPTest.switch.eth[2].mac packetDropInterfaceDown:sum(packetBytes) 0
scalar ARPTest.switch.eth[2].mac packetDropNotAddressedToUs:count 0
scalar ARPTest.switch.eth[2].mac packetDropNotAddressedToUs:sum(packetBytes) 0
scalar ARPTest.switch.eth[2] packetDropInterfaceDown:count 0
scalar ARPTest.switch.eth[2] packetDropInterfaceDown:sum(packetBytes) 0
scalar ARPTest.switch.eth[2] packetDropNoCarrier:count 0
scalar ARPTest.switch.eth[2] packetDropNoCarrier:sum(packetBytes) 0
scalar ARPTest.switch.eth[3].queue.classifier packets:count 5897
scalar ARPTest.switch.eth[3].queue.classifier packetLengths:sum 11360576
scalar ARPTest.switch.eth[3].queue.pauseQueue queueLength:last 0
scalar ARPTest.switch.eth[3].queue.pauseQueue queueLength:max 0
scalar ARPTest.switch.eth[3].queue.pauseQueue queueLength:timeavg 0
scalar ARPTest.switch.eth[3].queue.pauseQueue queueBitLength:last 0
scalar ARPTest.switch.eth[3].queue.pauseQueue queueBitLength:max 0
scalar ARPTest.switch.eth[3].queue.pauseQueue queueBitLength:timeavg 0
scalar ARPTest.switch.eth[3].queue.pauseQueue outgoingPackets:count 0
scalar ARPTest.switch.eth[3].queue.pauseQueue outgoingPacketLengths:sum 0
scalar ARPTest.switch.eth[3].queue.pauseQueue incomingPackets:count 0
scalar ARPTest.switch.eth[3].queue.pauseQueue incomingPacketLengths:sum 0
scalar ARPTest.switch.eth[3].queue.pauseQueue droppedPacketsQueueOverflow:count 0
scalar ARPTest.switch.eth[3].queue.pauseQueue droppedPacketLengthsQueueOverflow:sum 0
scalar ARPTest.switch.eth[3].queue.dataQueue queueLength:last 0
scalar ARPTest.switch.eth[3].queue.dataQueue queueLength:max 7
scalar ARPTest.switch.eth[3].queue.dataQueue queueLength:timeavg 2.447518875e-05
scalar ARPTest.switch.eth[3].queue.dataQueue queueBitLength:last 0
scalar ARPTest.switch.eth[3].queue.dataQueue queueBitLength:max 3584
scalar ARPTest.switch.eth[3].queue.dataQueue queueBitLength:timeavg 0.01260541376
scalar ARPTest.switch.eth[3].queue.dataQueue outgoingPackets:count 5897
scalar ARPTest.switch.eth[3].queue.dataQueue outgoingPacketLengths:sum 11360576
scalar ARPTest.switch.eth[3].queue.dataQueue incomingPackets:count 5897
scalar ARPTest.switch.eth[3].queue.dataQueue incomingPacketLengths:sum 11360576
scalar ARPTest.switch.eth[3].queue.dataQueue droppedPacketsQueueOverflow:count 0
scalar ARPTest.switch.eth[3].queue.dataQueue droppedPacketLengthsQueueOverflow:sum 0
scalar ARPTest.switch.eth[3].queue.scheduler packets:count 5897
scalar ARPTest.switch.eth[3].queue.scheduler packetLengths:sum 11360576
scalar ARPTest.switch.eth[3].queue queueLength:last -5897
scalar ARPTest.switch.eth[3].queue queueLength:max 0
scalar ARPTest.switch.eth[3].queue queueLength:timeavg -5825.6447221575
scalar ARPTest.switch.eth[3].queue queueBitLength:last -11360576
scalar ARPTest.switch.eth[3].queue queueBitLength:max 0
scalar ARPTest.switch.eth[3].queue queueBitLength:timeavg -11234408.189741
scalar ARPTest.switch.eth[3].queue outgoingPackets:count 5897
scalar ARPTest.switch.eth[3].queue outgoingPacketLengths:sum 11360576
scalar ARPTest.switch.eth[3].queue incomingPackets:count 0
scalar ARPTest.switch.eth[3].queue incomingPacketLengths:sum 0
scalar ARPTest.switch.eth[3].queue droppedPacketsQueueOverflow:count 0
scalar ARPTest.switch.eth[3].queue droppedPacketLengthsQueueOverflow:sum 0
scalar ARPTest.switch.eth[3].mac "simulated time" 500
scalar ARPTest.switch.eth[3].mac full-duplex 1
scalar ARPTest.switch.eth[3].mac "frames/sec sent" 11.794
scalar ARPTest.switch.eth[3].mac "frames/sec rcvd" 11.792
scalar ARPTest.switch.eth[3].mac "bits/sec sent" 22721.152
scalar ARPTest.switch.eth[3].mac "bits/sec rcvd" 39326.528
scalar ARPTest.switch.eth[3].mac "rx channel idle (%)" 99.959918784
scalar ARPTest.switch.eth[3].mac "rx channel utilization (%)" 0.040081216
scalar ARPTest.switch.eth[3].mac rxPausePkUnits:count 0
scalar ARPTest.switch.eth[3].mac rxPausePkUnits:sum 0
scalar ARPTest.switch.eth[3].mac txPausePkUnits:count 0
scalar ARPTest.switch.eth[3].mac txPausePkUnits:sum 0
scalar ARPTest.switch.eth[3].mac rxPkOk:count 5896
scalar ARPTest.switch.eth[3].mac rxPkOk:sum(packetBytes) 2457908
scalar ARPTest.switch.eth[3].mac txPk:count 5897
scalar ARPTest.switch.eth[3].mac txPk:sum(packetBytes) 1420072
scalar ARPTest.switch.eth[3].mac packetReceivedFromUpper:count 5897
scalar ARPTest.switch.eth[3].mac packetReceivedFromUpper:sum(packetBytes) 1420072
scalar ARPTest.switch.eth[3].mac passedUpPk:count 5896
scalar ARPTest.switch.eth[3].mac passedUpPk:sum(packetBytes) 2457908
scalar ARPTest.switch.eth[3].mac packetDropIncorrectlyReceived:count 0
scalar ARPTest.switch.eth[3].mac packetDropIncorrectlyReceived:sum(packetBytes) 0
scalar ARPTest.switch.eth[3].mac packetDropInterfaceDown:count 0
scalar ARPTest.switch.eth[3].mac packetDropInterfaceDown:sum(packetBytes) 0
scalar ARPTest.switch.eth[3].mac packetDropNotAddressedToUs:count 0
scalar ARPTest.switch.eth[3].mac packetDropNotAddressedToUs:sum(packetBytes) 0
scalar ARPTest.switch.eth[3] packetDropInterfaceDown:count 0
scalar ARPTest.switch.eth[3] packetDropInterfaceDown:sum(packetBytes) 0
scalar ARPTest.switch.eth[3] packetDropNoCarrier:count 0
scalar ARPTest.switch.eth[3] packetDropNoCarrier:sum(packetBytes) 0
scalar ARPTest.net.lo[0].lo rcvdPkFromHl:count 0
scalar ARPTest.net.lo[0].lo rcvdPkFromHl:sum(packetBytes) 0
scalar ARPTest.net.lo[0].lo passedUpPk:count 0
scalar ARPTest.net.lo[0].lo passedUpPk:sum(packetBytes) 0
scalar ARPTest.net.lo[0] packetDropInterfaceDown:count 0
scalar ARPTest.net.lo[0] packetDropInterfaceDown:sum(packetBytes) 0
scalar ARPTest.net.lo[0] packetDropNoCarrier:count 0
scalar ARPTest.net.lo[0] packetDropNoCarrier:sum(packetBytes) 0
scalar ARPTest.net.ppp[0].queue queueLength:last 0
scalar ARPTest.net.ppp[0].queue queueLength:max 1
scalar ARPTest.net.ppp[0].queue queueLength:timeavg 2.871875e-08
scalar ARPTest.net.ppp[0].queue queueBitLength:last 0
scalar ARPTest.net.ppp[0].queue queueBitLength:max 320
scalar ARPTest.net.ppp[0].queue queueBitLength:timeavg 9.19e-06
scalar ARPTest.net.ppp[0].queue outgoingPackets:count 5960
scalar ARPTest.net.ppp[0].queue outgoingPacketLengths:sum 19018912
scalar ARPTest.net.ppp[0].queue incomingPackets:count 5960
scalar ARPTest.net.ppp[0].queue incomingPacketLengths:sum 19018912
scalar ARPTest.net.ppp[0].queue droppedPacketsQueueOverflow:count 0
scalar ARPTest.net.ppp[0].queue droppedPacketLengthsQueueOverflow:sum 0
scalar ARPTest.net.ppp[0].ppp transmissionState:timeavg 7.5596374999996e-05
scalar ARPTest.net.ppp[0].ppp rxPkOk:count 5896
scalar ARPTest.net.ppp[0].ppp rxPkOk:sum(packetBytes) 1331588
scalar ARPTest.net.ppp[0].ppp txPk:count 5960
scalar ARPTest.net.ppp[0].ppp txPk:sum(packetBytes) 2419084
scalar ARPTest.net.ppp[0].ppp rcvdPkFromHl:count 5960
scalar ARPTest.net.ppp[0].ppp rcvdPkFromHl:sum(packetBytes) 2377364
scalar ARPTest.net.ppp[0].ppp passedUpPk:count 5896
scalar ARPTest.net.ppp[0].ppp passedUpPk:sum(packetBytes) 1290316
scalar ARPTest.net.ppp[0].ppp packetDropIncorrectlyReceived:count 0
scalar ARPTest.net.ppp[0].ppp packetDropIncorrectlyReceived:sum(packetBytes) 0
scalar ARPTest.net.ppp[0].ppp packetDropInterfaceDown:count 0
scalar ARPTest.net.ppp[0].ppp packetDropInterfaceDown:sum(packetBytes) 0
scalar ARPTest.net.ppp[0] packetDropInterfaceDown:count 0
scalar ARPTest.net.ppp[0] packetDropInterfaceDown:sum(packetBytes) 0
scalar ARPTest.net.ppp[0] packetDropNoCarrier:count 0
scalar ARPTest.net.ppp[0] packetDropNoCarrier:sum(packetBytes) 0
scalar ARPTest.net.ppp[1].queue queueLength:last 0
scalar ARPTest.net.ppp[1].queue queueLength:max 2
scalar ARPTest.net.ppp[1].queue queueLength:timeavg 1.49683875e-06
scalar ARPTest.net.ppp[1].queue queueBitLength:last 0
scalar ARPTest.net.ppp[1].queue queueBitLength:max 640
scalar ARPTest.net.ppp[1].queue queueBitLength:timeavg 0.0004789884
scalar ARPTest.net.ppp[1].queue outgoingPackets:count 5896
scalar ARPTest.net.ppp[1].queue outgoingPacketLengths:sum 10322528
scalar ARPTest.net.ppp[1].queue incomingPackets:count 5896
scalar ARPTest.net.ppp[1].queue incomingPacketLengths:sum 10322528
scalar ARPTest.net.ppp[1].queue droppedPacketsQueueOverflow:count 0
scalar ARPTest.net.ppp[1].queue droppedPacketLengthsQueueOverflow:sum 0
scalar ARPTest.net.ppp[1].ppp transmissionState:timeavg 4.161212499999e-05
scalar ARPTest.net.ppp[1].ppp rxPkOk:count 5960
scalar ARPTest.net.ppp[1].ppp rxPkOk:sum(packetBytes) 2419084
scalar ARPTest.net.ppp[1].ppp txPk:count 5896
scalar ARPTest.net.ppp[1].ppp txPk:sum(packetBytes) 1331588
scalar ARPTest.net.ppp[1].ppp rcvdPkFromHl:count 5896
scalar ARPTest.net.ppp[1].ppp rcvdPkFromHl:sum(packetBytes) 1290316
scalar ARPTest.net.ppp[1].ppp passedUpPk:count 5960
scalar ARPTest.net.ppp[1].ppp passedUpPk:sum(packetBytes) 2377364
scalar ARPTest.net.ppp[1].ppp packetDropIncorrectlyReceived:count 0
scalar ARPTest.net.ppp[1].ppp packetDropIncorrectlyReceived:sum(packetBytes) 0
scalar ARPTest.net.ppp[1].ppp packetDropInterfaceDown:count 0
scalar ARPTest.net.ppp[1].ppp packetDropInterfaceDown:sum(packetBytes) 0
scalar ARPTest.net.ppp[1] packetDropInterfaceDown:count 0
scalar ARPTest.net.ppp[1] packetDropInterfaceDown:sum(packetBytes) 0
scalar ARPTest.net.ppp[1] packetDropNoCarrier:count 0
scalar ARPTest.net.ppp[1] packetDropNoCarrier:sum(packetBytes) 0
scalar ARPTest.net.ipv4.ip packetDropAddressResolutionFailed:count 0
scalar ARPTest.net.ipv4.ip packetDropAddressResolutionFailed:sum(packetBytes) 0
scalar ARPTest.net.ipv4.ip packetDropHopLimitReached:count 0
scalar ARPTest.net.ipv4.ip packetDropHopLimitReached:sum(packetBytes) 0
scalar ARPTest.net.ipv4.ip packetDropForwardingDisabled:count 0
scalar ARPTest.net.ipv4.ip packetDropForwardingDisabled:sum(packetBytes) 0
scalar ARPTest.net.ipv4.ip packetDropLifetimeExpired:count 0
scalar ARPTest.net.ipv4.ip packetDropLifetimeExpired:sum(packetBytes) 0
scalar ARPTest.net.ipv4.ip packetDropNoInterfaceFound:count 0
scalar ARPTest.net.ipv4.ip packetDropNoInterfaceFound:sum(packetBytes) 0
scalar ARPTest.net.ipv4.ip packetDropNoRouteFound:count 0
scalar ARPTest.net.ipv4.ip packetDropNoRouteFound:sum(packetBytes) 0
scalar ARPTest.net.ipv4.ip packetDropUndefined:count 0
scalar ARPTest.net.ipv4.ip packetDropUndefined:sum(packetBytes) 0
scalar ARPTest.net.ipv4.arp arpResolutionFailed:count 0
scalar ARPTest.net.ipv4.arp arpResolutionCompleted:count 0
scalar ARPTest.net.ipv4.arp arpResolutionInitiated:count 0
scalar ARPTest.net.ipv4.arp arpReplySent:count 0
scalar ARPTest.net.ipv4.arp arpReplySent:sum(packetBytes) 0
scalar ARPTest.net.ipv4.arp arpRequestSent:count 0
scalar ARPTest.net.ipv4.arp arpRequestSent:sum(packetBytes) 0
scalar ARPTest.router.ethernet pauseSent:count 0
scalar ARPTest.router.ethernet pauseSent:sum 0
scalar ARPTest.router.ethernet decapPk:count 5897
scalar ARPTest.router.ethernet decapPk:sum(packetBytes) 1313926
scalar ARPTest.router.ethernet encapPk:count 5961
scalar ARPTest.router.ethernet encapPk:sum(packetBytes) 2377392
scalar ARPTest.router.lo[0].lo rcvdPkFromHl:count 0
scalar ARPTest.router.lo[0].lo rcvdPkFromHl:sum(packetBytes) 0
scalar ARPTest.router.lo[0].lo passedUpPk:count 0
scalar ARPTest.router.lo[0].lo passedUpPk:sum(packetBytes) 0
scalar ARPTest.router.lo[0] packetDropInterfaceDown:count 0
scalar ARPTest.router.lo[0] packetDropInterfaceDown:sum(packetBytes) 0
scalar ARPTest.router.lo[0] packetDropNoCarrier:count 0
scalar ARPTest.router.lo[0] packetDropNoCarrier:sum(packetBytes) 0
scalar ARPTest.router.ppp[0].queue queueLength:last 0
scalar ARPTest.router.ppp[0].queue queueLength:max 1
scalar ARPTest.router.ppp[0].queue queueLength:timeavg 2.86725e-07
scalar ARPTest.router.ppp[0].queue queueBitLength:last 0
scalar ARPTest.router.ppp[0].queue queueBitLength:max 320
scalar ARPTest.router.ppp[0].queue queueBitLength:timeavg 9.1752e-05
scalar ARPTest.router.ppp[0].queue outgoingPackets:count 5896
scalar ARPTest.router.ppp[0].queue outgoingPacketLengths:sum 10322528
scalar ARPTest.router.ppp[0].queue incomingPackets:count 5896
scalar ARPTest.router.ppp[0].queue incomingPacketLengths:sum 10322528
scalar ARPTest.router.ppp[0].queue droppedPacketsQueueOverflow:count 0
scalar ARPTest.router.ppp[0].queue droppedPacketLengthsQueueOverflow:sum 0
scalar ARPTest.router.ppp[0].ppp transmissionState:timeavg 4.161212499999e-05
scalar ARPTest.router.ppp[0].ppp rxPkOk:count 5960
scalar ARPTest.router.ppp[0].ppp rxPkOk:sum(packetBytes) 2419084
scalar ARPTest.router.ppp[0].ppp txPk:count 5896
scalar ARPTest.router.ppp[0].ppp txPk:sum(packetBytes) 1331588
scalar ARPTest.router.ppp[0].ppp rcvdPkFromHl:count 5896
scalar ARPTest.router.ppp[0].ppp rcvdPkFromHl:sum(packetBytes) 1290316
scalar ARPTest.router.ppp[0].ppp passedUpPk:count 5960
scalar ARPTest.router.ppp[0].ppp passedUpPk:sum(packetBytes) 2377364
scalar ARPTest.router.ppp[0].ppp packetDropIncorrectlyReceived:count 0
scalar ARPTest.router.ppp[0].ppp packetDropIncorrectlyReceived:sum(packetBytes) 0
scalar ARPTest.router.ppp[0].ppp packetDropInterfaceDown:count 0
scalar ARPTest.router.ppp[0].ppp packetDropInterfaceDown:sum(packetBytes) 0
scalar ARPTest.router.ppp[0] packetDropInterfaceDown:count 0
scalar ARPTest.router.ppp[0] packetDropInterfaceDown:sum(packetBytes) 0
scalar ARPTest.router.ppp[0] packetDropNoCarrier:count 0
scalar ARPTest.router.ppp[0] packetDropNoCarrier:sum(packetBytes) 0
scalar ARPTest.router.eth[0].queue.classifier packets:count 5961
scalar ARPTest.router.eth[0].queue.classifier packetLengths:sum 19877520
scalar ARPTest.router.eth[0].queue.pauseQueue queueLength:last 0
scalar ARPTest.router.eth[0].queue.pauseQueue queueLength:max 0
scalar ARPTest.router.eth[0].queue.pauseQueue queueLength:timeavg 0
scalar ARPTest.router.eth[0].queue.pauseQueue queueBitLength:last 0
scalar ARPTest.router.eth[0].queue.pauseQueue queueBitLength:max 0
scalar ARPTest.router.eth[0].queue.pauseQueue queueBitLength:timeavg 0
scalar ARPTest.router.eth[0].queue.pauseQueue outgoingPackets:count 0
scalar ARPTest.router.eth[0].queue.pauseQueue outgoingPacketLengths:sum 0
scalar ARPTest.router.eth[0].queue.pauseQueue incomingPackets:count 0
scalar ARPTest.router.eth[0].queue.pauseQueue incomingPacketLengths:sum 0
scalar ARPTest.router.eth[0].queue.pauseQueue droppedPacketsQueueOverflow:count 0
scalar ARPTest.router.eth[0].queue.pauseQueue droppedPacketLengthsQueueOverflow:sum 0
scalar ARPTest.router.eth[0].queue.dataQueue queueLength:last 0
scalar ARPTest.router.eth[0].queue.dataQueue queueLength:max 10
scalar ARPTest.router.eth[0].queue.dataQueue queueLength:timeavg 0.002656009274094
scalar ARPTest.router.eth[0].queue.dataQueue queueBitLength:last 0
scalar ARPTest.router.eth[0].queue.dataQueue queueBitLength:max 47520
scalar ARPTest.router.eth[0].queue.dataQueue queueBitLength:timeavg 12.2058783259
scalar ARPTest.router.eth[0].queue.dataQueue outgoingPackets:count 5896
scalar ARPTest.router.eth[0].queue.dataQueue outgoingPacketLengths:sum 19568640
scalar ARPTest.router.eth[0].queue.dataQueue incomingPackets:count 5961
scalar ARPTest.router.eth[0].queue.dataQueue incomingPacketLengths:sum 19877520
scalar ARPTest.router.eth[0].queue.dataQueue droppedPacketsQueueOverflow:count 65
scalar ARPTest.router.eth[0].queue.dataQueue droppedPacketLengthsQueueOverflow:sum 308880
scalar ARPTest.router.eth[0].queue.scheduler packets:count 5896
scalar ARPTest.router.eth[0].queue.scheduler packetLengths:sum 19568640
scalar ARPTest.router.eth[0].queue queueLength:last -5896
scalar ARPTest.router.eth[0].queue queueLength:max 0
scalar ARPTest.router.eth[0].queue queueLength:timeavg -5824.6472523707
scalar ARPTest.router.eth[0].queue queueBitLength:last -19568640
scalar ARPTest.router.eth[0].queue queueBitLength:max 0
scalar ARPTest.router.eth[0].queue queueBitLength:timeavg -19320297.849222
scalar ARPTest.router.eth[0].queue outgoingPackets:count 5896
scalar ARPTest.router.eth[0].queue outgoingPacketLengths:sum 19568640
scalar ARPTest.router.eth[0].queue incomingPackets:count 0
scalar ARPTest.router.eth[0].queue incomingPacketLengths:sum 0
scalar ARPTest.router.eth[0].queue droppedPacketsQueueOverflow:count 0
scalar ARPTest.router.eth[0].queue droppedPacketLengthsQueueOverflow:sum 0
scalar ARPTest.router.eth[0].mac "simulated time" 500
scalar ARPTest.router.eth[0].mac full-duplex 1
scalar ARPTest.router.eth[0].mac "frames/sec sent" 11.792
scalar ARPTest.router.eth[0].mac "frames/sec rcvd" 11.794
scalar ARPTest.router.eth[0].mac "bits/sec sent" 39326.528
scalar ARPTest.router.eth[0].mac "bits/sec rcvd" 22721.152
scalar ARPTest.router.eth[0].mac "rx channel idle (%)" 99.976524032
scalar ARPTest.router.eth[0].mac "rx channel utilization (%)" 0.023475968
scalar ARPTest.router.eth[0].mac rxPausePkUnits:count 0
scalar ARPTest.router.eth[0].mac rxPausePkUnits:sum 0
scalar ARPTest.router.eth[0].mac txPausePkUnits:count 0
scalar ARPTest.router.eth[0].mac txPausePkUnits:sum 0
scalar ARPTest.router.eth[0].mac rxPkOk:count 5897
scalar ARPTest.router.eth[0].mac rxPkOk:sum(packetBytes) 1420072
scalar ARPTest.router.eth[0].mac txPk:count 5896
scalar ARPTest.router.eth[0].mac txPk:sum(packetBytes) 2457908
scalar ARPTest.router.eth[0].mac packetReceivedFromUpper:count 5896
scalar ARPTest.router.eth[0].mac packetReceivedFromUpper:sum(packetBytes) 2446080
scalar ARPTest.router.eth[0].mac passedUpPk:count 5897
scalar ARPTest.router.eth[0].mac passedUpPk:sum(packetBytes) 1420072
scalar ARPTest.router.eth[0].mac packetDropIncorrectlyReceived:count 0
scalar ARPTest.router.eth[0].mac packetDropIncorrectlyReceived:sum(packetBytes) 0
scalar ARPTest.router.eth[0].mac packetDropInterfaceDown:count 0
scalar ARPTest.router.eth[0].mac packetDropInterfaceDown:sum(packetBytes) 0
scalar ARPTest.router.eth[0].mac packetDropNotAddressedToUs:count 0
scalar ARPTest.router.eth[0].mac packetDropNotAddressedToUs:sum(packetBytes) 0
scalar ARPTest.router.eth[0] packetDropInterfaceDown:count 0
scalar ARPTest.router.eth[0] packetDropInterfaceDown:sum(packetBytes) 0
scalar ARPTest.router.eth[0] packetDropNoCarrier:count 0
scalar ARPTest.router.eth[0] packetDropNoCarrier:sum(packetBytes) 0
scalar ARPTest.router.ipv4.ip packetDropAddressResolutionFailed:count 0
scalar ARPTest.router.ipv4.ip packetDropAddressResolutionFailed:sum(packetBytes) 0
scalar ARPTest.router.ipv4.ip packetDropHopLimitReached:count 0
scalar ARPTest.router.ipv4.ip packetDropHopLimitReached:sum(packetBytes) 0
scalar ARPTest.router.ipv4.ip packetDropForwardingDisabled:count 0
scalar ARPTest.router.ipv4.ip packetDropForwardingDisabled:sum(packetBytes) 0
scalar ARPTest.router.ipv4.ip packetDropLifetimeExpired:count 0
scalar ARPTest.router.ipv4.ip packetDropLifetimeExpired:sum(packetBytes) 0
scalar ARPTest.router.ipv4.ip packetDropNoInterfaceFound:count 0
scalar ARPTest.router.ipv4.ip packetDropNoInterfaceFound:sum(packetBytes) 0
scalar ARPTest.router.ipv4.ip packetDropNoRouteFound:count 0
scalar ARPTest.router.ipv4.ip packetDropNoRouteFound:sum(packetBytes) 0
scalar ARPTest.router.ipv4.ip packetDropUndefined:count 0
scalar ARPTest.router.ipv4.ip packetDropUndefined:sum(packetBytes) 0
scalar ARPTest.router.ipv4.arp arpResolutionFailed:count 0
scalar ARPTest.router.ipv4.arp arpResolutionCompleted:count 1
scalar ARPTest.router.ipv4.arp arpResolutionInitiated:count 0
scalar ARPTest.router.ipv4.arp arpReplySent:count 1
scalar ARPTest.router.ipv4.arp arpReplySent:sum(packetBytes) 28
scalar ARPTest.router.ipv4.arp arpRequestSent:count 0
scalar ARPTest.router.ipv4.arp arpRequestSent:sum(packetBytes) 0
scalar ARPTest.server.lo[0].lo rcvdPkFromHl:count 0
scalar ARPTest.server.lo[0].lo rcvdPkFromHl:sum(packetBytes) 0
scalar ARPTest.server.lo[0].lo passedUpPk:count 0
scalar ARPTest.server.lo[0].lo passedUpPk:sum(packetBytes) 0
scalar ARPTest.server.lo[0] packetDropInterfaceDown:count 0
scalar ARPTest.server.lo[0] packetDropInterfaceDown:sum(packetBytes) 0
scalar ARPTest.server.lo[0] packetDropNoCarrier:count 0
scalar ARPTest.server.lo[0] packetDropNoCarrier:sum(packetBytes) 0
scalar ARPTest.server.ppp[0].queue queueLength:last 0
scalar ARPTest.server.ppp[0].queue queueLength:max 10
scalar ARPTest.server.ppp[0].queue queueLength:timeavg 2.707348125e-05
scalar ARPTest.server.ppp[0].queue queueBitLength:last 0
scalar ARPTest.server.ppp[0].queue queueBitLength:max 46080
scalar ARPTest.server.ppp[0].queue queueBitLength:timeavg 0.1245344396
scalar ARPTest.server.ppp[0].queue outgoingPackets:count 5960
scalar ARPTest.server.ppp[0].queue outgoingPacketLengths:sum 19018912
scalar ARPTest.server.ppp[0].queue incomingPackets:count 5963
scalar ARPTest.server.ppp[0].queue incomingPacketLengths:sum 19032736
scalar ARPTest.server.ppp[0].queue droppedPacketsQueueOverflow:count 3
scalar ARPTest.server.ppp[0].queue droppedPacketLengthsQueueOverflow:sum 13824
scalar ARPTest.server.ppp[0].ppp transmissionState:timeavg 7.5596374999996e-05
scalar ARPTest.server.ppp[0].ppp rxPkOk:count 5896
scalar ARPTest.server.ppp[0].ppp rxPkOk:sum(packetBytes) 1331588
scalar ARPTest.server.ppp[0].ppp txPk:count 5960
scalar ARPTest.server.ppp[0].ppp txPk:sum(packetBytes) 2419084
scalar ARPTest.server.ppp[0].ppp rcvdPkFromHl:count 5960
scalar ARPTest.server.ppp[0].ppp rcvdPkFromHl:sum(packetBytes) 2377364
scalar ARPTest.server.ppp[0].ppp passedUpPk:count 5896
scalar ARPTest.server.ppp[0].ppp passedUpPk:sum(packetBytes) 1290316
scalar ARPTest.server.ppp[0].ppp packetDropIncorrectlyReceived:count 0
scalar ARPTest.server.ppp[0].ppp packetDropIncorrectlyReceived:sum(packetBytes) 0
scalar ARPTest.server.ppp[0].ppp packetDropInterfaceDown:count 0
scalar ARPTest.server.ppp[0].ppp packetDropInterfaceDown:sum(packetBytes) 0
scalar ARPTest.server.ppp[0] packetDropInterfaceDown:count 0
scalar ARPTest.server.ppp[0] packetDropInterfaceDown:sum(packetBytes) 0
scalar ARPTest.server.ppp[0] packetDropNoCarrier:count 0
scalar ARPTest.server.ppp[0] packetDropNoCarrier:sum(packetBytes) 0
scalar ARPTest.server.ipv4.ip packetDropAddressResolutionFailed:count 0
scalar ARPTest.server.ipv4.ip packetDropAddressResolutionFailed:sum(packetBytes) 0
scalar ARPTest.server.ipv4.ip packetDropHopLimitReached:count 0
scalar ARPTest.server.ipv4.ip packetDropHopLimitReached:sum(packetBytes) 0
scalar ARPTest.server.ipv4.ip packetDropForwardingDisabled:count 0
scalar ARPTest.server.ipv4.ip packetDropForwardingDisabled:sum(packetBytes) 0
scalar ARPTest.server.ipv4.ip packetDropLifetimeExpired:count 0
scalar ARPTest.server.ipv4.ip packetDropLifetimeExpired:sum(packetBytes) 0
scalar ARPTest.server.ipv4.ip packetDropNoInterfaceFound:count 0
scalar ARPTest.server.ipv4.ip packetDropNoInterfaceFound:sum(packetBytes) 0
scalar ARPTest.server.ipv4.ip packetDropNoRouteFound:count 0
scalar ARPTest.server.ipv4.ip packetDropNoRouteFound:sum(packetBytes) 0
scalar ARPTest.server.ipv4.ip packetDropUndefined:count 0
scalar ARPTest.server.ipv4.ip packetDropUndefined:sum(packetBytes) 0
scalar ARPTest.server.ipv4.arp arpResolutionFailed:count 0
scalar ARPTest.server.ipv4.arp arpResolutionCompleted:count 0
scalar ARPTest.server.ipv4.arp arpResolutionInitiated:count 0
scalar ARPTest.server.ipv4.arp arpReplySent:count 0
scalar ARPTest.server.ipv4.arp arpReplySent:sum(packetBytes) 0
scalar ARPTest.server.ipv4.arp arpRequestSent:count 0
scalar ARPTest.server.ipv4.arp arpRequestSent:sum(packetBytes) 0
scalar ARPTest.server.udp packetReceived:count 0
scalar ARPTest.server.udp packetReceived:sum(packetBytes) 0
scalar ARPTest.server.udp packetSent:count 0
scalar ARPTest.server.udp packetSent:sum(packetBytes) 0
scalar ARPTest.server.udp passedUpPk:count 0
scalar ARPTest.server.udp droppedPkWrongPort:count 0
scalar ARPTest.server.udp droppedPkBadChecksum:count 0
scalar ARPTest.server.app[0] bytesRcvd 1048576
scalar ARPTest.server.app[0] bytesSent 2097152
scalar ARPTest.server.app[0] packetReceived:count 1689
scalar ARPTest.server.app[0] packetReceived:sum(packetBytes) 1048576
scalar ARPTest.server.app[0] packetSent:count 1689
scalar ARPTest.server.app[0] packetSent:sum(packetBytes) 2097152
scalar ARPTest.client.eth[0].queue.classifier packetLengths:histogram:count 5937
scalar ARPTest.client.eth[0].queue.classifier packetLengths:histogram:sumweights 5937
scalar ARPTest.client.eth[0].queue.classifier packetLengths:histogram:mean 1913.7611588344
scalar ARPTest.client.eth[0].queue.classifier packetLengths:histogram:stddev 2028.5120043286
scalar ARPTest.client.eth[0].queue.classifier packetLengths:histogram:min 368
scalar ARPTest.client.eth[0].queue.classifier packetLengths:histogram:max 4752
scalar ARPTest.client.eth[0].queue.classifier packetLengths:histogram:numbins 59
scalar ARPTest.client.eth[0].queue.classifier packetLengths:histogram:rangemin 0
scalar ARPTest.client.eth[0].queue.classifier packetLengths:histogram:rangemax 5900
scalar ARPTest.client.eth[0].queue.classifier packetLengths:histogram:underflows 0
scalar ARPTest.client.eth[0].queue.classifier packetLengths:histogram:overflows 0
scalar ARPTest.client.eth[0].queue.pauseQueue queueingTime:histogram:count 0
scalar ARPTest.client.eth[0].queue.pauseQueue queueingTime:histogram:sumweights 0
scalar ARPTest.client.eth[0].queue.pauseQueue queueingTime:histogram:mean -nan
scalar ARPTest.client.eth[0].queue.pauseQueue queueingTime:histogram:stddev nan
scalar ARPTest.client.eth[0].queue.pauseQueue queueingTime:histogram:min nan
scalar ARPTest.client.eth[0].queue.pauseQueue queueingTime:histogram:max nan
scalar ARPTest.client.eth[0].queue.pauseQueue queueingTime:histogram:numbins 1
scalar ARPTest.client.eth[0].queue.pauseQueue queueingTime:histogram:rangemin 0
scalar ARPTest.client.eth[0].queue.pauseQueue queueingTime:histogram:rangemax 1
scalar ARPTest.client.eth[0].queue.pauseQueue queueingTime:histogram:underflows 0
scalar ARPTest.client.eth[0].queue.pauseQueue queueingTime:histogram:overflows 0
scalar ARPTest.client.eth[0].queue.pauseQueue outgoingPacketLengths:histogram:count 0
scalar ARPTest.client.eth[0].queue.pauseQueue outgoingPacketLengths:histogram:sumweights 0
scalar ARPTest.client.eth[0].queue.pauseQueue outgoingPacketLengths:histogram:mean -nan
scalar ARPTest.client.eth[0].queue.pauseQueue outgoingPacketLengths:histogram:stddev nan
scalar ARPTest.client.eth[0].queue.pauseQueue outgoingPacketLengths:histogram:min nan
scalar ARPTest.client.eth[0].queue.pauseQueue outgoingPacketLengths:histogram:max nan
scalar ARPTest.client.eth[0].queue.pauseQueue outgoingPacketLengths:histogram:numbins 1
scalar ARPTest.client.eth[0].queue.pauseQueue outgoingPacketLengths:histogram:rangemin 0
scalar ARPTest.client.eth[0].queue.pauseQueue outgoingPacketLengths:histogram:rangemax 1
scalar ARPTest.client.eth[0].queue.pauseQueue outgoingPacketLengths:histogram:underflows 0
scalar ARPTest.client.eth[0].queue.pauseQueue outgoingPacketLengths:histogram:overflows 0
scalar ARPTest.client.eth[0].queue.pauseQueue flowQueueingTime:histogram:count 0
scalar ARPTest.client.eth[0].queue.pauseQueue flowQueueingTime:histogram:sumweights 0
scalar ARPTest.client.eth[0].queue.pauseQueue flowQueueingTime:histogram:mean -nan
scalar ARPTest.client.eth[0].queue.pauseQueue flowQueueingTime:histogram:stddev nan
scalar ARPTest.client.eth[0].queue.pauseQueue flowQueueingTime:histogram:min nan
scalar ARPTest.client.eth[0].queue.pauseQueue flowQueueingTime:histogram:max nan
scalar ARPTest.client.eth[0].queue.pauseQueue flowQueueingTime:histogram:numbins 1
scalar ARPTest.client.eth[0].queue.pauseQueue flowQueueingTime:histogram:rangemin 0
scalar ARPTest.client.eth[0].queue.pauseQueue flowQueueingTime:histogram:rangemax 1
scalar ARPTest.client.eth[0].queue.pauseQueue flowQueueingTime:histogram:underflows 0
scalar ARPTest.client.eth[0].queue.pauseQueue flowQueueingTime:histogram:overflows 0
scalar ARPTest.client.eth[0].queue.pauseQueue incomingPacketLengths:histogram:count 0
scalar ARPTest.client.eth[0].queue.pauseQueue incomingPacketLengths:histogram:sumweights 0
scalar ARPTest.client.eth[0].queue.pauseQueue incomingPacketLengths:histogram:mean -nan
scalar ARPTest.client.eth[0].queue.pauseQueue incomingPacketLengths:histogram:stddev nan
scalar ARPTest.client.eth[0].queue.pauseQueue incomingPacketLengths:histogram:min nan
scalar ARPTest.client.eth[0].queue.pauseQueue incomingPacketLengths:histogram:max nan
scalar ARPTest.client.eth[0].queue.pauseQueue incomingPacketLengths:histogram:numbins 1
scalar ARPTest.client.eth[0].queue.pauseQueue incomingPacketLengths:histogram:rangemin 0
scalar ARPTest.client.eth[0].queue.pauseQueue incomingPacketLengths:histogram:rangemax 1
scalar ARPTest.client.eth[0].queue.pauseQueue incomingPacketLengths:histogram:underflows 0
scalar ARPTest.client.eth[0].queue.pauseQueue incomingPacketLengths:histogram:overflows 0
scalar ARPTest.client.eth[0].queue.dataQueue queueingTime:histogram:count 5897
scalar ARPTest.client.eth[0].queue.dataQueue queueingTime:histogram:sumweights 5897
scalar ARPTest.client.eth[0].queue.dataQueue queueingTime:histogram:mean 0.00010968166970494
scalar ARPTest.client.eth[0].queue.dataQueue queueingTime:histogram:stddev 0.0001642917887847
scalar ARPTest.client.eth[0].queue.dataQueue queueingTime:histogram:min 0
scalar ARPTest.client.eth[0].queue.dataQueue queueingTime:histogram:max 0.0004912
scalar ARPTest.client.eth[0].queue.dataQueue queueingTime:histogram:numbins 50
scalar ARPTest.client.eth[0].queue.dataQueue queueingTime:histogram:rangemin 0
scalar ARPTest.client.eth[0].queue.dataQueue queueingTime:histogram:rangemax 0.0005
scalar ARPTest.client.eth[0].queue.dataQueue queueingTime:histogram:underflows 0
scalar ARPTest.client.eth[0].queue.dataQueue queueingTime:histogram:overflows 0
scalar ARPTest.client.eth[0].queue.dataQueue outgoingPacketLengths:histogram:count 5897
scalar ARPTest.client.eth[0].queue.dataQueue outgoingPacketLengths:histogram:sumweights 5897
scalar ARPTest.client.eth[0].queue.dataQueue outgoingPacketLengths:histogram:mean 1894.5090724097
scalar ARPTest.client.eth[0].queue.dataQueue outgoingPacketLengths:histogram:stddev 2021.8197861297
scalar ARPTest.client.eth[0].queue.dataQueue outgoingPacketLengths:histogram:min 368
scalar ARPTest.client.eth[0].queue.dataQueue outgoingPacketLengths:histogram:max 4752
scalar ARPTest.client.eth[0].queue.dataQueue outgoingPacketLengths:histogram:numbins 59
scalar ARPTest.client.eth[0].queue.dataQueue outgoingPacketLengths:histogram:rangemin 0
scalar ARPTest.client.eth[0].queue.dataQueue outgoingPacketLengths:histogram:rangemax 5900
scalar ARPTest.client.eth[0].queue.dataQueue outgoingPacketLengths:histogram:underflows 0
scalar ARPTest.client.eth[0].queue.dataQueue outgoingPacketLengths:histogram:overflows 0
scalar ARPTest.client.eth[0].queue.dataQueue flowQueueingTime:histogram:count 0
scalar ARPTest.client.eth[0].queue.dataQueue flowQueueingTime:histogram:sumweights 0
scalar ARPTest.client.eth[0].queue.dataQueue flowQueueingTime:histogram:mean -nan
scalar ARPTest.client.eth[0].queue.dataQueue flowQueueingTime:histogram:stddev nan
scalar ARPTest.client.eth[0].queue.dataQueue flowQueueingTime:histogram:min nan
scalar ARPTest.client.eth[0].queue.dataQueue flowQueueingTime:histogram:max nan
scalar ARPTest.client.eth[0].queue.dataQueue flowQueueingTime:histogram:numbins 1
scalar ARPTest.client.eth[0].queue.dataQueue flowQueueingTime:histogram:rangemin 0
scalar ARPTest.client.eth[0].queue.dataQueue flowQueueingTime:histogram:rangemax 1
scalar ARPTest.client.eth[0].queue.dataQueue flowQueueingTime:histogram:underflows 0
scalar ARPTest.client.eth[0].queue.dataQueue flowQueueingTime:histogram:overflows 0
scalar ARPTest.client.eth[0].queue.dataQueue incomingPacketLengths:histogram:count 5937
scalar ARPTest.client.eth[0].queue.dataQueue incomingPacketLengths:histogram:sumweights 5937
scalar ARPTest.client.eth[0].queue.dataQueue incomingPacketLengths:histogram:mean 1913.7611588344
scalar ARPTest.client.eth[0].queue.dataQueue incomingPacketLengths:histogram:stddev 2028.5120043286
scalar ARPTest.client.eth[0].queue.dataQueue incomingPacketLengths:histogram:min 368
scalar ARPTest.client.eth[0].queue.dataQueue incomingPacketLengths:histogram:max 4752
scalar ARPTest.client.eth[0].queue.dataQueue incomingPacketLengths:histogram:numbins 59
scalar ARPTest.client.eth[0].queue.dataQueue incomingPacketLengths:histogram:rangemin 0
scalar ARPTest.client.eth[0].queue.dataQueue incomingPacketLengths:histogram:rangemax 5900
scalar ARPTest.client.eth[0].queue.dataQueue incomingPacketLengths:histogram:underflows 0
scalar ARPTest.client.eth[0].queue.dataQueue incomingPacketLengths:histogram:overflows 0
scalar ARPTest.client.eth[0].queue.scheduler packetLengths:histogram:count 5897
scalar ARPTest.client.eth[0].queue.scheduler packetLengths:histogram:sumweights 5897
scalar ARPTest.client.eth[0].queue.scheduler packetLengths:histogram:mean 1894.5090724097
scalar ARPTest.client.eth[0].queue.scheduler packetLengths:histogram:stddev 2021.8197861297
scalar ARPTest.client.eth[0].queue.scheduler packetLengths:histogram:min 368
scalar ARPTest.client.eth[0].queue.scheduler packetLengths:histogram:max 4752
scalar ARPTest.client.eth[0].queue.scheduler packetLengths:histogram:numbins 59
scalar ARPTest.client.eth[0].queue.scheduler packetLengths:histogram:rangemin 0
scalar ARPTest.client.eth[0].queue.scheduler packetLengths:histogram:rangemax 5900
scalar ARPTest.client.eth[0].queue.scheduler packetLengths:histogram:underflows 0
scalar ARPTest.client.eth[0].queue.scheduler packetLengths:histogram:overflows 0
scalar ARPTest.client.eth[0].queue queueingTime:histogram:count 5897
scalar ARPTest.client.eth[0].queue queueingTime:histogram:sumweights 5897
scalar ARPTest.client.eth[0].queue queueingTime:histogram:mean 0
scalar ARPTest.client.eth[0].queue queueingTime:histogram:stddev 0
scalar ARPTest.client.eth[0].queue queueingTime:histogram:min 0
scalar ARPTest.client.eth[0].queue queueingTime:histogram:max 0
scalar ARPTest.client.eth[0].queue queueingTime:histogram:numbins 50
scalar ARPTest.client.eth[0].queue queueingTime:histogram:rangemin -0.5
scalar ARPTest.client.eth[0].queue queueingTime:histogram:rangemax 0.5
scalar ARPTest.client.eth[0].queue queueingTime:histogram:underflows 0
scalar ARPTest.client.eth[0].queue queueingTime:histogram:overflows 0
scalar ARPTest.client.eth[0].queue outgoingPacketLengths:histogram:count 5897
scalar ARPTest.client.eth[0].queue outgoingPacketLengths:histogram:sumweights 5897
scalar ARPTest.client.eth[0].queue outgoingPacketLengths:histogram:mean 1894.5090724097
scalar ARPTest.client.eth[0].queue outgoingPacketLengths:histogram:stddev 2021.8197861297
scalar ARPTest.client.eth[0].queue outgoingPacketLengths:histogram:min 368
scalar ARPTest.client.eth[0].queue outgoingPacketLengths:histogram:max 4752
scalar ARPTest.client.eth[0].queue outgoingPacketLengths:histogram:numbins 59
scalar ARPTest.client.eth[0].queue outgoingPacketLengths:histogram:rangemin 0
scalar ARPTest.client.eth[0].queue outgoingPacketLengths:histogram:rangemax 5900
scalar ARPTest.client.eth[0].queue outgoingPacketLengths:histogram:underflows 0
scalar ARPTest.client.eth[0].queue outgoingPacketLengths:histogram:overflows 0
scalar ARPTest.client.eth[0].queue flowQueueingTime:histogram:count 0
scalar ARPTest.client.eth[0].queue flowQueueingTime:histogram:sumweights 0
scalar ARPTest.client.eth[0].queue flowQueueingTime:histogram:mean -nan
scalar ARPTest.client.eth[0].queue flowQueueingTime:histogram:stddev nan
scalar ARPTest.client.eth[0].queue flowQueueingTime:histogram:min nan
scalar ARPTest.client.eth[0].queue flowQueueingTime:histogram:max nan
scalar ARPTest.client.eth[0].queue flowQueueingTime:histogram:numbins 1
scalar ARPTest.client.eth[0].queue flowQueueingTime:histogram:rangemin 0
scalar ARPTest.client.eth[0].queue flowQueueingTime:histogram:rangemax 1
scalar ARPTest.client.eth[0].queue flowQueueingTime:histogram:underflows 0
scalar ARPTest.client.eth[0].queue flowQueueingTime:histogram:overflows 0
scalar ARPTest.client.eth[0].queue incomingPacketLengths:histogram:count 0
scalar ARPTest.client.eth[0].queue incomingPacketLengths:histogram:sumweights 0
scalar ARPTest.client.eth[0].queue incomingPacketLengths:histogram:mean -nan
scalar ARPTest.client.eth[0].queue incomingPacketLengths:histogram:stddev nan
scalar ARPTest.client.eth[0].queue incomingPacketLengths:histogram:min nan
scalar ARPTest.client.eth[0].queue incomingPacketLengths:histogram:max nan
scalar ARPTest.client.eth[0].queue incomingPacketLengths:histogram:numbins 1
scalar ARPTest.client.eth[0].queue incomingPacketLengths:histogram:rangemin 0
scalar ARPTest.client.eth[0].queue incomingPacketLengths:histogram:rangemax 1
scalar ARPTest.client.eth[0].queue incomingPacketLengths:histogram:underflows 0
scalar ARPTest.client.eth[0].queue incomingPacketLengths:histogram:overflows 0
scalar ARPTest.client.eth[0].mac throughput:histogram:count 5052
scalar ARPTest.client.eth[0].mac throughput:histogram:sumweights 5052
scalar ARPTest.client.eth[0].mac throughput:histogram:mean 439572.54378945
scalar ARPTest.client.eth[0].mac throughput:histogram:stddev 5853328.7948675
scalar ARPTest.client.eth[0].mac throughput:histogram:min 0
scalar ARPTest.client.eth[0].mac throughput:histogram:max 97381704.028167
scalar ARPTest.client.eth[0].mac throughput:histogram:numbins 61
scalar ARPTest.client.eth[0].mac throughput:histogram:rangemin 0
scalar ARPTest.client.eth[0].mac throughput:histogram:rangemax 122000000
scalar ARPTest.client.eth[0].mac throughput:histogram:underflows 0
scalar ARPTest.client.eth[0].mac throughput:histogram:overflows 0
scalar ARPTest.client.eth[0].mac utilization:histogram:count 5052
scalar ARPTest.client.eth[0].mac utilization:histogram:sumweights 5052
scalar ARPTest.client.eth[0].mac utilization:histogram:mean 0.4392798392885
scalar ARPTest.client.eth[0].mac utilization:histogram:stddev 5.8502957562566
scalar ARPTest.client.eth[0].mac utilization:histogram:min 0
scalar ARPTest.client.eth[0].mac utilization:histogram:max 97.381704028167
scalar ARPTest.client.eth[0].mac utilization:histogram:numbins 61
scalar ARPTest.client.eth[0].mac utilization:histogram:rangemin 0
scalar ARPTest.client.eth[0].mac utilization:histogram:rangemax 122
scalar ARPTest.client.eth[0].mac utilization:histogram:underflows 0
scalar ARPTest.client.eth[0].mac utilization:histogram:overflows 0
scalar ARPTest.client.app[0] endToEndDelay:histogram:count 3913
scalar ARPTest.client.app[0] endToEndDelay:histogram:sumweights 3913
scalar ARPTest.client.app[0] endToEndDelay:histogram:mean 1.008463728479
scalar ARPTest.client.app[0] endToEndDelay:histogram:stddev 0.31700780988337
scalar ARPTest.client.app[0] endToEndDelay:histogram:min 0.000117373125
scalar ARPTest.client.app[0] endToEndDelay:histogram:max 2.010759924375
scalar ARPTest.client.app[0] endToEndDelay:histogram:numbins 51
scalar ARPTest.client.app[0] endToEndDelay:histogram:rangemin 0
scalar ARPTest.client.app[0] endToEndDelay:histogram:rangemax 2.04
scalar ARPTest.client.app[0] endToEndDelay:histogram:underflows 0
scalar ARPTest.client.app[0] endToEndDelay:histogram:overflows 0
scalar ARPTest.client.app[0] endToEndDelay:weightedHistogram:count 3913
scalar ARPTest.client.app[0] endToEndDelay:weightedHistogram:sumweights 16777216
scalar ARPTest.client.app[0] endToEndDelay:weightedHistogram:mean 1.0084550236723
scalar ARPTest.client.app[0] endToEndDelay:weightedHistogram:stddev 0.31702297582058
scalar ARPTest.client.app[0] endToEndDelay:weightedHistogram:min 0.000117373125
scalar ARPTest.client.app[0] endToEndDelay:weightedHistogram:max 2.010759924375
scalar ARPTest.client.app[0] endToEndDelay:weightedHistogram:numbins 51
scalar ARPTest.client.app[0] endToEndDelay:weightedHistogram:rangemin 0
scalar ARPTest.client.app[0] endToEndDelay:weightedHistogram:rangemax 2.04
scalar ARPTest.client.app[0] endToEndDelay:weightedHistogram:underflows 0
scalar ARPTest.client.app[0] endToEndDelay:weightedHistogram:overflows 0
scalar ARPTest.host1.eth[0].queue.classifier packetLengths:histogram:count 0
scalar ARPTest.host1.eth[0].queue.classifier packetLengths:histogram:sumweights 0
scalar ARPTest.host1.eth[0].queue.classifier packetLengths:histogram:mean -nan
scalar ARPTest.host1.eth[0].queue.classifier packetLengths:histogram:stddev nan
scalar ARPTest.host1.eth[0].queue.classifier packetLengths:histogram:min nan
scalar ARPTest.host1.eth[0].queue.classifier packetLengths:histogram:max nan
scalar ARPTest.host1.eth[0].queue.classifier packetLengths:histogram:numbins 1
scalar ARPTest.host1.eth[0].queue.classifier packetLengths:histogram:rangemin 0
scalar ARPTest.host1.eth[0].queue.classifier packetLengths:histogram:rangemax 1
scalar ARPTest.host1.eth[0].queue.classifier packetLengths:histogram:underflows 0
scalar ARPTest.host1.eth[0].queue.classifier packetLengths:histogram:overflows 0
scalar ARPTest.host1.eth[0].queue.pauseQueue queueingTime:histogram:count 0
scalar ARPTest.host1.eth[0].queue.pauseQueue queueingTime:histogram:sumweights 0
scalar ARPTest.host1.eth[0].queue.pauseQueue queueingTime:histogram:mean -nan
scalar ARPTest.host1.eth[0].queue.pauseQueue queueingTime:histogram:stddev nan
scalar ARPTest.host1.eth[0].queue.pauseQueue queueingTime:histogram:min nan
scalar ARPTest.host1.eth[0].queue.pauseQueue queueingTime:histogram:max nan
scalar ARPTest.host1.eth[0].queue.pauseQueue queueingTime:histogram:numbins 1
scalar ARPTest.host1.eth[0].queue.pauseQueue queueingTime:histogram:rangemin 0
scalar ARPTest.host1.eth[0].queue.pauseQueue queueingTime:histogram:rangemax 1
scalar ARPTest.host1.eth[0].queue.pauseQueue queueingTime:histogram:underflows 0
scalar ARPTest.host1.eth[0].queue.pauseQueue queueingTime:histogram:overflows 0
scalar ARPTest.host1.eth[0].queue.pauseQueue outgoingPacketLengths:histogram:count 0
scalar ARPTest.host1.eth[0].queue.pauseQueue outgoingPacketLengths:histogram:sumweights 0
scalar ARPTest.host1.eth[0].queue.pauseQueue outgoingPacketLengths:histogram:mean -nan
scalar ARPTest.host1.eth[0].queue.pauseQueue outgoingPacketLengths:histogram:stddev nan
scalar ARPTest.host1.eth[0].queue.pauseQueue outgoingPacketLengths:histogram:min nan
scalar ARPTest.host1.eth[0].queue.pauseQueue outgoingPacketLengths:histogram:max nan
scalar ARPTest.host1.eth[0].queue.pauseQueue outgoingPacketLengths:histogram:numbins 1
scalar ARPTest.host1.eth[0].queue.pauseQueue outgoingPacketLengths:histogram:rangemin 0
scalar ARPTest.host1.eth[0].queue.pauseQueue outgoingPacketLengths:histogram:rangemax 1
scalar ARPTest.host1.eth[0].queue.pauseQueue outgoingPacketLengths:histogram:underflows 0
scalar ARPTest.host1.eth[0].queue.pauseQueue outgoingPacketLengths:histogram:overflows 0
scalar ARPTest.host1.eth[0].queue.pauseQueue flowQueueingTime:histogram:count 0
scalar ARPTest.host1.eth[0].queue.pauseQueue flowQueueingTime:histogram:sumweights 0
scalar ARPTest.host1.eth[0].queue.pauseQueue flowQueueingTime:histogram:mean -nan
scalar ARPTest.host1.eth[0].queue.pauseQueue flowQueueingTime:histogram:stddev nan
scalar ARPTest.host1.eth[0].queue.pauseQueue flowQueueingTime:histogram:min nan
scalar ARPTest.host1.eth[0].queue.pauseQueue flowQueueingTime:histogram:max nan
[...]
scalar ARPTest.client.tcp.conn-6 load:vector:endtime nan
scalar ARPTest.client.tcp.conn-6 calcLoad:vector:count 0
scalar ARPTest.client.tcp.conn-6 calcLoad:vector:sum 0
scalar ARPTest.client.tcp.conn-6 calcLoad:vector:sumweights 0
scalar ARPTest.client.tcp.conn-6 calcLoad:vector:mean -nan
scalar ARPTest.client.tcp.conn-6 calcLoad:vector:stddev nan
scalar ARPTest.client.tcp.conn-6 calcLoad:vector:min inf
scalar ARPTest.client.tcp.conn-6 calcLoad:vector:max -inf
scalar ARPTest.client.tcp.conn-6 calcLoad:vector:starttime nan
scalar ARPTest.client.tcp.conn-6 calcLoad:vector:endtime nan
scalar ARPTest.client.tcp.conn-6 markingProb:vector:count 0
scalar ARPTest.client.tcp.conn-6 markingProb:vector:sum 0
scalar ARPTest.client.tcp.conn-6 markingProb:vector:sumweights 0
scalar ARPTest.client.tcp.conn-6 markingProb:vector:mean -nan
scalar ARPTest.client.tcp.conn-6 markingProb:vector:stddev nan
scalar ARPTest.client.tcp.conn-6 markingProb:vector:min inf
scalar ARPTest.client.tcp.conn-6 markingProb:vector:max -inf
scalar ARPTest.client.tcp.conn-6 markingProb:vector:starttime nan
scalar ARPTest.client.tcp.conn-6 markingProb:vector:endtime nan
scalar ARPTest.server.tcp.conn-7 state:vector:count 5
scalar ARPTest.server.tcp.conn-7 state:vector:sum 23
scalar ARPTest.server.tcp.conn-7 state:vector:sumweights 5
scalar ARPTest.server.tcp.conn-7 state:vector:mean 4.6
scalar ARPTest.server.tcp.conn-7 state:vector:stddev 2.3021728866443
scalar ARPTest.server.tcp.conn-7 state:vector:min 1
scalar ARPTest.server.tcp.conn-7 state:vector:max 7
scalar ARPTest.server.tcp.conn-7 state:vector:starttime 1.00003845375
scalar ARPTest.server.tcp.conn-7 state:vector:endtime 6.836006511118
scalar ARPTest.server.tcp.conn-7 sndWnd:vector:count 3914
scalar ARPTest.server.tcp.conn-7 sndWnd:vector:sum 29333672
scalar ARPTest.server.tcp.conn-7 sndWnd:vector:sumweights 3914
scalar ARPTest.server.tcp.conn-7 sndWnd:vector:mean 7494.5508431272
scalar ARPTest.server.tcp.conn-7 sndWnd:vector:stddev 138.10701190414
scalar ARPTest.server.tcp.conn-7 sndWnd:vector:min 4824
scalar ARPTest.server.tcp.conn-7 sndWnd:vector:max 7504
scalar ARPTest.server.tcp.conn-7 sndWnd:vector:starttime 1.00003845375
scalar ARPTest.server.tcp.conn-7 sndWnd:vector:endtime 6.836006511118
scalar ARPTest.server.tcp.conn-7 rcvWnd:vector:count 5963
scalar ARPTest.server.tcp.conn-7 rcvWnd:vector:sum 44624144
scalar ARPTest.server.tcp.conn-7 rcvWnd:vector:sumweights 5963
scalar ARPTest.server.tcp.conn-7 rcvWnd:vector:mean 7483.5056179775
scalar ARPTest.server.tcp.conn-7 rcvWnd:vector:stddev 171.62861311256
scalar ARPTest.server.tcp.conn-7 rcvWnd:vector:min 4288
scalar ARPTest.server.tcp.conn-7 rcvWnd:vector:max 7504
scalar ARPTest.server.tcp.conn-7 rcvWnd:vector:starttime 1.00003845375
scalar ARPTest.server.tcp.conn-7 rcvWnd:vector:endtime 6.835679951118
scalar ARPTest.server.tcp.conn-7 rcvAdv:vector:count 5964
scalar ARPTest.server.tcp.conn-7 rcvAdv:vector:sum 6280821175
scalar ARPTest.server.tcp.conn-7 rcvAdv:vector:sumweights 5964
scalar ARPTest.server.tcp.conn-7 rcvAdv:vector:mean 1053122.2627431
scalar ARPTest.server.tcp.conn-7 rcvAdv:vector:stddev 366758.34319972
scalar ARPTest.server.tcp.conn-7 rcvAdv:vector:min 257505
scalar ARPTest.server.tcp.conn-7 rcvAdv:vector:max 1306082
scalar ARPTest.server.tcp.conn-7 rcvAdv:vector:starttime 1.00003845375
scalar ARPTest.server.tcp.conn-7 rcvAdv:vector:endtime 6.835679951118
scalar ARPTest.server.tcp.conn-7 sndNxt:vector:count 3994
scalar ARPTest.server.tcp.conn-7 sndNxt:vector:sum 5154365020
scalar ARPTest.server.tcp.conn-7 sndNxt:vector:sumweights 3994
scalar ARPTest.server.tcp.conn-7 sndNxt:vector:mean 1290527.0455684
scalar ARPTest.server.tcp.conn-7 sndNxt:vector:stddev 608803.3139274
scalar ARPTest.server.tcp.conn-7 sndNxt:vector:min 250010
scalar ARPTest.server.tcp.conn-7 sndNxt:vector:max 2346842
scalar ARPTest.server.tcp.conn-7 sndNxt:vector:starttime 1.10011663875
scalar ARPTest.server.tcp.conn-7 sndNxt:vector:endtime 6.835679951118
scalar ARPTest.server.tcp.conn-7 sndAck:vector:count 5963
scalar ARPTest.server.tcp.conn-7 sndAck:vector:sum 6235939526
scalar ARPTest.server.tcp.conn-7 sndAck:vector:sumweights 5963
scalar ARPTest.server.tcp.conn-7 sndAck:vector:mean 1045772.1827939
scalar ARPTest.server.tcp.conn-7 sndAck:vector:stddev 366603.19661256
scalar ARPTest.server.tcp.conn-7 sndAck:vector:min 250001
scalar ARPTest.server.tcp.conn-7 sndAck:vector:max 1298578
scalar ARPTest.server.tcp.conn-7 sndAck:vector:starttime 1.00003845375
scalar ARPTest.server.tcp.conn-7 sndAck:vector:endtime 6.835679951118
scalar ARPTest.server.tcp.conn-7 rcvSeq:vector:count 5895
scalar ARPTest.server.tcp.conn-7 rcvSeq:vector:sum 6176201329
scalar ARPTest.server.tcp.conn-7 rcvSeq:vector:sumweights 5895
scalar ARPTest.server.tcp.conn-7 rcvSeq:vector:mean 1047701.6673452
scalar ARPTest.server.tcp.conn-7 rcvSeq:vector:stddev 364268.76280162
scalar ARPTest.server.tcp.conn-7 rcvSeq:vector:min 250001
scalar ARPTest.server.tcp.conn-7 rcvSeq:vector:max 1298578
scalar ARPTest.server.tcp.conn-7 rcvSeq:vector:starttime 1.00006875625
scalar ARPTest.server.tcp.conn-7 rcvSeq:vector:endtime 6.836006511118
scalar ARPTest.server.tcp.conn-7 rcvAck:vector:count 5895
scalar ARPTest.server.tcp.conn-7 rcvAck:vector:sum 6005734295
scalar ARPTest.server.tcp.conn-7 rcvAck:vector:sumweights 5895
scalar ARPTest.server.tcp.conn-7 rcvAck:vector:mean 1018784.4435963
scalar ARPTest.server.tcp.conn-7 rcvAck:vector:stddev 631510.29790922
scalar ARPTest.server.tcp.conn-7 rcvAck:vector:min 250010
scalar ARPTest.server.tcp.conn-7 rcvAck:vector:max 2347163
scalar ARPTest.server.tcp.conn-7 rcvAck:vector:starttime 1.00006875625
scalar ARPTest.server.tcp.conn-7 rcvAck:vector:endtime 6.836006511118
scalar ARPTest.server.tcp.conn-7 unacked:vector:count 6773
scalar ARPTest.server.tcp.conn-7 unacked:vector:sum 35010015
scalar ARPTest.server.tcp.conn-7 unacked:vector:sumweights 6773
scalar ARPTest.server.tcp.conn-7 unacked:vector:mean 5169.0558098332
scalar ARPTest.server.tcp.conn-7 unacked:vector:stddev 1250.2172300851
scalar ARPTest.server.tcp.conn-7 unacked:vector:min 0
scalar ARPTest.server.tcp.conn-7 unacked:vector:max 7504
scalar ARPTest.server.tcp.conn-7 unacked:vector:starttime 1.00006875625
scalar ARPTest.server.tcp.conn-7 unacked:vector:endtime 6.836006511118
scalar ARPTest.server.tcp.conn-7 dupAcks:vector:count 5883
scalar ARPTest.server.tcp.conn-7 dupAcks:vector:sum 3399
scalar ARPTest.server.tcp.conn-7 dupAcks:vector:sumweights 5883
scalar ARPTest.server.tcp.conn-7 dupAcks:vector:mean 0.57776644569097
scalar ARPTest.server.tcp.conn-7 dupAcks:vector:stddev 2.091545287195
scalar ARPTest.server.tcp.conn-7 dupAcks:vector:min 0
scalar ARPTest.server.tcp.conn-7 dupAcks:vector:max 12
scalar ARPTest.server.tcp.conn-7 dupAcks:vector:starttime 1.10011663875
scalar ARPTest.server.tcp.conn-7 dupAcks:vector:endtime 6.836006511118
scalar ARPTest.server.tcp.conn-7 pipe:vector:count 0
scalar ARPTest.server.tcp.conn-7 pipe:vector:sum 0
scalar ARPTest.server.tcp.conn-7 pipe:vector:sumweights 0
scalar ARPTest.server.tcp.conn-7 pipe:vector:mean -nan
scalar ARPTest.server.tcp.conn-7 pipe:vector:stddev nan
scalar ARPTest.server.tcp.conn-7 pipe:vector:min inf
scalar ARPTest.server.tcp.conn-7 pipe:vector:max -inf
scalar ARPTest.server.tcp.conn-7 pipe:vector:starttime nan
scalar ARPTest.server.tcp.conn-7 pipe:vector:endtime nan
scalar ARPTest.server.tcp.conn-7 sndSacks:vector:count 0
scalar ARPTest.server.tcp.conn-7 sndSacks:vector:sum 0
scalar ARPTest.server.tcp.conn-7 sndSacks:vector:sumweights 0
scalar ARPTest.server.tcp.conn-7 sndSacks:vector:mean -nan
scalar ARPTest.server.tcp.conn-7 sndSacks:vector:stddev nan
scalar ARPTest.server.tcp.conn-7 sndSacks:vector:min inf
scalar ARPTest.server.tcp.conn-7 sndSacks:vector:max -inf
scalar ARPTest.server.tcp.conn-7 sndSacks:vector:starttime nan
scalar ARPTest.server.tcp.conn-7 sndSacks:vector:endtime nan
scalar ARPTest.server.tcp.conn-7 rcvSacks:vector:count 0
scalar ARPTest.server.tcp.conn-7 rcvSacks:vector:sum 0
scalar ARPTest.server.tcp.conn-7 rcvSacks:vector:sumweights 0
scalar ARPTest.server.tcp.conn-7 rcvSacks:vector:mean -nan
scalar ARPTest.server.tcp.conn-7 rcvSacks:vector:stddev nan
scalar ARPTest.server.tcp.conn-7 rcvSacks:vector:min inf
scalar ARPTest.server.tcp.conn-7 rcvSacks:vector:max -inf
scalar ARPTest.server.tcp.conn-7 rcvSacks:vector:starttime nan
scalar ARPTest.server.tcp.conn-7 rcvSacks:vector:endtime nan
scalar ARPTest.server.tcp.conn-7 rcvOooSeg:vector:count 268
scalar ARPTest.server.tcp.conn-7 rcvOooSeg:vector:sum 36046
scalar ARPTest.server.tcp.conn-7 rcvOooSeg:vector:sumweights 268
scalar ARPTest.server.tcp.conn-7 rcvOooSeg:vector:mean 134.5
scalar ARPTest.server.tcp.conn-7 rcvOooSeg:vector:stddev 77.50913924607
scalar ARPTest.server.tcp.conn-7 rcvOooSeg:vector:min 1
scalar ARPTest.server.tcp.conn-7 rcvOooSeg:vector:max 268
scalar ARPTest.server.tcp.conn-7 rcvOooSeg:vector:starttime 1.10125545375
scalar ARPTest.server.tcp.conn-7 rcvOooSeg:vector:endtime 5.740564746118
scalar ARPTest.server.tcp.conn-7 rcvNASeg:vector:count 11
scalar ARPTest.server.tcp.conn-7 rcvNASeg:vector:sum 66
scalar ARPTest.server.tcp.conn-7 rcvNASeg:vector:sumweights 11
scalar ARPTest.server.tcp.conn-7 rcvNASeg:vector:mean 6
scalar ARPTest.server.tcp.conn-7 rcvNASeg:vector:stddev 3.3166247903554
scalar ARPTest.server.tcp.conn-7 rcvNASeg:vector:min 1
scalar ARPTest.server.tcp.conn-7 rcvNASeg:vector:max 11
scalar ARPTest.server.tcp.conn-7 rcvNASeg:vector:starttime 1.102175065625
scalar ARPTest.server.tcp.conn-7 rcvNASeg:vector:endtime 5.663615938618
scalar ARPTest.server.tcp.conn-7 sackedBytes:vector:count 0
scalar ARPTest.server.tcp.conn-7 sackedBytes:vector:sum 0
scalar ARPTest.server.tcp.conn-7 sackedBytes:vector:sumweights 0
scalar ARPTest.server.tcp.conn-7 sackedBytes:vector:mean -nan
scalar ARPTest.server.tcp.conn-7 sackedBytes:vector:stddev nan
scalar ARPTest.server.tcp.conn-7 sackedBytes:vector:min inf
scalar ARPTest.server.tcp.conn-7 sackedBytes:vector:max -inf
scalar ARPTest.server.tcp.conn-7 sackedBytes:vector:starttime nan
scalar ARPTest.server.tcp.conn-7 sackedBytes:vector:endtime nan
scalar ARPTest.server.tcp.conn-7 tcpRcvQueueBytes:vector:count 7920
scalar ARPTest.server.tcp.conn-7 tcpRcvQueueBytes:vector:sum 2562080
scalar ARPTest.server.tcp.conn-7 tcpRcvQueueBytes:vector:sumweights 7920
scalar ARPTest.server.tcp.conn-7 tcpRcvQueueBytes:vector:mean 323.49494949495
scalar ARPTest.server.tcp.conn-7 tcpRcvQueueBytes:vector:stddev 1128.1162255887
scalar ARPTest.server.tcp.conn-7 tcpRcvQueueBytes:vector:min 0
scalar ARPTest.server.tcp.conn-7 tcpRcvQueueBytes:vector:max 6432
scalar ARPTest.server.tcp.conn-7 tcpRcvQueueBytes:vector:starttime 1.00003845375
scalar ARPTest.server.tcp.conn-7 tcpRcvQueueBytes:vector:endtime 6.835679951118
scalar ARPTest.server.tcp.conn-7 tcpRcvQueueDrops:vector:count 0
scalar ARPTest.server.tcp.conn-7 tcpRcvQueueDrops:vector:sum 0
scalar ARPTest.server.tcp.conn-7 tcpRcvQueueDrops:vector:sumweights 0
scalar ARPTest.server.tcp.conn-7 tcpRcvQueueDrops:vector:mean -nan
scalar ARPTest.server.tcp.conn-7 tcpRcvQueueDrops:vector:stddev nan
scalar ARPTest.server.tcp.conn-7 tcpRcvQueueDrops:vector:min inf
scalar ARPTest.server.tcp.conn-7 tcpRcvQueueDrops:vector:max -inf
scalar ARPTest.server.tcp.conn-7 tcpRcvQueueDrops:vector:starttime nan
scalar ARPTest.server.tcp.conn-7 tcpRcvQueueDrops:vector:endtime nan
scalar ARPTest.server.tcp.conn-7 tcpRcvPayloadBytes:vector:count 5895
scalar ARPTest.server.tcp.conn-7 tcpRcvPayloadBytes:vector:sum 1054472
scalar ARPTest.server.tcp.conn-7 tcpRcvPayloadBytes:vector:sumweights 5895
scalar ARPTest.server.tcp.conn-7 tcpRcvPayloadBytes:vector:mean 178.87565733673
scalar ARPTest.server.tcp.conn-7 tcpRcvPayloadBytes:vector:stddev 252.74786416435
scalar ARPTest.server.tcp.conn-7 tcpRcvPayloadBytes:vector:min 0
scalar ARPTest.server.tcp.conn-7 tcpRcvPayloadBytes:vector:max 536
scalar ARPTest.server.tcp.conn-7 tcpRcvPayloadBytes:vector:starttime 1.00006875625
scalar ARPTest.server.tcp.conn-7 tcpRcvPayloadBytes:vector:endtime 6.836006511118
scalar ARPTest.server.tcp.conn-7 cwnd:vector:count 3816
scalar ARPTest.server.tcp.conn-7 cwnd:vector:sum 22706111
scalar ARPTest.server.tcp.conn-7 cwnd:vector:sumweights 3816
scalar ARPTest.server.tcp.conn-7 cwnd:vector:mean 5950.2387316562
scalar ARPTest.server.tcp.conn-7 cwnd:vector:stddev 1429.9878115416
scalar ARPTest.server.tcp.conn-7 cwnd:vector:min 536
scalar ARPTest.server.tcp.conn-7 cwnd:vector:max 15008
scalar ARPTest.server.tcp.conn-7 cwnd:vector:starttime 1.100298220625
scalar ARPTest.server.tcp.conn-7 cwnd:vector:endtime 6.836006511118
scalar ARPTest.server.tcp.conn-7 ssthresh:vector:count 3381
scalar ARPTest.server.tcp.conn-7 ssthresh:vector:sum 115976012791
scalar ARPTest.server.tcp.conn-7 ssthresh:vector:sumweights 3381
scalar ARPTest.server.tcp.conn-7 ssthresh:vector:mean 34302281.215912
scalar ARPTest.server.tcp.conn-7 ssthresh:vector:stddev 382333170.48539
scalar ARPTest.server.tcp.conn-7 ssthresh:vector:min 1072
scalar ARPTest.server.tcp.conn-7 ssthresh:vector:max 4294967295
scalar ARPTest.server.tcp.conn-7 ssthresh:vector:starttime 1.100298220625
scalar ARPTest.server.tcp.conn-7 ssthresh:vector:endtime 6.836006511118
scalar ARPTest.server.tcp.conn-7 rtt:vector:count 431
scalar ARPTest.server.tcp.conn-7 rtt:vector:sum 0.19815424375
scalar ARPTest.server.tcp.conn-7 rtt:vector:sumweights 431
scalar ARPTest.server.tcp.conn-7 rtt:vector:mean 0.00045975462587007
scalar ARPTest.server.tcp.conn-7 rtt:vector:stddev 0.00020681125493622
scalar ARPTest.server.tcp.conn-7 rtt:vector:min 7.34375e-07
scalar ARPTest.server.tcp.conn-7 rtt:vector:max 0.001412891875
scalar ARPTest.server.tcp.conn-7 rtt:vector:starttime 1.100298220625
scalar ARPTest.server.tcp.conn-7 rtt:vector:endtime 6.835876431118
scalar ARPTest.server.tcp.conn-7 srtt:vector:count 431
scalar ARPTest.server.tcp.conn-7 srtt:vector:sum 0.194869993773
scalar ARPTest.server.tcp.conn-7 srtt:vector:sumweights 431
scalar ARPTest.server.tcp.conn-7 srtt:vector:mean 0.00045213455631787
scalar ARPTest.server.tcp.conn-7 srtt:vector:stddev 6.8948757196018e-05
scalar ARPTest.server.tcp.conn-7 srtt:vector:min 2.2697734e-05
scalar ARPTest.server.tcp.conn-7 srtt:vector:max 0.000576244632
scalar ARPTest.server.tcp.conn-7 srtt:vector:starttime 1.100298220625
scalar ARPTest.server.tcp.conn-7 srtt:vector:endtime 6.835876431118
scalar ARPTest.server.tcp.conn-7 rttvar:vector:count 431
scalar ARPTest.server.tcp.conn-7 rttvar:vector:sum 5.31725153441
scalar ARPTest.server.tcp.conn-7 rttvar:vector:sumweights 431
scalar ARPTest.server.tcp.conn-7 rttvar:vector:mean 0.012337010520673
scalar ARPTest.server.tcp.conn-7 rttvar:vector:stddev 0.064213432845345
scalar ARPTest.server.tcp.conn-7 rttvar:vector:min 0.000123742337
scalar ARPTest.server.tcp.conn-7 rttvar:vector:max 0.656272697734
scalar ARPTest.server.tcp.conn-7 rttvar:vector:starttime 1.100298220625
scalar ARPTest.server.tcp.conn-7 rttvar:vector:endtime 6.835876431118
scalar ARPTest.server.tcp.conn-7 rto:vector:count 431
scalar ARPTest.server.tcp.conn-7 rto:vector:sum 436.78828163512
scalar ARPTest.server.tcp.conn-7 rto:vector:sumweights 431
scalar ARPTest.server.tcp.conn-7 rto:vector:mean 1.0134298877845
scalar ARPTest.server.tcp.conn-7 rto:vector:stddev 0.12091623906882
scalar ARPTest.server.tcp.conn-7 rto:vector:min 1
scalar ARPTest.server.tcp.conn-7 rto:vector:max 2.62511348867
scalar ARPTest.server.tcp.conn-7 rto:vector:starttime 1.100298220625
scalar ARPTest.server.tcp.conn-7 rto:vector:endtime 6.835876431118
scalar ARPTest.server.tcp.conn-7 numRtos:vector:count 4
scalar ARPTest.server.tcp.conn-7 numRtos:vector:sum 10
scalar ARPTest.server.tcp.conn-7 numRtos:vector:sumweights 4
scalar ARPTest.server.tcp.conn-7 numRtos:vector:mean 2.5
scalar ARPTest.server.tcp.conn-7 numRtos:vector:stddev 1.2909944487358
scalar ARPTest.server.tcp.conn-7 numRtos:vector:min 1
scalar ARPTest.server.tcp.conn-7 numRtos:vector:max 4
scalar ARPTest.server.tcp.conn-7 numRtos:vector:starttime 2.641880266743
scalar ARPTest.server.tcp.conn-7 numRtos:vector:endtime 6.664235668618
scalar ARPTest.server.tcp.conn-7 load:vector:count 0
scalar ARPTest.server.tcp.conn-7 load:vector:sum 0
scalar ARPTest.server.tcp.conn-7 load:vector:sumweights 0
scalar ARPTest.server.tcp.conn-7 load:vector:mean -nan
scalar ARPTest.server.tcp.conn-7 load:vector:stddev nan
scalar ARPTest.server.tcp.conn-7 load:vector:min inf
scalar ARPTest.server.tcp.conn-7 load:vector:max -inf
scalar ARPTest.server.tcp.conn-7 load:vector:starttime nan
scalar ARPTest.server.tcp.conn-7 load:vector:endtime nan
scalar ARPTest.server.tcp.conn-7 calcLoad:vector:count 0
scalar ARPTest.server.tcp.conn-7 calcLoad:vector:sum 0
scalar ARPTest.server.tcp.conn-7 calcLoad:vector:sumweights 0
scalar ARPTest.server.tcp.conn-7 calcLoad:vector:mean -nan
scalar ARPTest.server.tcp.conn-7 calcLoad:vector:stddev nan
scalar ARPTest.server.tcp.conn-7 calcLoad:vector:min inf
scalar ARPTest.server.tcp.conn-7 calcLoad:vector:max -inf
scalar ARPTest.server.tcp.conn-7 calcLoad:vector:starttime nan
scalar ARPTest.server.tcp.conn-7 calcLoad:vector:endtime nan
scalar ARPTest.server.tcp.conn-7 markingProb:vector:count 0
scalar ARPTest.server.tcp.conn-7 markingProb:vector:sum 0
scalar ARPTest.server.tcp.conn-7 markingProb:vector:sumweights 0
scalar ARPTest.server.tcp.conn-7 markingProb:vector:mean -nan
scalar ARPTest.server.tcp.conn-7 markingProb:vector:stddev nan
scalar ARPTest.server.tcp.conn-7 markingProb:vector:min inf
scalar ARPTest.server.tcp.conn-7 markingProb:vector:max -inf
scalar ARPTest.server.tcp.conn-7 markingProb:vector:starttime nan
scalar ARPTest.server.tcp.conn-7 markingProb:vector:endtime nan
scalar ARPTest.server.app[0].thread_7 packetReceived:vector(packetBytes):count 1689
scalar ARPTest.server.app[0].thread_7 packetReceived:vector(packetBytes):sum 1048576
scalar ARPTest.server.app[0].thread_7 packetReceived:vector(packetBytes):sumweights 1689
scalar ARPTest.server.app[0].thread_7 packetReceived:vector(packetBytes):mean 620.82652457075
scalar ARPTest.server.app[0].thread_7 packetReceived:vector(packetBytes):stddev 716.24873810783
scalar ARPTest.server.app[0].thread_7 packetReceived:vector(packetBytes):min 160
scalar ARPTest.server.app[0].thread_7 packetReceived:vector(packetBytes):max 6968
scalar ARPTest.server.app[0].thread_7 packetReceived:vector(packetBytes):starttime 1.10011663875
scalar ARPTest.server.app[0].thread_7 packetReceived:vector(packetBytes):endtime 5.743012403618
scalar ARPTest.server.app[0].thread_7 packetSent:vector(packetBytes):count 1689
scalar ARPTest.server.app[0].thread_7 packetSent:vector(packetBytes):sum 2097152
scalar ARPTest.server.app[0].thread_7 packetSent:vector(packetBytes):sumweights 1689
scalar ARPTest.server.app[0].thread_7 packetSent:vector(packetBytes):mean 1241.6530491415
scalar ARPTest.server.app[0].thread_7 packetSent:vector(packetBytes):stddev 1432.4974762157
scalar ARPTest.server.app[0].thread_7 packetSent:vector(packetBytes):min 320
scalar ARPTest.server.app[0].thread_7 packetSent:vector(packetBytes):max 13936
scalar ARPTest.server.app[0].thread_7 packetSent:vector(packetBytes):starttime 1.10011663875
scalar ARPTest.server.app[0].thread_7 packetSent:vector(packetBytes):endtime 5.743012403618
scalar ARPTest.server.app[0].thread_7 endToEndDelay:vector:count 1957
scalar ARPTest.server.app[0].thread_7 endToEndDelay:vector:sum 8410.7896798481
scalar ARPTest.server.app[0].thread_7 endToEndDelay:vector:sumweights 1957
scalar ARPTest.server.app[0].thread_7 endToEndDelay:vector:mean 4.2977974858703
scalar ARPTest.server.app[0].thread_7 endToEndDelay:vector:stddev 0.84729507923338
scalar ARPTest.server.app[0].thread_7 endToEndDelay:vector:min 0.00011663875
scalar ARPTest.server.app[0].thread_7 endToEndDelay:vector:max 4.643012403618
scalar ARPTest.server.app[0].thread_7 endToEndDelay:vector:starttime 1.10011663875
scalar ARPTest.server.app[0].thread_7 endToEndDelay:vector:endtime 5.743012403618

