version 3
run CutthroughSwitching-0-20240115-11:31:09-15678
attr configname CutthroughSwitching
attr datetime 20240115-11:31:09
attr datetimef 20240115-113109
attr experiment CutthroughSwitching
attr inifile omnetpp.ini
attr iterationvars ""
attr iterationvarsd ""
attr iterationvarsf ""
attr measurement ""
attr network CutthroughSwitchingShowcase
attr processid 15678
attr repetition 0
attr replication #0
attr resultdir results
attr runnumber 0
attr seedset 0
config **.param-recording false
config **.vector-recording false
config image-path /home/levy/workspace/inet/images
config output-scalar-file results/omnetpp.ini-CutthroughSwitching-#0.sca
config sim-time-limit 1s
config description "Switches start forwarding incoming frames after the Ethernet MAC header has been received"
config *.*.hasCutthroughSwitching true
config network CutthroughSwitchingShowcase
config sim-time-limit 1s
config *.*.eth[*].bitrate 1Gbps
config *.device*.numApps 1
config *.device1.app[0].typename UdpSourceApp
config *.device1.app[0].io.destAddress "\"device2\""
config *.device1.app[0].io.destPort 1000
config *.device1.app[0].source.packetLength 1200B
config *.device1.app[0].source.productionInterval truncnormal(200us,50us)
config *.device2.app[0].typename UdpSinkApp
config *.device2.app[0].io.localPort 1000

scalar CutthroughSwitchingShowcase.device1.ethernet.macHeaderInserter outgoingPackets:count 4997
attr recordingmode count
attr source "merge(packetPushedOut, packetPulledOut)"
attr title "outgoing packets, count"
attr unit pk
scalar CutthroughSwitchingShowcase.device1.ethernet.macHeaderInserter outgoingPacketLengths:sum 49650192
attr interpolationmode none
attr recordingmode sum
attr source "packetLength(merge(packetPushedOut, packetPulledOut))"
attr title "outgoing packet lengths, sum"
attr unit b
statistic CutthroughSwitchingShowcase.device1.ethernet.macHeaderInserter outgoingPacketLengths:histogram
field count 4997
field mean 9936
field stddev 0
field min 9936
field max 9936
field sum 49650192
field sqrsum 493324307712
attr interpolationmode none
attr recordingmode histogram
attr source "packetLength(merge(packetPushedOut, packetPulledOut))"
attr title "outgoing packet lengths"
attr unit b
bin	-inf	0
bin	9935	0
bin	9936	4997
bin	9937	0
scalar CutthroughSwitchingShowcase.device1.ethernet.macHeaderInserter flowOutgoingPacketLengths:sum 0
attr interpolationmode none
attr recordingmode sum
attr source "packetLength(demuxFlow(merge(packetPushedOut, packetPulledOut)))"
attr title "flow specific outgoing packet lengths, sum"
attr unit b
statistic CutthroughSwitchingShowcase.device1.ethernet.macHeaderInserter flowOutgoingPacketLengths:histogram
field count 0
field mean -nan
field stddev nan
field min nan
field max nan
field sum 0
field sqrsum 0
attr interpolationmode none
attr recordingmode histogram
attr source "packetLength(demuxFlow(merge(packetPushedOut, packetPulledOut)))"
attr title "flow specific outgoing packet lengths"
attr unit b
bin	-inf	0
bin	0	0
bin	1	0
scalar CutthroughSwitchingShowcase.device1.ethernet.macHeaderInserter incomingPackets:count 4997
attr recordingmode count
attr source "merge(packetPushedIn, packetPulledIn)"
attr title "incoming packets, count"
attr unit pk
scalar CutthroughSwitchingShowcase.device1.ethernet.macHeaderInserter incomingPacketLengths:sum 49090528
attr interpolationmode none
attr recordingmode sum
attr source "packetLength(merge(packetPushedIn, packetPulledIn))"
attr title "incoming packet lengths, sum"
attr unit b
statistic CutthroughSwitchingShowcase.device1.ethernet.macHeaderInserter incomingPacketLengths:histogram
field count 4997
field mean 9824
field stddev 0
field min 9824
field max 9824
field sum 49090528
field sqrsum 482265347072
attr interpolationmode none
attr recordingmode histogram
attr source "packetLength(merge(packetPushedIn, packetPulledIn))"
attr title "incoming packet lengths"
attr unit b
bin	-inf	0
bin	9823	0
bin	9824	4997
bin	9825	0
scalar CutthroughSwitchingShowcase.device1.ethernet.macHeaderInserter flowIncomingPacketLengths:sum 0
attr interpolationmode none
attr recordingmode sum
attr source "packetLength(demuxFlow(merge(packetPushedIn, packetPulledIn)))"
attr title "flow specific incoming packet lengths, sum"
attr unit b
statistic CutthroughSwitchingShowcase.device1.ethernet.macHeaderInserter flowIncomingPacketLengths:histogram
field count 0
field mean -nan
field stddev nan
field min nan
field max nan
field sum 0
field sqrsum 0
attr interpolationmode none
attr recordingmode histogram
attr source "packetLength(demuxFlow(merge(packetPushedIn, packetPulledIn)))"
attr title "flow specific incoming packet lengths"
attr unit b
bin	-inf	0
bin	0	0
bin	1	0
scalar CutthroughSwitchingShowcase.device1.ethernet.paddingInserter outgoingPackets:count 4997
attr recordingmode count
attr source "merge(packetPushedOut, packetPulledOut)"
attr title "outgoing packets, count"
attr unit pk
scalar CutthroughSwitchingShowcase.device1.ethernet.paddingInserter outgoingPacketLengths:sum 49650192
attr interpolationmode none
attr recordingmode sum
attr source "packetLength(merge(packetPushedOut, packetPulledOut))"
attr title "outgoing packet lengths, sum"
attr unit b
statistic CutthroughSwitchingShowcase.device1.ethernet.paddingInserter outgoingPacketLengths:histogram
field count 4997
field mean 9936
field stddev 0
field min 9936
field max 9936
field sum 49650192
field sqrsum 493324307712
attr interpolationmode none
attr recordingmode histogram
attr source "packetLength(merge(packetPushedOut, packetPulledOut))"
attr title "outgoing packet lengths"
attr unit b
bin	-inf	0
bin	9935	0
bin	9936	4997
bin	9937	0
scalar CutthroughSwitchingShowcase.device1.ethernet.paddingInserter flowOutgoingPacketLengths:sum 0
attr interpolationmode none
attr recordingmode sum
attr source "packetLength(demuxFlow(merge(packetPushedOut, packetPulledOut)))"
attr title "flow specific outgoing packet lengths, sum"
attr unit b
statistic CutthroughSwitchingShowcase.device1.ethernet.paddingInserter flowOutgoingPacketLengths:histogram
field count 0
field mean -nan
field stddev nan
field min nan
field max nan
field sum 0
field sqrsum 0
attr interpolationmode none
attr recordingmode histogram
attr source "packetLength(demuxFlow(merge(packetPushedOut, packetPulledOut)))"
attr title "flow specific outgoing packet lengths"
attr unit b
bin	-inf	0
bin	0	0
bin	1	0
scalar CutthroughSwitchingShowcase.device1.ethernet.paddingInserter incomingPackets:count 4997
attr recordingmode count
attr source "merge(packetPushedIn, packetPulledIn)"
attr title "incoming packets, count"
attr unit pk
scalar CutthroughSwitchingShowcase.device1.ethernet.paddingInserter incomingPacketLengths:sum 49650192
attr interpolationmode none
attr recordingmode sum
attr source "packetLength(merge(packetPushedIn, packetPulledIn))"
attr title "incoming packet lengths, sum"
attr unit b
statistic CutthroughSwitchingShowcase.device1.ethernet.paddingInserter incomingPacketLengths:histogram
field count 4997
field mean 9936
field stddev 0
field min 9936
field max 9936
field sum 49650192
field sqrsum 493324307712
attr interpolationmode none
attr recordingmode histogram
attr source "packetLength(merge(packetPushedIn, packetPulledIn))"
attr title "incoming packet lengths"
attr unit b
bin	-inf	0
bin	9935	0
bin	9936	4997
bin	9937	0
scalar CutthroughSwitchingShowcase.device1.ethernet.paddingInserter flowIncomingPacketLengths:sum 0
attr interpolationmode none
attr recordingmode sum
attr source "packetLength(demuxFlow(merge(packetPushedIn, packetPulledIn)))"
attr title "flow specific incoming packet lengths, sum"
attr unit b
statistic CutthroughSwitchingShowcase.device1.ethernet.paddingInserter flowIncomingPacketLengths:histogram
field count 0
field mean -nan
field stddev nan
field min nan
field max nan
field sum 0
field sqrsum 0
attr interpolationmode none
attr recordingmode histogram
attr source "packetLength(demuxFlow(merge(packetPushedIn, packetPulledIn)))"
attr title "flow specific incoming packet lengths"
attr unit b
bin	-inf	0
bin	0	0
bin	1	0
scalar CutthroughSwitchingShowcase.device1.ethernet.fcsInserter outgoingPackets:count 4997
attr recordingmode count
attr source "merge(packetPushedOut, packetPulledOut)"
attr title "outgoing packets, count"
attr unit pk
scalar CutthroughSwitchingShowcase.device1.ethernet.fcsInserter outgoingPacketLengths:sum 49810096
attr interpolationmode none
attr recordingmode sum
attr source "packetLength(merge(packetPushedOut, packetPulledOut))"
attr title "outgoing packet lengths, sum"
attr unit b
statistic CutthroughSwitchingShowcase.device1.ethernet.fcsInserter outgoingPacketLengths:histogram
field count 4997
field mean 9968
field stddev 0
field min 9968
field max 9968
field sum 49810096
field sqrsum 496507036928
attr interpolationmode none
attr recordingmode histogram
attr source "packetLength(merge(packetPushedOut, packetPulledOut))"
attr title "outgoing packet lengths"
attr unit b
bin	-inf	0
bin	9967	0
bin	9968	4997
bin	9969	0
scalar CutthroughSwitchingShowcase.device1.ethernet.fcsInserter flowOutgoingPacketLengths:sum 0
attr interpolationmode none
attr recordingmode sum
attr source "packetLength(demuxFlow(merge(packetPushedOut, packetPulledOut)))"
attr title "flow specific outgoing packet lengths, sum"
attr unit b
statistic CutthroughSwitchingShowcase.device1.ethernet.fcsInserter flowOutgoingPacketLengths:histogram
field count 0
field mean -nan
field stddev nan
field min nan
field max nan
field sum 0
field sqrsum 0
attr interpolationmode none
attr recordingmode histogram
attr source "packetLength(demuxFlow(merge(packetPushedOut, packetPulledOut)))"
attr title "flow specific outgoing packet lengths"
attr unit b
bin	-inf	0
bin	0	0
bin	1	0
scalar CutthroughSwitchingShowcase.device1.ethernet.fcsInserter incomingPackets:count 4997
attr recordingmode count
attr source "merge(packetPushedIn, packetPulledIn)"
attr title "incoming packets, count"
attr unit pk
scalar CutthroughSwitchingShowcase.device1.ethernet.fcsInserter incomingPacketLengths:sum 49650192
attr interpolationmode none
attr recordingmode sum
attr source "packetLength(merge(packetPushedIn, packetPulledIn))"
attr title "incoming packet lengths, sum"
attr unit b
statistic CutthroughSwitchingShowcase.device1.ethernet.fcsInserter incomingPacketLengths:histogram
field count 4997
field mean 9936
field stddev 0
field min 9936
field max 9936
field sum 49650192
field sqrsum 493324307712
attr interpolationmode none
attr recordingmode histogram
attr source "packetLength(merge(packetPushedIn, packetPulledIn))"
attr title "incoming packet lengths"
attr unit b
bin	-inf	0
bin	9935	0
bin	9936	4997
bin	9937	0
scalar CutthroughSwitchingShowcase.device1.ethernet.fcsInserter flowIncomingPacketLengths:sum 0
attr interpolationmode none
attr recordingmode sum
attr source "packetLength(demuxFlow(merge(packetPushedIn, packetPulledIn)))"
attr title "flow specific incoming packet lengths, sum"
attr unit b
statistic CutthroughSwitchingShowcase.device1.ethernet.fcsInserter flowIncomingPacketLengths:histogram
field count 0
field mean -nan
field stddev nan
field min nan
field max nan
field sum 0
field sqrsum 0
attr interpolationmode none
attr recordingmode histogram
attr source "packetLength(demuxFlow(merge(packetPushedIn, packetPulledIn)))"
attr title "flow specific incoming packet lengths"
attr unit b
bin	-inf	0
bin	0	0
bin	1	0
scalar CutthroughSwitchingShowcase.device1.ethernet.macHeaderChecker outgoingPackets:count 0
attr recordingmode count
attr source "merge(packetPushedOut, packetPulledOut)"
attr title "outgoing packets, count"
attr unit pk
scalar CutthroughSwitchingShowcase.device1.ethernet.macHeaderChecker outgoingPacketLengths:sum 0
attr interpolationmode none
attr recordingmode sum
attr source "packetLength(merge(packetPushedOut, packetPulledOut))"
attr title "outgoing packet lengths, sum"
attr unit b
statistic CutthroughSwitchingShowcase.device1.ethernet.macHeaderChecker outgoingPacketLengths:histogram
field count 0
field mean -nan
field stddev nan
field min nan
field max nan
field sum 0
field sqrsum 0
attr interpolationmode none
attr recordingmode histogram
attr source "packetLength(merge(packetPushedOut, packetPulledOut))"
attr title "outgoing packet lengths"
attr unit b
bin	-inf	0
bin	0	0
bin	1	0
scalar CutthroughSwitchingShowcase.device1.ethernet.macHeaderChecker flowOutgoingPacketLengths:sum 0
attr interpolationmode none
attr recordingmode sum
attr source "packetLength(demuxFlow(merge(packetPushedOut, packetPulledOut)))"
attr title "flow specific outgoing packet lengths, sum"
attr unit b
statistic CutthroughSwitchingShowcase.device1.ethernet.macHeaderChecker flowOutgoingPacketLengths:histogram
field count 0
field mean -nan
field stddev nan
field min nan
field max nan
field sum 0
field sqrsum 0
attr interpolationmode none
attr recordingmode histogram
attr source "packetLength(demuxFlow(merge(packetPushedOut, packetPulledOut)))"
attr title "flow specific outgoing packet lengths"
attr unit b
bin	-inf	0
bin	0	0
bin	1	0
scalar CutthroughSwitchingShowcase.device1.ethernet.macHeaderChecker incomingPackets:count 0
attr recordingmode count
attr source "merge(packetPushedIn, packetPulledIn)"
attr title "incoming packets, count"
attr unit pk
scalar CutthroughSwitchingShowcase.device1.ethernet.macHeaderChecker incomingPacketLengths:sum 0
attr interpolationmode none
attr recordingmode sum
attr source "packetLength(merge(packetPushedIn, packetPulledIn))"
attr title "incoming packet lengths, sum"
attr unit b
statistic CutthroughSwitchingShowcase.device1.ethernet.macHeaderChecker incomingPacketLengths:histogram
field count 0
field mean -nan
field stddev nan
field min nan
field max nan
field sum 0
field sqrsum 0
attr interpolationmode none
attr recordingmode histogram
attr source "packetLength(merge(packetPushedIn, packetPulledIn))"
attr title "incoming packet lengths"
attr unit b
bin	-inf	0
bin	0	0
bin	1	0
scalar CutthroughSwitchingShowcase.device1.ethernet.macHeaderChecker flowIncomingPacketLengths:sum 0
attr interpolationmode none
attr recordingmode sum
attr source "packetLength(demuxFlow(merge(packetPushedIn, packetPulledIn)))"
attr title "flow specific incoming packet lengths, sum"
attr unit b
statistic CutthroughSwitchingShowcase.device1.ethernet.macHeaderChecker flowIncomingPacketLengths:histogram
field count 0
field mean -nan
field stddev nan
field min nan
field max nan
field sum 0
field sqrsum 0
attr interpolationmode none
attr recordingmode histogram
attr source "packetLength(demuxFlow(merge(packetPushedIn, packetPulledIn)))"
attr title "flow specific incoming packet lengths"
attr unit b
bin	-inf	0
bin	0	0
bin	1	0
scalar CutthroughSwitchingShowcase.device1.ethernet.macHeaderChecker droppedPackets:count 0
attr recordingmode count
attr source packetDropped
attr title "dropped packets, count"
attr unit pk
scalar CutthroughSwitchingShowcase.device1.ethernet.macHeaderChecker droppedPacketLengths:sum 0
attr interpolationmode none
attr recordingmode sum
attr source packetLength(packetDropped)
attr title "dropped packet lengths, sum"
attr unit b
statistic CutthroughSwitchingShowcase.device1.ethernet.macHeaderChecker droppedPacketLengths:histogram
field count 0
field mean -nan
field stddev nan
field min nan
field max nan
field sum 0
field sqrsum 0
attr interpolationmode none
attr recordingmode histogram
attr source packetLength(packetDropped)
attr title "dropped packet lengths"
attr unit b
bin	-inf	0
bin	0	0
bin	1	0
scalar CutthroughSwitchingShowcase.device1.ethernet.macHeaderChecker flowDroppedPacketLengths:sum 0
attr interpolationmode none
attr recordingmode sum
attr source packetLength(demuxFlow(packetDropped))
attr title "flow specific dropped packet lengths, sum"
attr unit b
statistic CutthroughSwitchingShowcase.device1.ethernet.macHeaderChecker flowDroppedPacketLengths:histogram
field count 0
field mean -nan
field stddev nan
field min nan
field max nan
field sum 0
field sqrsum 0
attr interpolationmode none
attr recordingmode histogram
attr source packetLength(demuxFlow(packetDropped))
attr title "flow specific dropped packet lengths"
attr unit b
bin	-inf	0
bin	0	0
bin	1	0
scalar CutthroughSwitchingShowcase.device1.ethernet.fcsChecker outgoingPackets:count 0
attr recordingmode count
attr source "merge(packetPushedOut, packetPulledOut)"
attr title "outgoing packets, count"
attr unit pk
scalar CutthroughSwitchingShowcase.device1.ethernet.fcsChecker outgoingPacketLengths:sum 0
attr interpolationmode none
attr recordingmode sum
attr source "packetLength(merge(packetPushedOut, packetPulledOut))"
attr title "outgoing packet lengths, sum"
attr unit b
statistic CutthroughSwitchingShowcase.device1.ethernet.fcsChecker outgoingPacketLengths:histogram
field count 0
field mean -nan
field stddev nan
field min nan
field max nan
field sum 0
field sqrsum 0
attr interpolationmode none
attr recordingmode histogram
attr source "packetLength(merge(packetPushedOut, packetPulledOut))"
attr title "outgoing packet lengths"
attr unit b
bin	-inf	0
bin	0	0
bin	1	0
scalar CutthroughSwitchingShowcase.device1.ethernet.fcsChecker flowOutgoingPacketLengths:sum 0
attr interpolationmode none
attr recordingmode sum
attr source "packetLength(demuxFlow(merge(packetPushedOut, packetPulledOut)))"
attr title "flow specific outgoing packet lengths, sum"
attr unit b
statistic CutthroughSwitchingShowcase.device1.ethernet.fcsChecker flowOutgoingPacketLengths:histogram
field count 0
field mean -nan
field stddev nan
field min nan
field max nan
field sum 0
field sqrsum 0
attr interpolationmode none
attr recordingmode histogram
attr source "packetLength(demuxFlow(merge(packetPushedOut, packetPulledOut)))"
attr title "flow specific outgoing packet lengths"
attr unit b
bin	-inf	0
bin	0	0
bin	1	0
scalar CutthroughSwitchingShowcase.device1.ethernet.fcsChecker incomingPackets:count 0
attr recordingmode count
attr source "merge(packetPushedIn, packetPulledIn)"
attr title "incoming packets, count"
attr unit pk
scalar CutthroughSwitchingShowcase.device1.ethernet.fcsChecker incomingPacketLengths:sum 0
attr interpolationmode none
attr recordingmode sum
attr source "packetLength(merge(packetPushedIn, packetPulledIn))"
attr title "incoming packet lengths, sum"
attr unit b
statistic CutthroughSwitchingShowcase.device1.ethernet.fcsChecker incomingPacketLengths:histogram
field count 0
field mean -nan
field stddev nan
field min nan
field max nan
field sum 0
field sqrsum 0
attr interpolationmode none
attr recordingmode histogram
attr source "packetLength(merge(packetPushedIn, packetPulledIn))"
attr title "incoming packet lengths"
attr unit b
bin	-inf	0
bin	0	0
bin	1	0
scalar CutthroughSwitchingShowcase.device1.ethernet.fcsChecker flowIncomingPacketLengths:sum 0
attr interpolationmode none
attr recordingmode sum
attr source "packetLength(demuxFlow(merge(packetPushedIn, packetPulledIn)))"
attr title "flow specific incoming packet lengths, sum"
attr unit b
statistic CutthroughSwitchingShowcase.device1.ethernet.fcsChecker flowIncomingPacketLengths:histogram
field count 0
field mean -nan
field stddev nan
field min nan
field max nan
field sum 0
field sqrsum 0
attr interpolationmode none
attr recordingmode histogram
attr source "packetLength(demuxFlow(merge(packetPushedIn, packetPulledIn)))"
attr title "flow specific incoming packet lengths"
attr unit b
bin	-inf	0
bin	0	0
bin	1	0
scalar CutthroughSwitchingShowcase.device1.ethernet.fcsChecker droppedPackets:count 0
attr recordingmode count
attr source packetDropped
attr title "dropped packets, count"
attr unit pk
scalar CutthroughSwitchingShowcase.device1.ethernet.fcsChecker droppedPacketLengths:sum 0
attr interpolationmode none
attr recordingmode sum
attr source packetLength(packetDropped)
attr title "dropped packet lengths, sum"
attr unit b
statistic CutthroughSwitchingShowcase.device1.ethernet.fcsChecker droppedPacketLengths:histogram
field count 0
field mean -nan
field stddev nan
field min nan
field max nan
field sum 0
field sqrsum 0
attr interpolationmode none
attr recordingmode histogram
attr source packetLength(packetDropped)
attr title "dropped packet lengths"
attr unit b
bin	-inf	0
bin	0	0
bin	1	0
scalar CutthroughSwitchingShowcase.device1.ethernet.fcsChecker flowDroppedPacketLengths:sum 0
attr interpolationmode none
attr recordingmode sum
attr source packetLength(demuxFlow(packetDropped))
attr title "flow specific dropped packet lengths, sum"
attr unit b
statistic CutthroughSwitchingShowcase.device1.ethernet.fcsChecker flowDroppedPacketLengths:histogram
field count 0
field mean -nan
field stddev nan
field min nan
field max nan
field sum 0
field sqrsum 0
attr interpolationmode none
attr recordingmode histogram
attr source packetLength(demuxFlow(packetDropped))
attr title "flow specific dropped packet lengths"
attr unit b
bin	-inf	0
bin	0	0
bin	1	0
scalar CutthroughSwitchingShowcase.device1.lo[0].lo rcvdPkFromHl:count 0
attr interpolationmode none
attr recordingmode count
attr source packetReceivedFromUpper
attr title "packets received from higher layer, count"
scalar CutthroughSwitchingShowcase.device1.lo[0].lo rcvdPkFromHl:sum(packetBytes) 0
attr interpolationmode none
attr recordingmode sum(packetBytes)
attr source packetReceivedFromUpper
attr title "packets received from higher layer, sum(packetBytes)"
scalar CutthroughSwitchingShowcase.device1.lo[0].lo passedUpPk:count 0
attr interpolationmode none
attr recordingmode count
attr source packetSentToUpper
attr title "packets passed to higher layer, count"
scalar CutthroughSwitchingShowcase.device1.lo[0].lo passedUpPk:sum(packetBytes) 0
attr interpolationmode none
attr recordingmode sum(packetBytes)
attr source packetSentToUpper
attr title "packets passed to higher layer, sum(packetBytes)"
scalar CutthroughSwitchingShowcase.device1.lo[0] packetDropInterfaceDown:count 0
attr interpolationmode none
attr recordingmode count
attr source packetDropReasonIsInterfaceDown(packetDropped)
attr title "packet drops: interface down, count"
scalar CutthroughSwitchingShowcase.device1.lo[0] packetDropInterfaceDown:sum(packetBytes) 0
attr interpolationmode none
attr recordingmode sum(packetBytes)
attr source packetDropReasonIsInterfaceDown(packetDropped)
attr title "packet drops: interface down, sum(packetBytes)"
scalar CutthroughSwitchingShowcase.device1.lo[0] packetDropNoCarrier:count 0
attr interpolationmode none
attr recordingmode count
attr source packetDropReasonIsNoCarrier(packetDropped)
attr title "packet drops: no carrier, count"
scalar CutthroughSwitchingShowcase.device1.lo[0] packetDropNoCarrier:sum(packetBytes) 0
attr interpolationmode none
attr recordingmode sum(packetBytes)
attr source packetDropReasonIsNoCarrier(packetDropped)
attr title "packet drops: no carrier, sum(packetBytes)"
scalar CutthroughSwitchingShowcase.device1.eth[0].macLayer.queue queueLength:last 0
attr autoWarmupFilter false
attr interpolationmode sample-hold
attr recordingmode last
attr source "warmup(atomic(constant0(packetPushEnded) + count(packetPushStarted) - count(packetPulled) - count(packetRemoved) - count(packetDropped)))"
attr title "queue length, last"
attr unit pk
scalar CutthroughSwitchingShowcase.device1.eth[0].macLayer.queue queueLength:max 1
attr autoWarmupFilter false
attr interpolationmode sample-hold
attr recordingmode max
attr source "warmup(atomic(constant0(packetPushEnded) + count(packetPushStarted) - count(packetPulled) - count(packetRemoved) - count(packetDropped)))"
attr title "queue length, max"
attr unit pk
scalar CutthroughSwitchingShowcase.device1.eth[0].macLayer.queue queueLength:timeavg 0
attr autoWarmupFilter false
attr interpolationmode sample-hold
attr recordingmode timeavg
attr source "warmup(atomic(constant0(packetPushEnded) + count(packetPushStarted) - count(packetPulled) - count(packetRemoved) - count(packetDropped)))"
attr title "queue length, timeavg"
attr unit pk
scalar CutthroughSwitchingShowcase.device1.eth[0].macLayer.queue queueBitLength:last 0
attr autoWarmupFilter false
attr interpolationmode sample-hold
attr recordingmode last
attr source "warmup(atomic(constant0(packetPushEnded) + sum(packetLength(packetPushStarted)) - sum(packetLength(packetPulled)) - sum(packetLength(packetRemoved)) - sum(packetLength(packetDropped))))"
attr title "queue bit length, last"
attr unit b
scalar CutthroughSwitchingShowcase.device1.eth[0].macLayer.queue queueBitLength:max 9968
attr autoWarmupFilter false
attr interpolationmode sample-hold
attr recordingmode max
attr source "warmup(atomic(constant0(packetPushEnded) + sum(packetLength(packetPushStarted)) - sum(packetLength(packetPulled)) - sum(packetLength(packetRemoved)) - sum(packetLength(packetDropped))))"
attr title "queue bit length, max"
attr unit b
scalar CutthroughSwitchingShowcase.device1.eth[0].macLayer.queue queueBitLength:timeavg 0
attr autoWarmupFilter false
attr interpolationmode sample-hold
attr recordingmode timeavg
attr source "warmup(atomic(constant0(packetPushEnded) + sum(packetLength(packetPushStarted)) - sum(packetLength(packetPulled)) - sum(packetLength(packetRemoved)) - sum(packetLength(packetDropped))))"
attr title "queue bit length, timeavg"
attr unit b
statistic CutthroughSwitchingShowcase.device1.eth[0].macLayer.queue queueingTime:histogram
field count 4997
field mean 0
field stddev 0
field min 0
field max 0
field sum 0
field sqrsum 0
attr interpolationmode none
attr recordingmode histogram
attr source queueingTime(packetPulled)
attr title "queueing times"
attr unit s
bin	-inf	0
bin	-0.5	0
bin	-0.48	0
bin	-0.46	0
bin	-0.44	0
bin	-0.42	0
bin	-0.4	0
bin	-0.38	0
bin	-0.36	0
bin	-0.34	0
bin	-0.32	0
bin	-0.3	0
bin	-0.28	0
bin	-0.26	0
bin	-0.24	0
bin	-0.22	0
bin	-0.2	0
bin	-0.18	0
bin	-0.16	0
bin	-0.14	0
bin	-0.12	0
bin	-0.1	0
bin	-0.08	0
bin	-0.06	0
bin	-0.04	0
bin	-0.02	0
bin	0	4997
bin	0.02	0
bin	0.04	0
bin	0.06	0
bin	0.08	0
bin	0.1	0
bin	0.12	0
bin	0.14	0
bin	0.16	0
bin	0.18	0
bin	0.2	0
bin	0.22	0
bin	0.24	0
bin	0.26	0
bin	0.28	0
bin	0.3	0
bin	0.32	0
bin	0.34	0
bin	0.36	0
bin	0.38	0
bin	0.4	0
bin	0.42	0
bin	0.44	0
bin	0.46	0
bin	0.48	0
bin	0.5	0
scalar CutthroughSwitchingShowcase.device1.eth[0].macLayer.queue outgoingPackets:count 4997
attr recordingmode count
attr source packetPulled
attr title "outgoing packets, count"
attr unit pk
scalar CutthroughSwitchingShowcase.device1.eth[0].macLayer.queue outgoingPacketLengths:sum 49810096
attr interpolationmode none
attr recordingmode sum
attr source packetLength(packetPulled)
attr title "outgoing packet lengths, sum"
attr unit b
statistic CutthroughSwitchingShowcase.device1.eth[0].macLayer.queue outgoingPacketLengths:histogram
field count 4997
field mean 9968
field stddev 0
field min 9968
field max 9968
field sum 49810096
field sqrsum 496507036928
attr interpolationmode none
attr recordingmode histogram
attr source packetLength(packetPulled)
attr title "outgoing packet lengths"
attr unit b
bin	-inf	0
bin	9967	0
bin	9968	4997
bin	9969	0
statistic CutthroughSwitchingShowcase.device1.eth[0].macLayer.queue flowQueueingTime:histogram
field count 0
field mean -nan
field stddev nan
field min nan
field max nan
field sum 0
field sqrsum 0
attr interpolationmode none
attr recordingmode histogram
attr source queueingTime(demuxFlow(packetPulled))
attr title "flow queueing times"
attr unit s
bin	-inf	0
bin	0	0
bin	1	0
scalar CutthroughSwitchingShowcase.device1.eth[0].macLayer.queue incomingPackets:count 4997
attr recordingmode count
attr source packetPushStarted
attr title "incoming packets, count"
attr unit pk
scalar CutthroughSwitchingShowcase.device1.eth[0].macLayer.queue incomingPacketLengths:sum 49810096
attr interpolationmode none
attr recordingmode sum
attr source packetLength(packetPushStarted)
attr title "incoming packet lengths, sum"
attr unit b
statistic CutthroughSwitchingShowcase.device1.eth[0].macLayer.queue incomingPacketLengths:histogram
field count 4997
field mean 9968
field stddev 0
field min 9968
field max 9968
field sum 49810096
field sqrsum 496507036928
attr interpolationmode none
attr recordingmode histogram
attr source packetLength(packetPushStarted)
attr title "incoming packet lengths"
attr unit b
bin	-inf	0
bin	9967	0
bin	9968	4997
bin	9969	0
scalar CutthroughSwitchingShowcase.device1.eth[0].macLayer.queue droppedPacketsQueueOverflow:count 0
attr interpolationmode none
attr recordingmode count
attr source packetDropReasonIsQueueOverflow(packetDropped)
attr title "dropped packets: queue overflow, count"
attr unit pk
scalar CutthroughSwitchingShowcase.device1.eth[0].macLayer.queue droppedPacketLengthsQueueOverflow:sum 0
attr interpolationmode none
attr recordingmode sum
attr source packetLength(packetDropReasonIsQueueOverflow(packetDropped))
attr title "dropped packet lengths: queue overflow, sum"
attr unit b
scalar CutthroughSwitchingShowcase.device1.eth[0].macLayer.server incomingPackets:count 4997
attr recordingmode count
attr source packetPulled
attr title "incoming packets, count"
attr unit pk
scalar CutthroughSwitchingShowcase.device1.eth[0].macLayer.server incomingPacketLengths:sum 49810096
attr interpolationmode none
attr recordingmode sum
attr source packetLength(packetPulled)
attr title "incoming packet lengths, sum"
attr unit b
statistic CutthroughSwitchingShowcase.device1.eth[0].macLayer.server incomingPacketLengths:histogram
field count 4997
field mean 9968
field stddev 0
field min 9968
field max 9968
field sum 49810096
field sqrsum 496507036928
attr interpolationmode none
attr recordingmode histogram
attr source packetLength(packetPulled)
attr title "incoming packet lengths"
attr unit b
bin	-inf	0
bin	9967	0
bin	9968	4997
bin	9969	0
scalar CutthroughSwitchingShowcase.device1.eth[0].macLayer.server outgoingPackets:count 4997
attr recordingmode count
attr source packetPushed
attr title "outgoing packets, count"
attr unit pk
scalar CutthroughSwitchingShowcase.device1.eth[0].macLayer.server outgoingPacketLengths:sum 49810096
attr interpolationmode none
attr recordingmode sum
attr source packetLength(packetPushed)
attr title "outgoing packet lengths, sum"
attr unit b
statistic CutthroughSwitchingShowcase.device1.eth[0].macLayer.server outgoingPacketLengths:histogram
field count 4997
field mean 9968
field stddev 0
field min 9968
field max 9968
field sum 49810096
field sqrsum 496507036928
attr interpolationmode none
attr recordingmode histogram
attr source packetLength(packetPushed)
attr title "outgoing packet lengths"
attr unit b
bin	-inf	0
bin	9967	0
bin	9968	4997
bin	9969	0
scalar CutthroughSwitchingShowcase.device1.eth[0].macLayer.outboundEmitter outgoingPackets:count 4997
attr recordingmode count
attr source "merge(packetPushedOut, packetPulledOut)"
attr title "outgoing packets, count"
attr unit pk
scalar CutthroughSwitchingShowcase.device1.eth[0].macLayer.outboundEmitter outgoingPacketLengths:sum 49810096
attr interpolationmode none
attr recordingmode sum
attr source "packetLength(merge(packetPushedOut, packetPulledOut))"
attr title "outgoing packet lengths, sum"
attr unit b
statistic CutthroughSwitchingShowcase.device1.eth[0].macLayer.outboundEmitter outgoingPacketLengths:histogram
field count 4997
field mean 9968
field stddev 0
field min 9968
field max 9968
field sum 49810096
field sqrsum 496507036928
attr interpolationmode none
attr recordingmode histogram
attr source "packetLength(merge(packetPushedOut, packetPulledOut))"
attr title "outgoing packet lengths"
attr unit b
bin	-inf	0
bin	9967	0
bin	9968	4997
bin	9969	0
scalar CutthroughSwitchingShowcase.device1.eth[0].macLayer.outboundEmitter flowOutgoingPacketLengths:sum 0
attr interpolationmode none
attr recordingmode sum
attr source "packetLength(demuxFlow(merge(packetPushedOut, packetPulledOut)))"
attr title "flow specific outgoing packet lengths, sum"
attr unit b
statistic CutthroughSwitchingShowcase.device1.eth[0].macLayer.outboundEmitter flowOutgoingPacketLengths:histogram
field count 0
field mean -nan
field stddev nan
field min nan
field max nan
field sum 0
field sqrsum 0
attr interpolationmode none
attr recordingmode histogram
attr source "packetLength(demuxFlow(merge(packetPushedOut, packetPulledOut)))"
attr title "flow specific outgoing packet lengths"
attr unit b
bin	-inf	0
bin	0	0
bin	1	0
scalar CutthroughSwitchingShowcase.device1.eth[0].macLayer.outboundEmitter incomingPackets:count 4997
attr recordingmode count
attr source "merge(packetPushedIn, packetPulledIn)"
attr title "incoming packets, count"
attr unit pk
scalar CutthroughSwitchingShowcase.device1.eth[0].macLayer.outboundEmitter incomingPacketLengths:sum 49810096
attr interpolationmode none
attr recordingmode sum
attr source "packetLength(merge(packetPushedIn, packetPulledIn))"
attr title "incoming packet lengths, sum"
attr unit b
statistic CutthroughSwitchingShowcase.device1.eth[0].macLayer.outboundEmitter incomingPacketLengths:histogram
field count 4997
field mean 9968
field stddev 0
field min 9968
field max 9968
field sum 49810096
field sqrsum 496507036928
attr interpolationmode none
attr recordingmode histogram
attr source "packetLength(merge(packetPushedIn, packetPulledIn))"
attr title "incoming packet lengths"
attr unit b
bin	-inf	0
bin	9967	0
bin	9968	4997
bin	9969	0
scalar CutthroughSwitchingShowcase.device1.eth[0].macLayer.outboundEmitter flowIncomingPacketLengths:sum 0
attr interpolationmode none
attr recordingmode sum
attr source "packetLength(demuxFlow(merge(packetPushedIn, packetPulledIn)))"
attr title "flow specific incoming packet lengths, sum"
attr unit b
statistic CutthroughSwitchingShowcase.device1.eth[0].macLayer.outboundEmitter flowIncomingPacketLengths:histogram
field count 0
field mean -nan
field stddev nan
field min nan
field max nan
field sum 0
field sqrsum 0
attr interpolationmode none
attr recordingmode histogram
attr source "packetLength(demuxFlow(merge(packetPushedIn, packetPulledIn)))"
attr title "flow specific incoming packet lengths"
attr unit b
bin	-inf	0
bin	0	0
bin	1	0
scalar CutthroughSwitchingShowcase.device1.eth[0].macLayer.fcsChecker outgoingPackets:count 0
attr recordingmode count
attr source "merge(packetPushedOut, packetPulledOut)"
attr title "outgoing packets, count"
attr unit pk
scalar CutthroughSwitchingShowcase.device1.eth[0].macLayer.fcsChecker outgoingPacketLengths:sum 0
attr interpolationmode none
attr recordingmode sum
attr source "packetLength(merge(packetPushedOut, packetPulledOut))"
attr title "outgoing packet lengths, sum"
attr unit b
statistic CutthroughSwitchingShowcase.device1.eth[0].macLayer.fcsChecker outgoingPacketLengths:histogram
field count 0
field mean -nan
field stddev nan
field min nan
field max nan
field sum 0
field sqrsum 0
attr interpolationmode none
attr recordingmode histogram
attr source "packetLength(merge(packetPushedOut, packetPulledOut))"
attr title "outgoing packet lengths"
attr unit b
bin	-inf	0
bin	0	0
bin	1	0
scalar CutthroughSwitchingShowcase.device1.eth[0].macLayer.fcsChecker flowOutgoingPacketLengths:sum 0
attr interpolationmode none
attr recordingmode sum
attr source "packetLength(demuxFlow(merge(packetPushedOut, packetPulledOut)))"
attr title "flow specific outgoing packet lengths, sum"
attr unit b
statistic CutthroughSwitchingShowcase.device1.eth[0].macLayer.fcsChecker flowOutgoingPacketLengths:histogram
field count 0
field mean -nan
field stddev nan
field min nan
field max nan
field sum 0
field sqrsum 0
attr interpolationmode none
attr recordingmode histogram
attr source "packetLength(demuxFlow(merge(packetPushedOut, packetPulledOut)))"
attr title "flow specific outgoing packet lengths"
attr unit b
bin	-inf	0
bin	0	0
bin	1	0
scalar CutthroughSwitchingShowcase.device1.eth[0].macLayer.fcsChecker incomingPackets:count 0
attr recordingmode count
attr source "merge(packetPushedIn, packetPulledIn)"
attr title "incoming packets, count"
attr unit pk
scalar CutthroughSwitchingShowcase.device1.eth[0].macLayer.fcsChecker incomingPacketLengths:sum 0
attr interpolationmode none
attr recordingmode sum
attr source "packetLength(merge(packetPushedIn, packetPulledIn))"
attr title "incoming packet lengths, sum"
attr unit b
statistic CutthroughSwitchingShowcase.device1.eth[0].macLayer.fcsChecker incomingPacketLengths:histogram
field count 0
field mean -nan
field stddev nan
field min nan
field max nan
field sum 0
field sqrsum 0
attr interpolationmode none
attr recordingmode histogram
attr source "packetLength(merge(packetPushedIn, packetPulledIn))"
attr title "incoming packet lengths"
attr unit b
bin	-inf	0
bin	0	0
bin	1	0
scalar CutthroughSwitchingShowcase.device1.eth[0].macLayer.fcsChecker flowIncomingPacketLengths:sum 0
attr interpolationmode none
attr recordingmode sum
attr source "packetLength(demuxFlow(merge(packetPushedIn, packetPulledIn)))"
attr title "flow specific incoming packet lengths, sum"
attr unit b
statistic CutthroughSwitchingShowcase.device1.eth[0].macLayer.fcsChecker flowIncomingPacketLengths:histogram
field count 0
field mean -nan
field stddev nan
field min nan
field max nan
field sum 0
field sqrsum 0
attr interpolationmode none
attr recordingmode histogram
attr source "packetLength(demuxFlow(merge(packetPushedIn, packetPulledIn)))"
attr title "flow specific incoming packet lengths"
attr unit b
bin	-inf	0
bin	0	0
bin	1	0
scalar CutthroughSwitchingShowcase.device1.eth[0].macLayer.fcsChecker droppedPackets:count 0
attr recordingmode count
attr source packetDropped
attr title "dropped packets, count"
attr unit pk
scalar CutthroughSwitchingShowcase.device1.eth[0].macLayer.fcsChecker droppedPacketLengths:sum 0
attr interpolationmode none
attr recordingmode sum
attr source packetLength(packetDropped)
attr title "dropped packet lengths, sum"
attr unit b
statistic CutthroughSwitchingShowcase.device1.eth[0].macLayer.fcsChecker droppedPacketLengths:histogram
field count 0
field mean -nan
field stddev nan
field min nan
field max nan
field sum 0
field sqrsum 0
attr interpolationmode none
attr recordingmode histogram
attr source packetLength(packetDropped)
attr title "dropped packet lengths"
attr unit b
bin	-inf	0
bin	0	0
bin	1	0
scalar CutthroughSwitchingShowcase.device1.eth[0].macLayer.fcsChecker flowDroppedPacketLengths:sum 0
attr interpolationmode none
attr recordingmode sum
attr source packetLength(demuxFlow(packetDropped))
attr title "flow specific dropped packet lengths, sum"
attr unit b
statistic CutthroughSwitchingShowcase.device1.eth[0].macLayer.fcsChecker flowDroppedPacketLengths:histogram
field count 0
field mean -nan
field stddev nan
field min nan
field max nan
field sum 0
field sqrsum 0
attr interpolationmode none
attr recordingmode histogram
attr source packetLength(demuxFlow(packetDropped))
attr title "flow specific dropped packet lengths"
attr unit b
bin	-inf	0
bin	0	0
bin	1	0
scalar CutthroughSwitchingShowcase.device1.eth[0].macLayer.inboundEmitter outgoingPackets:count 0
attr recordingmode count
attr source "merge(packetPushedOut, packetPulledOut)"
attr title "outgoing packets, count"
attr unit pk
scalar CutthroughSwitchingShowcase.device1.eth[0].macLayer.inboundEmitter outgoingPacketLengths:sum 0
attr interpolationmode none
attr recordingmode sum
attr source "packetLength(merge(packetPushedOut, packetPulledOut))"
attr title "outgoing packet lengths, sum"
attr unit b
statistic CutthroughSwitchingShowcase.device1.eth[0].macLayer.inboundEmitter outgoingPacketLengths:histogram
field count 0
field mean -nan
field stddev nan
field min nan
field max nan
field sum 0
field sqrsum 0
attr interpolationmode none
attr recordingmode histogram
attr source "packetLength(merge(packetPushedOut, packetPulledOut))"
attr title "outgoing packet lengths"
attr unit b
bin	-inf	0
bin	0	0
bin	1	0
scalar CutthroughSwitchingShowcase.device1.eth[0].macLayer.inboundEmitter flowOutgoingPacketLengths:sum 0
attr interpolationmode none
attr recordingmode sum
attr source "packetLength(demuxFlow(merge(packetPushedOut, packetPulledOut)))"
attr title "flow specific outgoing packet lengths, sum"
attr unit b
statistic CutthroughSwitchingShowcase.device1.eth[0].macLayer.inboundEmitter flowOutgoingPacketLengths:histogram
field count 0
field mean -nan
field stddev nan
field min nan
field max nan
field sum 0
field sqrsum 0
attr interpolationmode none
attr recordingmode histogram
attr source "packetLength(demuxFlow(merge(packetPushedOut, packetPulledOut)))"
attr title "flow specific outgoing packet lengths"
attr unit b
bin	-inf	0
bin	0	0
bin	1	0
scalar CutthroughSwitchingShowcase.device1.eth[0].macLayer.inboundEmitter incomingPackets:count 0
attr recordingmode count
attr source "merge(packetPushedIn, packetPulledIn)"
attr title "incoming packets, count"
attr unit pk
scalar CutthroughSwitchingShowcase.device1.eth[0].macLayer.inboundEmitter incomingPacketLengths:sum 0
attr interpolationmode none
attr recordingmode sum
attr source "packetLength(merge(packetPushedIn, packetPulledIn))"
attr title "incoming packet lengths, sum"
attr unit b
statistic CutthroughSwitchingShowcase.device1.eth[0].macLayer.inboundEmitter incomingPacketLengths:histogram
field count 0
field mean -nan
field stddev nan
field min nan
field max nan
field sum 0
field sqrsum 0
attr interpolationmode none
attr recordingmode histogram
attr source "packetLength(merge(packetPushedIn, packetPulledIn))"
attr title "incoming packet lengths"
attr unit b
bin	-inf	0
bin	0	0
bin	1	0
scalar CutthroughSwitchingShowcase.device1.eth[0].macLayer.inboundEmitter flowIncomingPacketLengths:sum 0
attr interpolationmode none
attr recordingmode sum
attr source "packetLength(demuxFlow(merge(packetPushedIn, packetPulledIn)))"
attr title "flow specific incoming packet lengths, sum"
attr unit b
statistic CutthroughSwitchingShowcase.device1.eth[0].macLayer.inboundEmitter flowIncomingPacketLengths:histogram
field count 0
field mean -nan
field stddev nan
field min nan
field max nan
field sum 0
field sqrsum 0
attr interpolationmode none
attr recordingmode histogram
attr source "packetLength(demuxFlow(merge(packetPushedIn, packetPulledIn)))"
attr title "flow specific incoming packet lengths"
attr unit b
bin	-inf	0
bin	0	0
bin	1	0
scalar CutthroughSwitchingShowcase.device1.eth[0].phyLayer.phyHeaderInserter outgoingPackets:count 4997
attr recordingmode count
attr source "merge(packetPushedOut, packetPulledOut)"
attr title "outgoing packets, count"
attr unit pk
scalar CutthroughSwitchingShowcase.device1.eth[0].phyLayer.phyHeaderInserter outgoingPacketLengths:sum 50129904
attr interpolationmode none
attr recordingmode sum
attr source "packetLength(merge(packetPushedOut, packetPulledOut))"
attr title "outgoing packet lengths, sum"
attr unit b
statistic CutthroughSwitchingShowcase.device1.eth[0].phyLayer.phyHeaderInserter outgoingPacketLengths:histogram
field count 4997
field mean 10032
field stddev 0
field min 10032
field max 10032
field sum 50129904
field sqrsum 502903196928
attr interpolationmode none
attr recordingmode histogram
attr source "packetLength(merge(packetPushedOut, packetPulledOut))"
attr title "outgoing packet lengths"
attr unit b
bin	-inf	0
bin	10031	0
bin	10032	4997
bin	10033	0
scalar CutthroughSwitchingShowcase.device1.eth[0].phyLayer.phyHeaderInserter flowOutgoingPacketLengths:sum 0
attr interpolationmode none
attr recordingmode sum
attr source "packetLength(demuxFlow(merge(packetPushedOut, packetPulledOut)))"
attr title "flow specific outgoing packet lengths, sum"
attr unit b
statistic CutthroughSwitchingShowcase.device1.eth[0].phyLayer.phyHeaderInserter flowOutgoingPacketLengths:histogram
field count 0
field mean -nan
field stddev nan
field min nan
field max nan
field sum 0
field sqrsum 0
attr interpolationmode none
attr recordingmode histogram
attr source "packetLength(demuxFlow(merge(packetPushedOut, packetPulledOut)))"
attr title "flow specific outgoing packet lengths"
attr unit b
bin	-inf	0
bin	0	0
bin	1	0
scalar CutthroughSwitchingShowcase.device1.eth[0].phyLayer.phyHeaderInserter incomingPackets:count 4997
attr recordingmode count
attr source "merge(packetPushedIn, packetPulledIn)"
attr title "incoming packets, count"
attr unit pk
scalar CutthroughSwitchingShowcase.device1.eth[0].phyLayer.phyHeaderInserter incomingPacketLengths:sum 49810096
attr interpolationmode none
attr recordingmode sum
attr source "packetLength(merge(packetPushedIn, packetPulledIn))"
attr title "incoming packet lengths, sum"
attr unit b
statistic CutthroughSwitchingShowcase.device1.eth[0].phyLayer.phyHeaderInserter incomingPacketLengths:histogram
field count 4997
field mean 9968
field stddev 0
field min 9968
field max 9968
field sum 49810096
field sqrsum 496507036928
attr interpolationmode none
attr recordingmode histogram
attr source "packetLength(merge(packetPushedIn, packetPulledIn))"
attr title "incoming packet lengths"
attr unit b
bin	-inf	0
bin	9967	0
bin	9968	4997
bin	9969	0
scalar CutthroughSwitchingShowcase.device1.eth[0].phyLayer.phyHeaderInserter flowIncomingPacketLengths:sum 0
attr interpolationmode none
attr recordingmode sum
attr source "packetLength(demuxFlow(merge(packetPushedIn, packetPulledIn)))"
attr title "flow specific incoming packet lengths, sum"
attr unit b
statistic CutthroughSwitchingShowcase.device1.eth[0].phyLayer.phyHeaderInserter flowIncomingPacketLengths:histogram
field count 0
field mean -nan
field stddev nan
field min nan
field max nan
field sum 0
field sqrsum 0
attr interpolationmode none
attr recordingmode histogram
attr source "packetLength(demuxFlow(merge(packetPushedIn, packetPulledIn)))"
attr title "flow specific incoming packet lengths"
attr unit b
bin	-inf	0
bin	0	0
bin	1	0
scalar CutthroughSwitchingShowcase.device1.eth[0].phyLayer.outboundEmitter outgoingPackets:count 4997
attr recordingmode count
attr source "merge(packetPushedOut, packetPulledOut)"
attr title "outgoing packets, count"
attr unit pk
scalar CutthroughSwitchingShowcase.device1.eth[0].phyLayer.outboundEmitter outgoingPacketLengths:sum 50129904
attr interpolationmode none
attr recordingmode sum
attr source "packetLength(merge(packetPushedOut, packetPulledOut))"
attr title "outgoing packet lengths, sum"
attr unit b
statistic CutthroughSwitchingShowcase.device1.eth[0].phyLayer.outboundEmitter outgoingPacketLengths:histogram
field count 4997
field mean 10032
field stddev 0
field min 10032
field max 10032
field sum 50129904
field sqrsum 502903196928
attr interpolationmode none
attr recordingmode histogram
attr source "packetLength(merge(packetPushedOut, packetPulledOut))"
attr title "outgoing packet lengths"
attr unit b
bin	-inf	0
bin	10031	0
bin	10032	4997
bin	10033	0
scalar CutthroughSwitchingShowcase.device1.eth[0].phyLayer.outboundEmitter flowOutgoingPacketLengths:sum 0
attr interpolationmode none
attr recordingmode sum
attr source "packetLength(demuxFlow(merge(packetPushedOut, packetPulledOut)))"
attr title "flow specific outgoing packet lengths, sum"
attr unit b
statistic CutthroughSwitchingShowcase.device1.eth[0].phyLayer.outboundEmitter flowOutgoingPacketLengths:histogram
field count 0
field mean -nan
field stddev nan
field min nan
field max nan
field sum 0
field sqrsum 0
attr interpolationmode none
attr recordingmode histogram
attr source "packetLength(demuxFlow(merge(packetPushedOut, packetPulledOut)))"
attr title "flow specific outgoing packet lengths"
attr unit b
bin	-inf	0
bin	0	0
bin	1	0
scalar CutthroughSwitchingShowcase.device1.eth[0].phyLayer.outboundEmitter incomingPackets:count 4997
attr recordingmode count
attr source "merge(packetPushedIn, packetPulledIn)"
attr title "incoming packets, count"
attr unit pk
scalar CutthroughSwitchingShowcase.device1.eth[0].phyLayer.outboundEmitter incomingPacketLengths:sum 50129904
attr interpolationmode none
attr recordingmode sum
attr source "packetLength(merge(packetPushedIn, packetPulledIn))"
attr title "incoming packet lengths, sum"
attr unit b
statistic CutthroughSwitchingShowcase.device1.eth[0].phyLayer.outboundEmitter incomingPacketLengths:histogram
field count 4997
field mean 10032
field stddev 0
field min 10032
field max 10032
field sum 50129904
field sqrsum 502903196928
attr interpolationmode none
attr recordingmode histogram
attr source "packetLength(merge(packetPushedIn, packetPulledIn))"
attr title "incoming packet lengths"
attr unit b
bin	-inf	0
bin	10031	0
bin	10032	4997
bin	10033	0
scalar CutthroughSwitchingShowcase.device1.eth[0].phyLayer.outboundEmitter flowIncomingPacketLengths:sum 0
attr interpolationmode none
attr recordingmode sum
attr source "packetLength(demuxFlow(merge(packetPushedIn, packetPulledIn)))"
attr title "flow specific incoming packet lengths, sum"
attr unit b
statistic CutthroughSwitchingShowcase.device1.eth[0].phyLayer.outboundEmitter flowIncomingPacketLengths:histogram
field count 0
field mean -nan
field stddev nan
field min nan
field max nan
field sum 0
field sqrsum 0
attr interpolationmode none
attr recordingmode histogram
attr source "packetLength(demuxFlow(merge(packetPushedIn, packetPulledIn)))"
attr title "flow specific incoming packet lengths"
attr unit b
bin	-inf	0
bin	0	0
bin	1	0
scalar CutthroughSwitchingShowcase.device1.eth[0].phyLayer.transmitter propagationTime 5e-08
statistic CutthroughSwitchingShowcase.device1.eth[0].phyLayer.transmitter throughput:histogram
field count 50
field mean 50156675.750918
field stddev 1191480.7648155
field min 47909436.752737
field max 53247334.862134
field sum 2507833787.5459
field sqrsum 1.2585416781337e+17
attr interpolationmode linear
attr recordingmode histogram
attr source throughput(transmissionEnded)
attr title throughput
attr unit bps
bin	-inf	0
bin	46500000	0
bin	46600000	0
bin	46700000	0
bin	46800000	0
bin	46900000	0
bin	47000000	0
bin	47100000	0
bin	47200000	0
bin	47300000	0
bin	47400000	0
bin	47500000	0
bin	47600000	0
bin	47700000	0
bin	47800000	0
bin	47900000	1
bin	48000000	0
bin	48100000	1
bin	48200000	0
bin	48300000	0
bin	48400000	2
bin	48500000	0
bin	48600000	2
bin	48700000	2
bin	48800000	2
bin	48900000	3
bin	49000000	0
bin	49100000	0
bin	49200000	1
bin	49300000	1
bin	49400000	0
bin	49500000	1
bin	49600000	0
bin	49700000	2
bin	49800000	3
bin	49900000	0
bin	50000000	1
bin	50100000	1
bin	50200000	2
bin	50300000	3
bin	50400000	1
bin	50500000	2
bin	50600000	2
bin	50700000	3
bin	50800000	1
bin	50900000	3
bin	51000000	1
bin	51100000	3
bin	51200000	0
bin	51300000	0
bin	51400000	1
bin	51500000	1
bin	51600000	0
bin	51700000	0
bin	51800000	2
bin	51900000	0
bin	52000000	0
bin	52100000	0
bin	52200000	0
bin	52300000	0
bin	52400000	0
bin	52500000	0
bin	52600000	0
bin	52700000	0
bin	52800000	0
bin	52900000	0
bin	53000000	0
bin	53100000	1
bin	53200000	1
bin	53300000	0
bin	53400000	0
bin	53500000	0
bin	53600000	0
bin	53700000	0
bin	53800000	0
bin	53900000	0
bin	54000000	0
bin	54100000	0
bin	54200000	0
bin	54300000	0
bin	54400000	0
bin	54500000	0
bin	54600000	0
statistic CutthroughSwitchingShowcase.device1.eth[0].phyLayer.transmitter utilization:histogram
field count 50
field mean 5.0157087698888
field stddev 0.11983460631502
field min 4.7816058146968
field max 5.3236251241415
field sum 250.78543849444
field sqrsum 1258.5703795276
attr interpolationmode linear
attr recordingmode histogram
attr source "100 * utilization(count(transmissionStarted) - count(transmissionEnded))"
attr title utilization
attr unit %
bin	-inf	0
bin	4.64	0
bin	4.65	0
bin	4.66	0
bin	4.67	0
bin	4.68	0
bin	4.69	0
bin	4.7	0
bin	4.71	0
bin	4.72	0
bin	4.73	0
bin	4.74	0
bin	4.75	0
bin	4.76	0
bin	4.77	0
bin	4.78	1
bin	4.79	0
bin	4.8	0
bin	4.81	1
bin	4.82	0
bin	4.83	0
bin	4.84	2
bin	4.85	2
bin	4.86	1
bin	4.87	2
bin	4.88	0
bin	4.89	1
bin	4.9	0
bin	4.91	2
bin	4.92	3
bin	4.93	0
bin	4.94	2
bin	4.95	0
bin	4.96	0
bin	4.97	0
bin	4.98	0
bin	4.99	4
bin	5	3
bin	5.01	0
bin	5.02	2
bin	5.03	2
bin	5.04	2
bin	5.05	3
bin	5.06	0
bin	5.07	3
bin	5.08	1
bin	5.09	1
bin	5.1	1
bin	5.11	2
bin	5.12	2
bin	5.13	3
bin	5.14	1
bin	5.15	0
bin	5.16	0
bin	5.17	0
bin	5.18	0
bin	5.19	0
bin	5.2	1
bin	5.21	0
bin	5.22	0
bin	5.23	0
bin	5.24	0
bin	5.25	0
bin	5.26	0
bin	5.27	0
bin	5.28	0
bin	5.29	0
bin	5.3	0
bin	5.31	1
bin	5.32	1
bin	5.33	0
bin	5.34	0
bin	5.35	0
bin	5.36	0
bin	5.37	0
bin	5.38	0
bin	5.39	0
bin	5.4	0
bin	5.41	0
bin	5.42	0
bin	5.43	0
bin	5.44	0
bin	5.45	0
bin	5.46	0
statistic CutthroughSwitchingShowcase.device1.eth[0].phyLayer.transmitter transmissionTime:histogram
field count 4997
field mean 1.0032e-05
field stddev 0
field min 1.0032e-05
field max 1.0032e-05
field sum 0.050129904
field sqrsum 5.0290319692799e-07
attr interpolationmode none
attr recordingmode histogram
attr source packetDuration(transmissionEnded)
attr title "transmission time"
attr unit s
bin	-inf	0
bin	0	4997
bin	0.01	0
bin	0.02	0
bin	0.03	0
bin	0.04	0
bin	0.05	0
bin	0.06	0
bin	0.07	0
bin	0.08	0
bin	0.09	0
bin	0.1	0
bin	0.11	0
bin	0.12	0
bin	0.13	0
bin	0.14	0
bin	0.15	0
bin	0.16	0
bin	0.17	0
bin	0.18	0
bin	0.19	0
bin	0.2	0
bin	0.21	0
bin	0.22	0
bin	0.23	0
bin	0.24	0
bin	0.25	0
bin	0.26	0
bin	0.27	0
bin	0.28	0
bin	0.29	0
bin	0.3	0
bin	0.31	0
bin	0.32	0
bin	0.33	0
bin	0.34	0
bin	0.35	0
bin	0.36	0
bin	0.37	0
bin	0.38	0
bin	0.39	0
bin	0.4	0
bin	0.41	0
bin	0.42	0
bin	0.43	0
bin	0.44	0
bin	0.45	0
bin	0.46	0
bin	0.47	0
bin	0.48	0
bin	0.49	0
bin	0.5	0
bin	0.51	0
statistic CutthroughSwitchingShowcase.device1.eth[0].phyLayer.transmitter flowTransmissionTime:histogram
field count 0
field mean -nan
field stddev nan
field min nan
field max nan
field sum 0
field sqrsum 0
attr interpolationmode none
attr recordingmode histogram
attr source packetDuration(demuxFlow(transmissionEnded))
attr title "flow transmission time"
attr unit s
bin	-inf	0
bin	0	0
bin	1	0
scalar CutthroughSwitchingShowcase.device1.eth[0].phyLayer.phyHeaderChecker outgoingPackets:count 0
attr recordingmode count
attr source "merge(packetPushedOut, packetPulledOut)"
attr title "outgoing packets, count"
attr unit pk
scalar CutthroughSwitchingShowcase.device1.eth[0].phyLayer.phyHeaderChecker outgoingPacketLengths:sum 0
attr interpolationmode none
attr recordingmode sum
attr source "packetLength(merge(packetPushedOut, packetPulledOut))"
attr title "outgoing packet lengths, sum"
attr unit b
statistic CutthroughSwitchingShowcase.device1.eth[0].phyLayer.phyHeaderChecker outgoingPacketLengths:histogram
field count 0
field mean -nan
field stddev nan
field min nan
field max nan
field sum 0
field sqrsum 0
attr interpolationmode none
attr recordingmode histogram
attr source "packetLength(merge(packetPushedOut, packetPulledOut))"
attr title "outgoing packet lengths"
attr unit b
bin	-inf	0
bin	0	0
bin	1	0
scalar CutthroughSwitchingShowcase.device1.eth[0].phyLayer.phyHeaderChecker flowOutgoingPacketLengths:sum 0
attr interpolationmode none
attr recordingmode sum
attr source "packetLength(demuxFlow(merge(packetPushedOut, packetPulledOut)))"
attr title "flow specific outgoing packet lengths, sum"
attr unit b
statistic CutthroughSwitchingShowcase.device1.eth[0].phyLayer.phyHeaderChecker flowOutgoingPacketLengths:histogram
field count 0
field mean -nan
field stddev nan
field min nan
field max nan
field sum 0
field sqrsum 0
attr interpolationmode none
attr recordingmode histogram
attr source "packetLength(demuxFlow(merge(packetPushedOut, packetPulledOut)))"
attr title "flow specific outgoing packet lengths"
attr unit b
bin	-inf	0
bin	0	0
bin	1	0
scalar CutthroughSwitchingShowcase.device1.eth[0].phyLayer.phyHeaderChecker incomingPackets:count 0
attr recordingmode count
attr source "merge(packetPushedIn, packetPulledIn)"
attr title "incoming packets, count"
attr unit pk
scalar CutthroughSwitchingShowcase.device1.eth[0].phyLayer.phyHeaderChecker incomingPacketLengths:sum 0
attr interpolationmode none
attr recordingmode sum
attr source "packetLength(merge(packetPushedIn, packetPulledIn))"
attr title "incoming packet lengths, sum"
attr unit b
statistic CutthroughSwitchingShowcase.device1.eth[0].phyLayer.phyHeaderChecker incomingPacketLengths:histogram
field count 0
field mean -nan
field stddev nan
field min nan
field max nan
field sum 0
field sqrsum 0
attr interpolationmode none
attr recordingmode histogram
attr source "packetLength(merge(packetPushedIn, packetPulledIn))"
attr title "incoming packet lengths"
attr unit b
bin	-inf	0
bin	0	0
bin	1	0
scalar CutthroughSwitchingShowcase.device1.eth[0].phyLayer.phyHeaderChecker flowIncomingPacketLengths:sum 0
attr interpolationmode none
attr recordingmode sum
attr source "packetLength(demuxFlow(merge(packetPushedIn, packetPulledIn)))"
attr title "flow specific incoming packet lengths, sum"
attr unit b
statistic CutthroughSwitchingShowcase.device1.eth[0].phyLayer.phyHeaderChecker flowIncomingPacketLengths:histogram
field count 0
field mean -nan
field stddev nan
field min nan
field max nan
field sum 0
field sqrsum 0
attr interpolationmode none
attr recordingmode histogram
attr source "packetLength(demuxFlow(merge(packetPushedIn, packetPulledIn)))"
attr title "flow specific incoming packet lengths"
attr unit b
bin	-inf	0
bin	0	0
bin	1	0
scalar CutthroughSwitchingShowcase.device1.eth[0].phyLayer.phyHeaderChecker droppedPackets:count 0
attr recordingmode count
attr source packetDropped
attr title "dropped packets, count"
attr unit pk
scalar CutthroughSwitchingShowcase.device1.eth[0].phyLayer.phyHeaderChecker droppedPacketLengths:sum 0
attr interpolationmode none
attr recordingmode sum
attr source packetLength(packetDropped)
attr title "dropped packet lengths, sum"
attr unit b
statistic CutthroughSwitchingShowcase.device1.eth[0].phyLayer.phyHeaderChecker droppedPacketLengths:histogram
field count 0
field mean -nan
field stddev nan
field min nan
field max nan
field sum 0
field sqrsum 0
attr interpolationmode none
attr recordingmode histogram
attr source packetLength(packetDropped)
attr title "dropped packet lengths"
attr unit b
bin	-inf	0
bin	0	0
bin	1	0
scalar CutthroughSwitchingShowcase.device1.eth[0].phyLayer.phyHeaderChecker flowDroppedPacketLengths:sum 0
attr interpolationmode none
attr recordingmode sum
attr source packetLength(demuxFlow(packetDropped))
attr title "flow specific dropped packet lengths, sum"
attr unit b
statistic CutthroughSwitchingShowcase.device1.eth[0].phyLayer.phyHeaderChecker flowDroppedPacketLengths:histogram
field count 0
field mean -nan
field stddev nan
field min nan
field max nan
field sum 0
field sqrsum 0
attr interpolationmode none
attr recordingmode histogram
attr source packetLength(demuxFlow(packetDropped))
attr title "flow specific dropped packet lengths"
attr unit b
bin	-inf	0
bin	0	0
bin	1	0
scalar CutthroughSwitchingShowcase.device1.eth[0].phyLayer.inboundEmitter outgoingPackets:count 0
attr recordingmode count
attr source "merge(packetPushedOut, packetPulledOut)"
attr title "outgoing packets, count"
attr unit pk
scalar CutthroughSwitchingShowcase.device1.eth[0].phyLayer.inboundEmitter outgoingPacketLengths:sum 0
attr interpolationmode none
attr recordingmode sum
attr source "packetLength(merge(packetPushedOut, packetPulledOut))"
attr title "outgoing packet lengths, sum"
attr unit b
statistic CutthroughSwitchingShowcase.device1.eth[0].phyLayer.inboundEmitter outgoingPacketLengths:histogram
field count 0
field mean -nan
field stddev nan
field min nan
field max nan
field sum 0
field sqrsum 0
attr interpolationmode none
attr recordingmode histogram
attr source "packetLength(merge(packetPushedOut, packetPulledOut))"
attr title "outgoing packet lengths"
attr unit b
bin	-inf	0
bin	0	0
bin	1	0
scalar CutthroughSwitchingShowcase.device1.eth[0].phyLayer.inboundEmitter flowOutgoingPacketLengths:sum 0
attr interpolationmode none
attr recordingmode sum
attr source "packetLength(demuxFlow(merge(packetPushedOut, packetPulledOut)))"
attr title "flow specific outgoing packet lengths, sum"
attr unit b
statistic CutthroughSwitchingShowcase.device1.eth[0].phyLayer.inboundEmitter flowOutgoingPacketLengths:histogram
field count 0
field mean -nan
field stddev nan
field min nan
field max nan
field sum 0
field sqrsum 0
attr interpolationmode none
attr recordingmode histogram
attr source "packetLength(demuxFlow(merge(packetPushedOut, packetPulledOut)))"
attr title "flow specific outgoing packet lengths"
attr unit b
bin	-inf	0
bin	0	0
bin	1	0
scalar CutthroughSwitchingShowcase.device1.eth[0].phyLayer.inboundEmitter incomingPackets:count 0
attr recordingmode count
attr source "merge(packetPushedIn, packetPulledIn)"
attr title "incoming packets, count"
attr unit pk
scalar CutthroughSwitchingShowcase.device1.eth[0].phyLayer.inboundEmitter incomingPacketLengths:sum 0
attr interpolationmode none
attr recordingmode sum
attr source "packetLength(merge(packetPushedIn, packetPulledIn))"
attr title "incoming packet lengths, sum"
attr unit b
statistic CutthroughSwitchingShowcase.device1.eth[0].phyLayer.inboundEmitter incomingPacketLengths:histogram
field count 0
field mean -nan
field stddev nan
field min nan
field max nan
field sum 0
field sqrsum 0
attr interpolationmode none
attr recordingmode histogram
attr source "packetLength(merge(packetPushedIn, packetPulledIn))"
attr title "incoming packet lengths"
attr unit b
bin	-inf	0
bin	0	0
bin	1	0
scalar CutthroughSwitchingShowcase.device1.eth[0].phyLayer.inboundEmitter flowIncomingPacketLengths:sum 0
attr interpolationmode none
attr recordingmode sum
attr source "packetLength(demuxFlow(merge(packetPushedIn, packetPulledIn)))"
attr title "flow specific incoming packet lengths, sum"
attr unit b
statistic CutthroughSwitchingShowcase.device1.eth[0].phyLayer.inboundEmitter flowIncomingPacketLengths:histogram
field count 0
field mean -nan
field stddev nan
field min nan
field max nan
field sum 0
field sqrsum 0
attr interpolationmode none
attr recordingmode histogram
attr source "packetLength(demuxFlow(merge(packetPushedIn, packetPulledIn)))"
attr title "flow specific incoming packet lengths"
attr unit b
bin	-inf	0
bin	0	0
bin	1	0
statistic CutthroughSwitchingShowcase.device1.eth[0].phyLayer.receiver throughput:histogram
field count 10
field mean 0
field stddev 0
field min 0
field max 0
field sum 0
field sqrsum 0
attr interpolationmode linear
attr recordingmode histogram
attr source throughput(receptionEnded)
attr title throughput
attr unit bps
bin	-inf	0
bin	-0.5	0
bin	-0.48	0
bin	-0.46	0
bin	-0.44	0
bin	-0.42	0
bin	-0.4	0
bin	-0.38	0
bin	-0.36	0
bin	-0.34	0
bin	-0.32	0
bin	-0.3	0
bin	-0.28	0
bin	-0.26	0
bin	-0.24	0
bin	-0.22	0
bin	-0.2	0
bin	-0.18	0
bin	-0.16	0
bin	-0.14	0
bin	-0.12	0
bin	-0.1	0
bin	-0.08	0
bin	-0.06	0
bin	-0.04	0
bin	-0.02	0
bin	0	10
bin	0.02	0
bin	0.04	0
bin	0.06	0
bin	0.08	0
bin	0.1	0
bin	0.12	0
bin	0.14	0
bin	0.16	0
bin	0.18	0
bin	0.2	0
bin	0.22	0
bin	0.24	0
bin	0.26	0
bin	0.28	0
bin	0.3	0
bin	0.32	0
bin	0.34	0
bin	0.36	0
bin	0.38	0
bin	0.4	0
bin	0.42	0
bin	0.44	0
bin	0.46	0
bin	0.48	0
bin	0.5	0
statistic CutthroughSwitchingShowcase.device1.eth[0].phyLayer.receiver receptionTime:histogram
field count 0
field mean -nan
field stddev nan
field min nan
field max nan
field sum 0
field sqrsum 0
attr interpolationmode none
attr recordingmode histogram
attr source packetDuration(receptionEnded)
attr title "reception time"
attr unit s
bin	-inf	0
bin	0	0
bin	1	0
statistic CutthroughSwitchingShowcase.device1.eth[0].phyLayer.receiver flowReceptionTime:histogram
field count 0
field mean -nan
field stddev nan
field min nan
field max nan
field sum 0
field sqrsum 0
attr interpolationmode none
attr recordingmode histogram
attr source packetDuration(demuxFlow(receptionEnded))
attr title "flow reception time"
attr unit s
bin	-inf	0
bin	0	0
bin	1	0
scalar CutthroughSwitchingShowcase.device1.eth[0] packetDropInterfaceDown:count 0
attr interpolationmode none
attr recordingmode count
attr source packetDropReasonIsInterfaceDown(packetDropped)
attr title "packet drops: interface down, count"
scalar CutthroughSwitchingShowcase.device1.eth[0] packetDropInterfaceDown:sum(packetBytes) 0
attr interpolationmode none
attr recordingmode sum(packetBytes)
attr source packetDropReasonIsInterfaceDown(packetDropped)
attr title "packet drops: interface down, sum(packetBytes)"
scalar CutthroughSwitchingShowcase.device1.eth[0] packetDropNoCarrier:count 0
attr interpolationmode none
attr recordingmode count
attr source packetDropReasonIsNoCarrier(packetDropped)
attr title "packet drops: no carrier, count"
scalar CutthroughSwitchingShowcase.device1.eth[0] packetDropNoCarrier:sum(packetBytes) 0
attr interpolationmode none
attr recordingmode sum(packetBytes)
attr source packetDropReasonIsNoCarrier(packetDropped)
attr title "packet drops: no carrier, sum(packetBytes)"
scalar CutthroughSwitchingShowcase.device1.ipv4.ip packetDropAddressResolutionFailed:count 0
attr interpolationmode none
attr recordingmode count
attr source packetDropReasonIsAddressResolutionFailed(packetDropped)
attr title "packet drop: address resolution failed, count"
scalar CutthroughSwitchingShowcase.device1.ipv4.ip packetDropAddressResolutionFailed:sum(packetBytes) 0
attr interpolationmode none
attr recordingmode sum(packetBytes)
attr source packetDropReasonIsAddressResolutionFailed(packetDropped)
attr title "packet drop: address resolution failed, sum(packetBytes)"
scalar CutthroughSwitchingShowcase.device1.ipv4.ip packetDropHopLimitReached:count 0
attr interpolationmode none
attr recordingmode count
attr source packetDropReasonIsHopLimitReached(packetDropped)
attr title "packet drop: hop limit reached, count"
scalar CutthroughSwitchingShowcase.device1.ipv4.ip packetDropHopLimitReached:sum(packetBytes) 0
attr interpolationmode none
attr recordingmode sum(packetBytes)
attr source packetDropReasonIsHopLimitReached(packetDropped)
attr title "packet drop: hop limit reached, sum(packetBytes)"
scalar CutthroughSwitchingShowcase.device1.ipv4.ip packetDropForwardingDisabled:count 0
attr interpolationmode none
attr recordingmode count
attr source packetDropReasonIsForwardingDisabled(packetDropped)
attr title "packet drop: forwarding disabled, count"
scalar CutthroughSwitchingShowcase.device1.ipv4.ip packetDropForwardingDisabled:sum(packetBytes) 0
attr interpolationmode none
attr recordingmode sum(packetBytes)
attr source packetDropReasonIsForwardingDisabled(packetDropped)
attr title "packet drop: forwarding disabled, sum(packetBytes)"
scalar CutthroughSwitchingShowcase.device1.ipv4.ip packetDropLifetimeExpired:count 0
attr interpolationmode none
attr recordingmode count
attr source packetDropReasonIsLifetimeExpired(packetDropped)
attr title "packet drop: lifetime expired, count"
scalar CutthroughSwitchingShowcase.device1.ipv4.ip packetDropLifetimeExpired:sum(packetBytes) 0
attr interpolationmode none
attr recordingmode sum(packetBytes)
attr source packetDropReasonIsLifetimeExpired(packetDropped)
attr title "packet drop: lifetime expired, sum(packetBytes)"
scalar CutthroughSwitchingShowcase.device1.ipv4.ip packetDropNoInterfaceFound:count 0
attr interpolationmode none
attr recordingmode count
attr source packetDropReasonIsNoInterfaceFound(packetDropped)
attr title "packet drop: no interface found, count"
scalar CutthroughSwitchingShowcase.device1.ipv4.ip packetDropNoInterfaceFound:sum(packetBytes) 0
attr interpolationmode none
attr recordingmode sum(packetBytes)
attr source packetDropReasonIsNoInterfaceFound(packetDropped)
attr title "packet drop: no interface found, sum(packetBytes)"
scalar CutthroughSwitchingShowcase.device1.ipv4.ip packetDropNoRouteFound:count 0
attr interpolationmode none
attr recordingmode count
attr source packetDropReasonIsNoRouteFound(packetDropped)
attr title "packet drop: no route found, count"
scalar CutthroughSwitchingShowcase.device1.ipv4.ip packetDropNoRouteFound:sum(packetBytes) 0
attr interpolationmode none
attr recordingmode sum(packetBytes)
attr source packetDropReasonIsNoRouteFound(packetDropped)
attr title "packet drop: no route found, sum(packetBytes)"
scalar CutthroughSwitchingShowcase.device1.ipv4.ip packetDropUndefined:count 0
attr interpolationmode none
attr recordingmode count
attr source packetDropReasonIsUndefined(packetDropped)
attr title "packet drop: undefined, count"
scalar CutthroughSwitchingShowcase.device1.ipv4.ip packetDropUndefined:sum(packetBytes) 0
attr interpolationmode none
attr recordingmode sum(packetBytes)
attr source packetDropReasonIsUndefined(packetDropped)
attr title "packet drop: undefined, sum(packetBytes)"
scalar CutthroughSwitchingShowcase.device1.udp packetReceived:count 0
attr interpolationmode none
attr recordingmode count
attr source packetReceived
attr title "packets received, count"
scalar CutthroughSwitchingShowcase.device1.udp packetReceived:sum(packetBytes) 0
attr interpolationmode none
attr recordingmode sum(packetBytes)
attr source packetReceived
attr title "packets received, sum(packetBytes)"
scalar CutthroughSwitchingShowcase.device1.udp packetSent:count 4997
attr interpolationmode none
attr recordingmode count
attr source packetSent
attr title "packets sent, count"
scalar CutthroughSwitchingShowcase.device1.udp packetSent:sum(packetBytes) 6036376
attr interpolationmode none
attr recordingmode sum(packetBytes)
attr source packetSent
attr title "packets sent, sum(packetBytes)"
scalar CutthroughSwitchingShowcase.device1.udp passedUpPk:count 0
attr interpolationmode none
attr recordingmode count
attr source packetSentToUpper
attr title "packets passed up, count"
scalar CutthroughSwitchingShowcase.device1.udp droppedPkWrongPort:count 0
attr interpolationmode none
attr recordingmode count
attr source packetDropReasonIsNoPortFound(packetDropped)
attr title "packets dropped (wrong port), count"
scalar CutthroughSwitchingShowcase.device1.udp droppedPkBadChecksum:count 0
attr interpolationmode none
attr recordingmode count
attr source packetDropReasonIsIncorrectlyReceived(packetDropped)
attr title "packets dropped (checksum error), count"
scalar CutthroughSwitchingShowcase.device1.app[0].source packets:count 4997
attr recordingmode count
attr source packetPushed
attr title "packets, count"
attr unit pk
scalar CutthroughSwitchingShowcase.device1.app[0].source packetLengths:sum 47971200
attr interpolationmode none
attr recordingmode sum
attr source packetLength(packetPushed)
attr title "packet lengths, sum"
attr unit b
statistic CutthroughSwitchingShowcase.device1.app[0].source packetLengths:histogram
field count 4997
field mean 9600
field stddev 0
field min 9600
field max 9600
field sum 47971200
field sqrsum 460523520000
attr interpolationmode none
attr recordingmode histogram
attr source packetLength(packetPushed)
attr title "packet lengths"
attr unit b
bin	-inf	0
bin	9599	0
bin	9600	4997
bin	9601	0
scalar CutthroughSwitchingShowcase.device1.app[0].io "packets sent" 4997
scalar CutthroughSwitchingShowcase.device1.app[0].io "packets received" 0
scalar CutthroughSwitchingShowcase.device1.app[0].io packetReceived:count 0
attr interpolationmode none
attr recordingmode count
attr source packetReceived
attr title "packets received, count"
scalar CutthroughSwitchingShowcase.device1.app[0].io packetReceived:sum(packetBytes) 0
attr interpolationmode none
attr recordingmode sum(packetBytes)
attr source packetReceived
attr title "packets received, sum(packetBytes)"
scalar CutthroughSwitchingShowcase.device1.app[0].io packetSent:count 4997
attr interpolationmode none
attr recordingmode count
attr source packetSent
attr title "packets sent, count"
scalar CutthroughSwitchingShowcase.device1.app[0].io packetSent:sum(packetBytes) 5996400
attr interpolationmode none
attr recordingmode sum(packetBytes)
attr source packetSent
attr title "packets sent, sum(packetBytes)"
scalar CutthroughSwitchingShowcase.switch1.bridging.directionReverser.reverser outgoingPackets:count 4997
attr recordingmode count
attr source "merge(packetPushedOut, packetPulledOut)"
attr title "outgoing packets, count"
attr unit pk
scalar CutthroughSwitchingShowcase.switch1.bridging.directionReverser.reverser outgoingPacketLengths:sum 49090528
attr interpolationmode none
attr recordingmode sum
attr source "packetLength(merge(packetPushedOut, packetPulledOut))"
attr title "outgoing packet lengths, sum"
attr unit b
statistic CutthroughSwitchingShowcase.switch1.bridging.directionReverser.reverser outgoingPacketLengths:histogram
field count 4997
field mean 9824
field stddev 0
field min 9824
field max 9824
field sum 49090528
field sqrsum 482265347072
attr interpolationmode none
attr recordingmode histogram
attr source "packetLength(merge(packetPushedOut, packetPulledOut))"
attr title "outgoing packet lengths"
attr unit b
bin	-inf	0
bin	9823	0
bin	9824	4997
bin	9825	0
scalar CutthroughSwitchingShowcase.switch1.bridging.directionReverser.reverser flowOutgoingPacketLengths:sum 0
attr interpolationmode none
attr recordingmode sum
attr source "packetLength(demuxFlow(merge(packetPushedOut, packetPulledOut)))"
attr title "flow specific outgoing packet lengths, sum"
attr unit b
statistic CutthroughSwitchingShowcase.switch1.bridging.directionReverser.reverser flowOutgoingPacketLengths:histogram
field count 0
field mean -nan
field stddev nan
field min nan
field max nan
field sum 0
field sqrsum 0
attr interpolationmode none
attr recordingmode histogram
attr source "packetLength(demuxFlow(merge(packetPushedOut, packetPulledOut)))"
attr title "flow specific outgoing packet lengths"
attr unit b
bin	-inf	0
bin	0	0
bin	1	0
scalar CutthroughSwitchingShowcase.switch1.bridging.directionReverser.reverser incomingPackets:count 4997
attr recordingmode count
attr source "merge(packetPushedIn, packetPulledIn)"
attr title "incoming packets, count"
attr unit pk
scalar CutthroughSwitchingShowcase.switch1.bridging.directionReverser.reverser incomingPacketLengths:sum 49090528
attr interpolationmode none
attr recordingmode sum
attr source "packetLength(merge(packetPushedIn, packetPulledIn))"
attr title "incoming packet lengths, sum"
attr unit b
statistic CutthroughSwitchingShowcase.switch1.bridging.directionReverser.reverser incomingPacketLengths:histogram
field count 4997
field mean 9824
field stddev 0
field min 9824
field max 9824
field sum 49090528
field sqrsum 482265347072
attr interpolationmode none
attr recordingmode histogram
attr source "packetLength(merge(packetPushedIn, packetPulledIn))"
attr title "incoming packet lengths"
attr unit b
bin	-inf	0
bin	9823	0
bin	9824	4997
bin	9825	0
scalar CutthroughSwitchingShowcase.switch1.bridging.directionReverser.reverser flowIncomingPacketLengths:sum 0
attr interpolationmode none
attr recordingmode sum
attr source "packetLength(demuxFlow(merge(packetPushedIn, packetPulledIn)))"
attr title "flow specific incoming packet lengths, sum"
attr unit b
statistic CutthroughSwitchingShowcase.switch1.bridging.directionReverser.reverser flowIncomingPacketLengths:histogram
field count 0
field mean -nan
field stddev nan
field min nan
field max nan
field sum 0
field sqrsum 0
attr interpolationmode none
attr recordingmode histogram
attr source "packetLength(demuxFlow(merge(packetPushedIn, packetPulledIn)))"
attr title "flow specific incoming packet lengths"
attr unit b
bin	-inf	0
bin	0	0
bin	1	0
scalar CutthroughSwitchingShowcase.switch1.bridging.directionReverser.join packets:count 0
attr recordingmode count
attr source "merge(packetPushed, packetPulled)"
attr title "packets, count"
attr unit pk
scalar CutthroughSwitchingShowcase.switch1.bridging.directionReverser.join packetLengths:sum 0
attr interpolationmode none
attr recordingmode sum
attr source "packetLength(merge(packetPushed, packetPulled))"
attr title "packet lengths, sum"
attr unit b
statistic CutthroughSwitchingShowcase.switch1.bridging.directionReverser.join packetLengths:histogram
field count 0
field mean -nan
field stddev nan
field min nan
field max nan
field sum 0
field sqrsum 0
attr interpolationmode none
attr recordingmode histogram
attr source "packetLength(merge(packetPushed, packetPulled))"
attr title "packet lengths"
attr unit b
bin	-inf	0
bin	0	0
bin	1	0
scalar CutthroughSwitchingShowcase.switch1.bridging.interfaceRelay.learner outgoingPackets:count 4997
attr recordingmode count
attr source "merge(packetPushedOut, packetPulledOut)"
attr title "outgoing packets, count"
attr unit pk
scalar CutthroughSwitchingShowcase.switch1.bridging.interfaceRelay.learner outgoingPacketLengths:sum 49090528
attr interpolationmode none
attr recordingmode sum
attr source "packetLength(merge(packetPushedOut, packetPulledOut))"
attr title "outgoing packet lengths, sum"
attr unit b
statistic CutthroughSwitchingShowcase.switch1.bridging.interfaceRelay.learner outgoingPacketLengths:histogram
field count 4997
field mean 9824
field stddev 0
field min 9824
field max 9824
field sum 49090528
field sqrsum 482265347072
attr interpolationmode none
attr recordingmode histogram
attr source "packetLength(merge(packetPushedOut, packetPulledOut))"
attr title "outgoing packet lengths"
attr unit b
bin	-inf	0
bin	9823	0
bin	9824	4997
bin	9825	0
scalar CutthroughSwitchingShowcase.switch1.bridging.interfaceRelay.learner flowOutgoingPacketLengths:sum 0
attr interpolationmode none
attr recordingmode sum
attr source "packetLength(demuxFlow(merge(packetPushedOut, packetPulledOut)))"
attr title "flow specific outgoing packet lengths, sum"
attr unit b
statistic CutthroughSwitchingShowcase.switch1.bridging.interfaceRelay.learner flowOutgoingPacketLengths:histogram
field count 0
field mean -nan
field stddev nan
field min nan
field max nan
field sum 0
field sqrsum 0
attr interpolationmode none
attr recordingmode histogram
attr source "packetLength(demuxFlow(merge(packetPushedOut, packetPulledOut)))"
attr title "flow specific outgoing packet lengths"
attr unit b
bin	-inf	0
bin	0	0
bin	1	0
scalar CutthroughSwitchingShowcase.switch1.bridging.interfaceRelay.learner incomingPackets:count 4997
attr recordingmode count
attr source "merge(packetPushedIn, packetPulledIn)"
attr title "incoming packets, count"
attr unit pk
scalar CutthroughSwitchingShowcase.switch1.bridging.interfaceRelay.learner incomingPacketLengths:sum 49090528
attr interpolationmode none
attr recordingmode sum
attr source "packetLength(merge(packetPushedIn, packetPulledIn))"
attr title "incoming packet lengths, sum"
attr unit b
statistic CutthroughSwitchingShowcase.switch1.bridging.interfaceRelay.learner incomingPacketLengths:histogram
field count 4997
field mean 9824
field stddev 0
field min 9824
field max 9824
field sum 49090528
field sqrsum 482265347072
attr interpolationmode none
attr recordingmode histogram
attr source "packetLength(merge(packetPushedIn, packetPulledIn))"
attr title "incoming packet lengths"
attr unit b
bin	-inf	0
bin	9823	0
bin	9824	4997
bin	9825	0
scalar CutthroughSwitchingShowcase.switch1.bridging.interfaceRelay.learner flowIncomingPacketLengths:sum 0
attr interpolationmode none
attr recordingmode sum
attr source "packetLength(demuxFlow(merge(packetPushedIn, packetPulledIn)))"
attr title "flow specific incoming packet lengths, sum"
attr unit b
statistic CutthroughSwitchingShowcase.switch1.bridging.interfaceRelay.learner flowIncomingPacketLengths:histogram
field count 0
field mean -nan
field stddev nan
field min nan
field max nan
field sum 0
field sqrsum 0
attr interpolationmode none
attr recordingmode histogram
attr source "packetLength(demuxFlow(merge(packetPushedIn, packetPulledIn)))"
attr title "flow specific incoming packet lengths"
attr unit b
bin	-inf	0
bin	0	0
bin	1	0
scalar CutthroughSwitchingShowcase.switch1.bridging.interfaceRelay.selector packetDropped:count 0
attr interpolationmode none
attr recordingmode count
attr title "packets dropped, count"
scalar CutthroughSwitchingShowcase.switch1.bridging.interfaceRelay.selector packetDropped:sum(packetBytes) 0
attr interpolationmode none
attr recordingmode sum(packetBytes)
attr title "packets dropped, sum(packetBytes)"
scalar CutthroughSwitchingShowcase.switch1.ethernet.macHeaderInserter outgoingPackets:count 4997
attr recordingmode count
attr source "merge(packetPushedOut, packetPulledOut)"
attr title "outgoing packets, count"
attr unit pk
scalar CutthroughSwitchingShowcase.switch1.ethernet.macHeaderInserter outgoingPacketLengths:sum 49650192
attr interpolationmode none
attr recordingmode sum
attr source "packetLength(merge(packetPushedOut, packetPulledOut))"
attr title "outgoing packet lengths, sum"
attr unit b
statistic CutthroughSwitchingShowcase.switch1.ethernet.macHeaderInserter outgoingPacketLengths:histogram
field count 4997
field mean 9936
field stddev 0
field min 9936
field max 9936
field sum 49650192
field sqrsum 493324307712
attr interpolationmode none
attr recordingmode histogram
attr source "packetLength(merge(packetPushedOut, packetPulledOut))"
attr title "outgoing packet lengths"
attr unit b
[...]
attr title "outgoing packet lengths"
attr unit b
bin	-inf	0
bin	10031	0
bin	10032	4997
bin	10033	0
scalar CutthroughSwitchingShowcase.device2.eth[0].phyLayer.inboundEmitter flowOutgoingPacketLengths:sum 0
attr interpolationmode none
attr recordingmode sum
attr source "packetLength(demuxFlow(merge(packetPushedOut, packetPulledOut)))"
attr title "flow specific outgoing packet lengths, sum"
attr unit b
statistic CutthroughSwitchingShowcase.device2.eth[0].phyLayer.inboundEmitter flowOutgoingPacketLengths:histogram
field count 0
field mean -nan
field stddev nan
field min nan
field max nan
field sum 0
field sqrsum 0
attr interpolationmode none
attr recordingmode histogram
attr source "packetLength(demuxFlow(merge(packetPushedOut, packetPulledOut)))"
attr title "flow specific outgoing packet lengths"
attr unit b
bin	-inf	0
bin	0	0
bin	1	0
scalar CutthroughSwitchingShowcase.device2.eth[0].phyLayer.inboundEmitter incomingPackets:count 4997
attr recordingmode count
attr source "merge(packetPushedIn, packetPulledIn)"
attr title "incoming packets, count"
attr unit pk
scalar CutthroughSwitchingShowcase.device2.eth[0].phyLayer.inboundEmitter incomingPacketLengths:sum 50129904
attr interpolationmode none
attr recordingmode sum
attr source "packetLength(merge(packetPushedIn, packetPulledIn))"
attr title "incoming packet lengths, sum"
attr unit b
statistic CutthroughSwitchingShowcase.device2.eth[0].phyLayer.inboundEmitter incomingPacketLengths:histogram
field count 4997
field mean 10032
field stddev 0
field min 10032
field max 10032
field sum 50129904
field sqrsum 502903196928
attr interpolationmode none
attr recordingmode histogram
attr source "packetLength(merge(packetPushedIn, packetPulledIn))"
attr title "incoming packet lengths"
attr unit b
bin	-inf	0
bin	10031	0
bin	10032	4997
bin	10033	0
scalar CutthroughSwitchingShowcase.device2.eth[0].phyLayer.inboundEmitter flowIncomingPacketLengths:sum 0
attr interpolationmode none
attr recordingmode sum
attr source "packetLength(demuxFlow(merge(packetPushedIn, packetPulledIn)))"
attr title "flow specific incoming packet lengths, sum"
attr unit b
statistic CutthroughSwitchingShowcase.device2.eth[0].phyLayer.inboundEmitter flowIncomingPacketLengths:histogram
field count 0
field mean -nan
field stddev nan
field min nan
field max nan
field sum 0
field sqrsum 0
attr interpolationmode none
attr recordingmode histogram
attr source "packetLength(demuxFlow(merge(packetPushedIn, packetPulledIn)))"
attr title "flow specific incoming packet lengths"
attr unit b
bin	-inf	0
bin	0	0
bin	1	0
statistic CutthroughSwitchingShowcase.device2.eth[0].phyLayer.receiver throughput:histogram
field count 50
field mean 50156675.145547
field stddev 1191452.2175969
field min 47909436.752737
field max 53247334.862134
field sum 2507833757.2773
field sqrsum 1.2585416144375e+17
attr interpolationmode linear
attr recordingmode histogram
attr source throughput(receptionEnded)
attr title throughput
attr unit bps
bin	-inf	0
bin	46500000	0
bin	46600000	0
bin	46700000	0
bin	46800000	0
bin	46900000	0
bin	47000000	0
bin	47100000	0
bin	47200000	0
bin	47300000	0
bin	47400000	0
bin	47500000	0
bin	47600000	0
bin	47700000	0
bin	47800000	0
bin	47900000	1
bin	48000000	0
bin	48100000	1
bin	48200000	0
bin	48300000	0
bin	48400000	2
bin	48500000	0
bin	48600000	2
bin	48700000	2
bin	48800000	2
bin	48900000	3
bin	49000000	0
bin	49100000	0
bin	49200000	1
bin	49300000	1
bin	49400000	0
bin	49500000	1
bin	49600000	0
bin	49700000	2
bin	49800000	3
bin	49900000	0
bin	50000000	1
bin	50100000	1
bin	50200000	2
bin	50300000	3
bin	50400000	1
bin	50500000	2
bin	50600000	2
bin	50700000	3
bin	50800000	1
bin	50900000	3
bin	51000000	1
bin	51100000	3
bin	51200000	0
bin	51300000	0
bin	51400000	1
bin	51500000	1
bin	51600000	0
bin	51700000	0
bin	51800000	2
bin	51900000	0
bin	52000000	0
bin	52100000	0
bin	52200000	0
bin	52300000	0
bin	52400000	0
bin	52500000	0
bin	52600000	0
bin	52700000	0
bin	52800000	0
bin	52900000	0
bin	53000000	0
bin	53100000	1
bin	53200000	1
bin	53300000	0
bin	53400000	0
bin	53500000	0
bin	53600000	0
bin	53700000	0
bin	53800000	0
bin	53900000	0
bin	54000000	0
bin	54100000	0
bin	54200000	0
bin	54300000	0
bin	54400000	0
bin	54500000	0
bin	54600000	0
statistic CutthroughSwitchingShowcase.device2.eth[0].phyLayer.receiver receptionTime:histogram
field count 4997
field mean 1.0032e-05
field stddev 0
field min 1.0032e-05
field max 1.0032e-05
field sum 0.050129904
field sqrsum 5.0290319692799e-07
attr interpolationmode none
attr recordingmode histogram
attr source packetDuration(receptionEnded)
attr title "reception time"
attr unit s
bin	-inf	0
bin	0	4997
bin	0.01	0
bin	0.02	0
bin	0.03	0
bin	0.04	0
bin	0.05	0
bin	0.06	0
bin	0.07	0
bin	0.08	0
bin	0.09	0
bin	0.1	0
bin	0.11	0
bin	0.12	0
bin	0.13	0
bin	0.14	0
bin	0.15	0
bin	0.16	0
bin	0.17	0
bin	0.18	0
bin	0.19	0
bin	0.2	0
bin	0.21	0
bin	0.22	0
bin	0.23	0
bin	0.24	0
bin	0.25	0
bin	0.26	0
bin	0.27	0
bin	0.28	0
bin	0.29	0
bin	0.3	0
bin	0.31	0
bin	0.32	0
bin	0.33	0
bin	0.34	0
bin	0.35	0
bin	0.36	0
bin	0.37	0
bin	0.38	0
bin	0.39	0
bin	0.4	0
bin	0.41	0
bin	0.42	0
bin	0.43	0
bin	0.44	0
bin	0.45	0
bin	0.46	0
bin	0.47	0
bin	0.48	0
bin	0.49	0
bin	0.5	0
bin	0.51	0
statistic CutthroughSwitchingShowcase.device2.eth[0].phyLayer.receiver flowReceptionTime:histogram
field count 0
field mean -nan
field stddev nan
field min nan
field max nan
field sum 0
field sqrsum 0
attr interpolationmode none
attr recordingmode histogram
attr source packetDuration(demuxFlow(receptionEnded))
attr title "flow reception time"
attr unit s
bin	-inf	0
bin	0	0
bin	1	0
scalar CutthroughSwitchingShowcase.device2.eth[0] packetDropInterfaceDown:count 0
attr interpolationmode none
attr recordingmode count
attr source packetDropReasonIsInterfaceDown(packetDropped)
attr title "packet drops: interface down, count"
scalar CutthroughSwitchingShowcase.device2.eth[0] packetDropInterfaceDown:sum(packetBytes) 0
attr interpolationmode none
attr recordingmode sum(packetBytes)
attr source packetDropReasonIsInterfaceDown(packetDropped)
attr title "packet drops: interface down, sum(packetBytes)"
scalar CutthroughSwitchingShowcase.device2.eth[0] packetDropNoCarrier:count 0
attr interpolationmode none
attr recordingmode count
attr source packetDropReasonIsNoCarrier(packetDropped)
attr title "packet drops: no carrier, count"
scalar CutthroughSwitchingShowcase.device2.eth[0] packetDropNoCarrier:sum(packetBytes) 0
attr interpolationmode none
attr recordingmode sum(packetBytes)
attr source packetDropReasonIsNoCarrier(packetDropped)
attr title "packet drops: no carrier, sum(packetBytes)"
scalar CutthroughSwitchingShowcase.device2.ipv4.ip packetDropAddressResolutionFailed:count 0
attr interpolationmode none
attr recordingmode count
attr source packetDropReasonIsAddressResolutionFailed(packetDropped)
attr title "packet drop: address resolution failed, count"
scalar CutthroughSwitchingShowcase.device2.ipv4.ip packetDropAddressResolutionFailed:sum(packetBytes) 0
attr interpolationmode none
attr recordingmode sum(packetBytes)
attr source packetDropReasonIsAddressResolutionFailed(packetDropped)
attr title "packet drop: address resolution failed, sum(packetBytes)"
scalar CutthroughSwitchingShowcase.device2.ipv4.ip packetDropHopLimitReached:count 0
attr interpolationmode none
attr recordingmode count
attr source packetDropReasonIsHopLimitReached(packetDropped)
attr title "packet drop: hop limit reached, count"
scalar CutthroughSwitchingShowcase.device2.ipv4.ip packetDropHopLimitReached:sum(packetBytes) 0
attr interpolationmode none
attr recordingmode sum(packetBytes)
attr source packetDropReasonIsHopLimitReached(packetDropped)
attr title "packet drop: hop limit reached, sum(packetBytes)"
scalar CutthroughSwitchingShowcase.device2.ipv4.ip packetDropForwardingDisabled:count 0
attr interpolationmode none
attr recordingmode count
attr source packetDropReasonIsForwardingDisabled(packetDropped)
attr title "packet drop: forwarding disabled, count"
scalar CutthroughSwitchingShowcase.device2.ipv4.ip packetDropForwardingDisabled:sum(packetBytes) 0
attr interpolationmode none
attr recordingmode sum(packetBytes)
attr source packetDropReasonIsForwardingDisabled(packetDropped)
attr title "packet drop: forwarding disabled, sum(packetBytes)"
scalar CutthroughSwitchingShowcase.device2.ipv4.ip packetDropLifetimeExpired:count 0
attr interpolationmode none
attr recordingmode count
attr source packetDropReasonIsLifetimeExpired(packetDropped)
attr title "packet drop: lifetime expired, count"
scalar CutthroughSwitchingShowcase.device2.ipv4.ip packetDropLifetimeExpired:sum(packetBytes) 0
attr interpolationmode none
attr recordingmode sum(packetBytes)
attr source packetDropReasonIsLifetimeExpired(packetDropped)
attr title "packet drop: lifetime expired, sum(packetBytes)"
scalar CutthroughSwitchingShowcase.device2.ipv4.ip packetDropNoInterfaceFound:count 0
attr interpolationmode none
attr recordingmode count
attr source packetDropReasonIsNoInterfaceFound(packetDropped)
attr title "packet drop: no interface found, count"
scalar CutthroughSwitchingShowcase.device2.ipv4.ip packetDropNoInterfaceFound:sum(packetBytes) 0
attr interpolationmode none
attr recordingmode sum(packetBytes)
attr source packetDropReasonIsNoInterfaceFound(packetDropped)
attr title "packet drop: no interface found, sum(packetBytes)"
scalar CutthroughSwitchingShowcase.device2.ipv4.ip packetDropNoRouteFound:count 0
attr interpolationmode none
attr recordingmode count
attr source packetDropReasonIsNoRouteFound(packetDropped)
attr title "packet drop: no route found, count"
scalar CutthroughSwitchingShowcase.device2.ipv4.ip packetDropNoRouteFound:sum(packetBytes) 0
attr interpolationmode none
attr recordingmode sum(packetBytes)
attr source packetDropReasonIsNoRouteFound(packetDropped)
attr title "packet drop: no route found, sum(packetBytes)"
scalar CutthroughSwitchingShowcase.device2.ipv4.ip packetDropUndefined:count 0
attr interpolationmode none
attr recordingmode count
attr source packetDropReasonIsUndefined(packetDropped)
attr title "packet drop: undefined, count"
scalar CutthroughSwitchingShowcase.device2.ipv4.ip packetDropUndefined:sum(packetBytes) 0
attr interpolationmode none
attr recordingmode sum(packetBytes)
attr source packetDropReasonIsUndefined(packetDropped)
attr title "packet drop: undefined, sum(packetBytes)"
scalar CutthroughSwitchingShowcase.device2.udp packetReceived:count 4997
attr interpolationmode none
attr recordingmode count
attr source packetReceived
attr title "packets received, count"
scalar CutthroughSwitchingShowcase.device2.udp packetReceived:sum(packetBytes) 6036376
attr interpolationmode none
attr recordingmode sum(packetBytes)
attr source packetReceived
attr title "packets received, sum(packetBytes)"
scalar CutthroughSwitchingShowcase.device2.udp packetSent:count 0
attr interpolationmode none
attr recordingmode count
attr source packetSent
attr title "packets sent, count"
scalar CutthroughSwitchingShowcase.device2.udp packetSent:sum(packetBytes) 0
attr interpolationmode none
attr recordingmode sum(packetBytes)
attr source packetSent
attr title "packets sent, sum(packetBytes)"
scalar CutthroughSwitchingShowcase.device2.udp passedUpPk:count 4997
attr interpolationmode none
attr recordingmode count
attr source packetSentToUpper
attr title "packets passed up, count"
scalar CutthroughSwitchingShowcase.device2.udp droppedPkWrongPort:count 0
attr interpolationmode none
attr recordingmode count
attr source packetDropReasonIsNoPortFound(packetDropped)
attr title "packets dropped (wrong port), count"
scalar CutthroughSwitchingShowcase.device2.udp droppedPkBadChecksum:count 0
attr interpolationmode none
attr recordingmode count
attr source packetDropReasonIsIncorrectlyReceived(packetDropped)
attr title "packets dropped (checksum error), count"
scalar CutthroughSwitchingShowcase.device2.app[0].sink packets:count 4997
attr recordingmode count
attr source packetPushed
attr title "packets, count"
attr unit pk
scalar CutthroughSwitchingShowcase.device2.app[0].sink packetLengths:sum 47971200
attr interpolationmode none
attr recordingmode sum
attr source packetLength(packetPushed)
attr title "packet lengths, sum"
attr unit b
statistic CutthroughSwitchingShowcase.device2.app[0].sink packetLengths:histogram
field count 4997
field mean 9600
field stddev 0
field min 9600
field max 9600
field sum 47971200
field sqrsum 460523520000
attr interpolationmode none
attr recordingmode histogram
attr source packetLength(packetPushed)
attr title "packet lengths"
attr unit b
bin	-inf	0
bin	9599	0
bin	9600	4997
bin	9601	0
statistic CutthroughSwitchingShowcase.device2.app[0].sink meanBitLifeTimePerPacket:histogram
field count 4997
field mean 1.0534e-05
field stddev 0
field min 1.0534e-05
field max 1.0534e-05
field sum 0.052638397999998
field sqrsum 5.54492884532e-07
attr interpolationmode none
attr recordingmode histogram
attr source weightedMeanPerGroup(groupRegionsPerPacket(lifeTimePerRegion(packetPushed)))
attr title "mean bit life time per packet"
attr unit s
bin	-inf	0
bin	0	4997
bin	0.01	0
bin	0.02	0
bin	0.03	0
bin	0.04	0
bin	0.05	0
bin	0.06	0
bin	0.07	0
bin	0.08	0
bin	0.09	0
bin	0.1	0
bin	0.11	0
bin	0.12	0
bin	0.13	0
bin	0.14	0
bin	0.15	0
bin	0.16	0
bin	0.17	0
bin	0.18	0
bin	0.19	0
bin	0.2	0
bin	0.21	0
bin	0.22	0
bin	0.23	0
bin	0.24	0
bin	0.25	0
bin	0.26	0
bin	0.27	0
bin	0.28	0
bin	0.29	0
bin	0.3	0
bin	0.31	0
bin	0.32	0
bin	0.33	0
bin	0.34	0
bin	0.35	0
bin	0.36	0
bin	0.37	0
bin	0.38	0
bin	0.39	0
bin	0.4	0
bin	0.41	0
bin	0.42	0
bin	0.43	0
bin	0.44	0
bin	0.45	0
bin	0.46	0
bin	0.47	0
bin	0.48	0
bin	0.49	0
bin	0.5	0
bin	0.51	0
statistic CutthroughSwitchingShowcase.device2.app[0].sink packetJitter:histogram
field count 4997
field mean 2.1080648389033e-09
field stddev 1.4901796875883e-07
field min 0
field max 1.0534e-05
field sum 1.0534e-05
field sqrsum 1.10965156e-10
attr interpolationmode none
attr recordingmode histogram
attr source jitter(weightedMeanPerGroup(groupRegionsPerPacket(lifeTimePerRegion(packetPushed))))
attr title "packet jitter"
attr unit s
bin	-inf	0
bin	0	4996
bin	2e-07	0
bin	4e-07	0
bin	6e-07	0
bin	8e-07	0
bin	1e-06	0
bin	1.2e-06	0
bin	1.4e-06	0
bin	1.6e-06	0
bin	1.8e-06	0
bin	2e-06	0
bin	2.2e-06	0
bin	2.4e-06	0
bin	2.6e-06	0
bin	2.8e-06	0
bin	3e-06	0
bin	3.2e-06	0
bin	3.4e-06	0
bin	3.6e-06	0
bin	3.8e-06	0
bin	4e-06	0
bin	4.2e-06	0
bin	4.4e-06	0
bin	4.6e-06	0
bin	4.8e-06	0
bin	5e-06	0
bin	5.2e-06	0
bin	5.4e-06	0
bin	5.6e-06	0
bin	5.8e-06	0
bin	6e-06	0
bin	6.2e-06	0
bin	6.4e-06	0
bin	6.6e-06	0
bin	6.8e-06	0
bin	7e-06	0
bin	7.2e-06	0
bin	7.4e-06	0
bin	7.6e-06	0
bin	7.8e-06	0
bin	8e-06	0
bin	8.2e-06	0
bin	8.4e-06	0
bin	8.6e-06	0
bin	8.8e-06	0
bin	9e-06	0
bin	9.2e-06	0
bin	9.4e-06	0
bin	9.6e-06	0
bin	9.8e-06	0
bin	1e-05	0
bin	1.02e-05	0
bin	1.04e-05	1
bin	1.06e-05	0
bin	1.08e-05	0
bin	1.1e-05	0
bin	1.12e-05	0
bin	1.14e-05	0
bin	1.16e-05	0
bin	1.18e-05	0
bin	1.2e-05	0
bin	1.22e-05	0
bin	1.24e-05	0
bin	1.26e-05	0
bin	1.28e-05	0
bin	1.3e-05	0
bin	1.32e-05	0
statistic CutthroughSwitchingShowcase.device2.app[0].sink packetDelayDifferenceToMean:histogram
field count 4997
field mean -1.956325737481e-19
field stddev 1.5820486662451e-19
field min -3.5914196963582e-19
field max 1.96511643763e-19
field sum -9.7757597101924e-16
field sqrsum 3.1628948724389e-34
attr interpolationmode none
attr recordingmode histogram
attr source differenceToMean(weightedMeanPerGroup(groupRegionsPerPacket(lifeTimePerRegion(packetPushed))))
attr title "packet delay difference to mean"
attr unit s
bin	-inf	0
bin	-3.645e-19	96
bin	-3.565e-19	386
bin	-3.485e-19	330
bin	-3.405e-19	231
bin	-3.325e-19	255
bin	-3.245e-19	224
bin	-3.165e-19	161
bin	-3.085e-19	181
bin	-3.005e-19	162
bin	-2.925e-19	147
bin	-2.845e-19	107
bin	-2.765e-19	123
bin	-2.685e-19	112
bin	-2.605e-19	83
bin	-2.525e-19	97
bin	-2.445e-19	88
bin	-2.365e-19	83
bin	-2.285e-19	61
bin	-2.205e-19	72
bin	-2.125e-19	68
bin	-2.045e-19	63
bin	-1.965e-19	47
bin	-1.885e-19	56
bin	-1.805e-19	53
bin	-1.725e-19	40
bin	-1.645e-19	47
bin	-1.565e-19	45
bin	-1.485e-19	42
bin	-1.405e-19	32
bin	-1.325e-19	44
bin	-1.245e-19	37
bin	-1.165e-19	27
bin	-1.085e-19	34
bin	-1.005e-19	32
bin	-9.25e-20	30
bin	-8.45e-20	23
bin	-7.65e-20	28
bin	-6.85e-20	27
bin	-6.05e-20	26
bin	-5.25e-20	19
bin	-4.45e-20	24
bin	-3.65e-20	23
bin	-2.85e-20	18
bin	-2.05e-20	328
bin	-1.25e-20	63
bin	-4.5e-21	61
bin	3.5e-21	22
bin	1.15e-20	27
bin	1.95e-20	27
bin	2.75e-20	22
bin	3.55e-20	26
bin	4.35e-20	27
bin	5.15e-20	26
bin	5.95e-20	20
bin	6.75e-20	27
bin	7.55e-20	26
bin	8.35e-20	27
bin	9.15e-20	22
bin	9.95e-20	27
bin	1.075e-19	28
bin	1.155e-19	23
bin	1.235e-19	29
bin	1.315e-19	29
bin	1.395e-19	30
bin	1.475e-19	25
bin	1.555e-19	33
bin	1.635e-19	32
bin	1.715e-19	29
bin	1.795e-19	36
bin	1.875e-19	36
bin	1.955e-19	5
bin	2.035e-19	0
statistic CutthroughSwitchingShowcase.device2.app[0].sink packetDelayVariation:histogram
field count 4997
field mean 5.1786478912296e-13
field stddev 6.6351376317461e-13
field min 0
field max 2.6026039603986e-12
field sum 2.5877703512474e-09
field sqrsum 3.5396067148024e-21
attr recordingmode histogram
attr source stddev(weightedMeanPerGroup(groupRegionsPerPacket(lifeTimePerRegion(packetPushed))))
attr title "packet delay variation"
attr unit s
bin	-inf	0
bin	0	2366
bin	4e-14	0
bin	8e-14	1
bin	1.2e-13	43
bin	1.6e-13	36
bin	2e-13	43
bin	2.4e-13	58
bin	2.8e-13	63
bin	3.2e-13	65
bin	3.6e-13	77
bin	4e-13	72
bin	4.4e-13	77
bin	4.8e-13	78
bin	5.2e-13	84
bin	5.6e-13	86
bin	6e-13	97
bin	6.4e-13	96
bin	6.8e-13	91
bin	7.2e-13	98
bin	7.6e-13	102
bin	8e-13	88
bin	8.4e-13	77
bin	8.8e-13	78
bin	9.2e-13	52
bin	9.6e-13	60
bin	1e-12	64
bin	1.04e-12	60
bin	1.08e-12	64
bin	1.12e-12	60
bin	1.16e-12	63
bin	1.2e-12	59
bin	1.24e-12	58
bin	1.28e-12	60
bin	1.32e-12	27
bin	1.36e-12	9
bin	1.4e-12	10
bin	1.44e-12	11
bin	1.48e-12	13
bin	1.52e-12	10
bin	1.56e-12	12
bin	1.6e-12	12
bin	1.64e-12	12
bin	1.68e-12	13
bin	1.72e-12	14
bin	1.76e-12	13
bin	1.8e-12	14
bin	1.84e-12	14
bin	1.88e-12	14
bin	1.92e-12	15
bin	1.96e-12	18
bin	2e-12	14
bin	2.04e-12	18
bin	2.08e-12	17
bin	2.12e-12	16
bin	2.16e-12	18
bin	2.2e-12	18
bin	2.24e-12	19
bin	2.28e-12	18
bin	2.32e-12	20
bin	2.36e-12	22
bin	2.4e-12	19
bin	2.44e-12	22
bin	2.48e-12	21
bin	2.52e-12	23
bin	2.56e-12	23
bin	2.6e-12	2
bin	2.64e-12	0
scalar CutthroughSwitchingShowcase.device2.app[0].sink droppedPackets:count 4997
attr recordingmode count
attr source packetDropped
attr title "dropped packets, count"
attr unit pk
scalar CutthroughSwitchingShowcase.device2.app[0].sink droppedPacketLengths:sum 47971200
attr interpolationmode none
attr recordingmode sum
attr source packetLength(packetDropped)
attr title "dropped packet lengths, sum"
attr unit b
statistic CutthroughSwitchingShowcase.device2.app[0].sink droppedPacketLengths:histogram
field count 4997
field mean 9600
field stddev 0
field min 9600
field max 9600
field sum 47971200
field sqrsum 460523520000
attr interpolationmode none
attr recordingmode histogram
attr source packetLength(packetDropped)
attr title "dropped packet lengths"
attr unit b
bin	-inf	0
bin	9599	0
bin	9600	4997
bin	9601	0
scalar CutthroughSwitchingShowcase.device2.app[0].io "packets sent" 0
scalar CutthroughSwitchingShowcase.device2.app[0].io "packets received" 4997
scalar CutthroughSwitchingShowcase.device2.app[0].io packetReceived:count 4997
attr interpolationmode none
attr recordingmode count
attr source packetReceived
attr title "packets received, count"
scalar CutthroughSwitchingShowcase.device2.app[0].io packetReceived:sum(packetBytes) 5996400
attr interpolationmode none
attr recordingmode sum(packetBytes)
attr source packetReceived
attr title "packets received, sum(packetBytes)"
scalar CutthroughSwitchingShowcase.device2.app[0].io packetSent:count 0
attr interpolationmode none
attr recordingmode count
attr source packetSent
attr title "packets sent, count"
scalar CutthroughSwitchingShowcase.device2.app[0].io packetSent:sum(packetBytes) 0
attr interpolationmode none
attr recordingmode sum(packetBytes)
attr source packetSent
attr title "packets sent, sum(packetBytes)"

