version 3
run OspfOnly-0-20260709-08:54:18-329230
attr configname OspfOnly
attr datetime 20260709-08:54:18
attr datetimef 20260709-085418
attr experiment OspfOnly
attr inifile omnetpp.ini
attr iterationvars ""
attr iterationvarsd ""
attr iterationvarsf ""
attr measurement ""
attr network BgpAndOspfv3
attr processid 329230
attr repetition 0
attr replication #0
attr resultdir results
attr runnumber 0
attr seedset 0
config **.param-recording false
config image-path /home/andras/projects/inet/images
config output-scalar-file results/omnetpp.ini-OspfOnly-#0.sca
config output-scalar-precision 17
config output-vector-file results/omnetpp.ini-OspfOnly-#0.vec
config output-vector-precision 17
config record-eventlog false
config sim-time-limit 100s
config description "OSPFv3 IGP only, no BGP - intra-AS IPv6 routing"
config *.r*.hasBgp false
config *.hostA.app[0].destAddr "\"2001:db8:1:23::3\""
config *.hostA.app[0].startTime 55s
config network BgpAndOspfv3
config **.ipv6.configurator.networkConfiguratorModule "\"configurator\""
config *.r*.hasIpv4 false
config **.rA1.ospf.ospfv3Splitter.ospfv3RoutingConfig "xmldoc(\"Ospfv3Config.xml\", \"Devices/Router[@id='rA1']/Routing6/OSPFv3\")"
config **.rA1.ospf.ospfv3Splitter.ospfv3IntConfig "xmldoc(\"Ospfv3Config.xml\", \"Devices/Router[@id='rA1']/Interfaces\")"
config **.rA2.ospf.ospfv3Splitter.ospfv3RoutingConfig "xmldoc(\"Ospfv3Config.xml\", \"Devices/Router[@id='rA2']/Routing6/OSPFv3\")"
config **.rA2.ospf.ospfv3Splitter.ospfv3IntConfig "xmldoc(\"Ospfv3Config.xml\", \"Devices/Router[@id='rA2']/Interfaces\")"
config **.rA3.ospf.ospfv3Splitter.ospfv3RoutingConfig "xmldoc(\"Ospfv3Config.xml\", \"Devices/Router[@id='rA3']/Routing6/OSPFv3\")"
config **.rA3.ospf.ospfv3Splitter.ospfv3IntConfig "xmldoc(\"Ospfv3Config.xml\", \"Devices/Router[@id='rA3']/Interfaces\")"
config **.rB1.ospf.ospfv3Splitter.ospfv3RoutingConfig "xmldoc(\"Ospfv3Config.xml\", \"Devices/Router[@id='rB1']/Routing6/OSPFv3\")"
config **.rB1.ospf.ospfv3Splitter.ospfv3IntConfig "xmldoc(\"Ospfv3Config.xml\", \"Devices/Router[@id='rB1']/Interfaces\")"
config **.rB2.ospf.ospfv3Splitter.ospfv3RoutingConfig "xmldoc(\"Ospfv3Config.xml\", \"Devices/Router[@id='rB2']/Routing6/OSPFv3\")"
config **.rB2.ospf.ospfv3Splitter.ospfv3IntConfig "xmldoc(\"Ospfv3Config.xml\", \"Devices/Router[@id='rB2']/Interfaces\")"
config **.rB3.ospf.ospfv3Splitter.ospfv3RoutingConfig "xmldoc(\"Ospfv3Config.xml\", \"Devices/Router[@id='rB3']/Routing6/OSPFv3\")"
config **.rB3.ospf.ospfv3Splitter.ospfv3IntConfig "xmldoc(\"Ospfv3Config.xml\", \"Devices/Router[@id='rB3']/Interfaces\")"
config *.r*.bgp.addressFamily "\"ipv6\""
config *.r*.bgp.routingTableModule "\"^.ipv6.routingTable\""
config *.r*.bgp.bgpConfig "xmldoc(\"BgpConfig6.xml\")"
config *.r*.bgp.ospfRoutingModule "\"\""
config *.rA1.bgp.routerId "\"1.1.1.1\""
config *.rA2.bgp.routerId "\"1.1.1.2\""
config *.rA3.bgp.routerId "\"1.1.1.3\""
config *.rB1.bgp.routerId "\"2.2.2.1\""
config *.rB2.bgp.routerId "\"2.2.2.2\""
config *.rB3.bgp.routerId "\"2.2.2.3\""
config *.rA3.bgp.nextHopSelf true
config *.rB1.bgp.nextHopSelf true
config *.hostA.numApps 1
config *.hostA.app[0].typename PingApp
config *.hostA.app[0].sendInterval 1s

scalar BgpAndOspfv3.rA1.ethernet pauseSent:count 0
scalar BgpAndOspfv3.rA1.ethernet pauseSent:sum 0
scalar BgpAndOspfv3.rA1.ethernet decapPk:count 144
scalar BgpAndOspfv3.rA1.ethernet decapPk:sum(packetBytes) 14536
scalar BgpAndOspfv3.rA1.ethernet encapPk:count 147
scalar BgpAndOspfv3.rA1.ethernet encapPk:sum(packetBytes) 14344
scalar BgpAndOspfv3.rA1.lo[0].lo rcvdPkFromHl:count 0
scalar BgpAndOspfv3.rA1.lo[0].lo rcvdPkFromHl:sum(packetBytes) 0
scalar BgpAndOspfv3.rA1.lo[0].lo passedUpPk:count 0
scalar BgpAndOspfv3.rA1.lo[0].lo passedUpPk:sum(packetBytes) 0
scalar BgpAndOspfv3.rA1.lo[0] packetDropInterfaceDown:count 0
scalar BgpAndOspfv3.rA1.lo[0] packetDropInterfaceDown:sum(packetBytes) 0
scalar BgpAndOspfv3.rA1.lo[0] packetDropNoCarrier:count 0
scalar BgpAndOspfv3.rA1.lo[0] packetDropNoCarrier:sum(packetBytes) 0
scalar BgpAndOspfv3.rA1.eth[0].queue queueLength:last 0
scalar BgpAndOspfv3.rA1.eth[0].queue queueLength:max 0
scalar BgpAndOspfv3.rA1.eth[0].queue queueLength:timeavg 0
scalar BgpAndOspfv3.rA1.eth[0].queue queueBitLength:last 0
scalar BgpAndOspfv3.rA1.eth[0].queue queueBitLength:max 0
scalar BgpAndOspfv3.rA1.eth[0].queue queueBitLength:timeavg 0
scalar BgpAndOspfv3.rA1.eth[0].queue outgoingPackets:count 61
scalar BgpAndOspfv3.rA1.eth[0].queue outgoingPacketLengths:sum 55888
scalar BgpAndOspfv3.rA1.eth[0].queue incomingPackets:count 61
scalar BgpAndOspfv3.rA1.eth[0].queue incomingPacketLengths:sum 55888
scalar BgpAndOspfv3.rA1.eth[0].queue droppedPacketsQueueOverflow:count 0
scalar BgpAndOspfv3.rA1.eth[0].queue droppedPacketLengthsQueueOverflow:sum 0
scalar BgpAndOspfv3.rA1.eth[0].mac "simulated time" 100
scalar BgpAndOspfv3.rA1.eth[0].mac full-duplex 1
scalar BgpAndOspfv3.rA1.eth[0].mac "frames/sec sent" 0.61
scalar BgpAndOspfv3.rA1.eth[0].mac "frames/sec rcvd" 0.51
scalar BgpAndOspfv3.rA1.eth[0].mac "bits/sec sent" 558.88
scalar BgpAndOspfv3.rA1.eth[0].mac "bits/sec rcvd" 479.2
scalar BgpAndOspfv3.rA1.eth[0].mac "rx channel idle (%)" 99.99948816
scalar BgpAndOspfv3.rA1.eth[0].mac "rx channel utilization (%)" 0.00051184
scalar BgpAndOspfv3.rA1.eth[0].mac rxPausePkUnits:count 0
scalar BgpAndOspfv3.rA1.eth[0].mac rxPausePkUnits:sum 0
scalar BgpAndOspfv3.rA1.eth[0].mac txPausePkUnits:count 0
scalar BgpAndOspfv3.rA1.eth[0].mac txPausePkUnits:sum 0
scalar BgpAndOspfv3.rA1.eth[0].mac rxPkOk:count 51
scalar BgpAndOspfv3.rA1.eth[0].mac rxPkOk:sum(packetBytes) 5990
scalar BgpAndOspfv3.rA1.eth[0].mac txPk:count 61
scalar BgpAndOspfv3.rA1.eth[0].mac txPk:sum(packetBytes) 6986
scalar BgpAndOspfv3.rA1.eth[0].mac packetReceivedFromUpper:count 61
scalar BgpAndOspfv3.rA1.eth[0].mac packetReceivedFromUpper:sum(packetBytes) 6986
scalar BgpAndOspfv3.rA1.eth[0].mac passedUpPk:count 51
scalar BgpAndOspfv3.rA1.eth[0].mac passedUpPk:sum(packetBytes) 5990
scalar BgpAndOspfv3.rA1.eth[0].mac packetDropIncorrectlyReceived:count 0
scalar BgpAndOspfv3.rA1.eth[0].mac packetDropIncorrectlyReceived:sum(packetBytes) 0
scalar BgpAndOspfv3.rA1.eth[0].mac packetDropInterfaceDown:count 0
scalar BgpAndOspfv3.rA1.eth[0].mac packetDropInterfaceDown:sum(packetBytes) 0
scalar BgpAndOspfv3.rA1.eth[0].mac packetDropNotAddressedToUs:count 0
scalar BgpAndOspfv3.rA1.eth[0].mac packetDropNotAddressedToUs:sum(packetBytes) 0
scalar BgpAndOspfv3.rA1.eth[0] packetDropInterfaceDown:count 0
scalar BgpAndOspfv3.rA1.eth[0] packetDropInterfaceDown:sum(packetBytes) 0
scalar BgpAndOspfv3.rA1.eth[0] packetDropNoCarrier:count 0
scalar BgpAndOspfv3.rA1.eth[0] packetDropNoCarrier:sum(packetBytes) 0
scalar BgpAndOspfv3.rA1.eth[1].queue queueLength:last 0
scalar BgpAndOspfv3.rA1.eth[1].queue queueLength:max 6
scalar BgpAndOspfv3.rA1.eth[1].queue queueLength:timeavg 3.918e-06
scalar BgpAndOspfv3.rA1.eth[1].queue queueBitLength:last 0
scalar BgpAndOspfv3.rA1.eth[1].queue queueBitLength:max 6336
scalar BgpAndOspfv3.rA1.eth[1].queue queueBitLength:timeavg 0.003731248
scalar BgpAndOspfv3.rA1.eth[1].queue outgoingPackets:count 86
scalar BgpAndOspfv3.rA1.eth[1].queue outgoingPacketLengths:sum 80032
scalar BgpAndOspfv3.rA1.eth[1].queue incomingPackets:count 86
scalar BgpAndOspfv3.rA1.eth[1].queue incomingPacketLengths:sum 80032
scalar BgpAndOspfv3.rA1.eth[1].queue droppedPacketsQueueOverflow:count 0
scalar BgpAndOspfv3.rA1.eth[1].queue droppedPacketLengthsQueueOverflow:sum 0
scalar BgpAndOspfv3.rA1.eth[1].mac "simulated time" 100
scalar BgpAndOspfv3.rA1.eth[1].mac full-duplex 1
scalar BgpAndOspfv3.rA1.eth[1].mac "frames/sec sent" 0.86
scalar BgpAndOspfv3.rA1.eth[1].mac "frames/sec rcvd" 0.93
scalar BgpAndOspfv3.rA1.eth[1].mac "bits/sec sent" 800.32
scalar BgpAndOspfv3.rA1.eth[1].mac "bits/sec rcvd" 891.04
scalar BgpAndOspfv3.rA1.eth[1].mac "rx channel idle (%)" 99.99904944
scalar BgpAndOspfv3.rA1.eth[1].mac "rx channel utilization (%)" 0.0009505599999999999
scalar BgpAndOspfv3.rA1.eth[1].mac rxPausePkUnits:count 0
scalar BgpAndOspfv3.rA1.eth[1].mac rxPausePkUnits:sum 0
scalar BgpAndOspfv3.rA1.eth[1].mac txPausePkUnits:count 0
scalar BgpAndOspfv3.rA1.eth[1].mac txPausePkUnits:sum 0
scalar BgpAndOspfv3.rA1.eth[1].mac rxPkOk:count 93
scalar BgpAndOspfv3.rA1.eth[1].mac rxPkOk:sum(packetBytes) 11138
scalar BgpAndOspfv3.rA1.eth[1].mac txPk:count 86
scalar BgpAndOspfv3.rA1.eth[1].mac txPk:sum(packetBytes) 10004
scalar BgpAndOspfv3.rA1.eth[1].mac packetReceivedFromUpper:count 86
scalar BgpAndOspfv3.rA1.eth[1].mac packetReceivedFromUpper:sum(packetBytes) 10004
scalar BgpAndOspfv3.rA1.eth[1].mac passedUpPk:count 93
scalar BgpAndOspfv3.rA1.eth[1].mac passedUpPk:sum(packetBytes) 11138
scalar BgpAndOspfv3.rA1.eth[1].mac packetDropIncorrectlyReceived:count 0
scalar BgpAndOspfv3.rA1.eth[1].mac packetDropIncorrectlyReceived:sum(packetBytes) 0
scalar BgpAndOspfv3.rA1.eth[1].mac packetDropInterfaceDown:count 0
scalar BgpAndOspfv3.rA1.eth[1].mac packetDropInterfaceDown:sum(packetBytes) 0
scalar BgpAndOspfv3.rA1.eth[1].mac packetDropNotAddressedToUs:count 0
scalar BgpAndOspfv3.rA1.eth[1].mac packetDropNotAddressedToUs:sum(packetBytes) 0
scalar BgpAndOspfv3.rA1.eth[1] packetDropInterfaceDown:count 0
scalar BgpAndOspfv3.rA1.eth[1] packetDropInterfaceDown:sum(packetBytes) 0
scalar BgpAndOspfv3.rA1.eth[1] packetDropNoCarrier:count 0
scalar BgpAndOspfv3.rA1.eth[1] packetDropNoCarrier:sum(packetBytes) 0
scalar BgpAndOspfv3.rA1.ipv6.neighbourDiscovery dadFailed:count 0
scalar BgpAndOspfv3.rA1.ipv6.neighbourDiscovery dadCompleted:count 2
scalar BgpAndOspfv3.rA1.ipv6.neighbourDiscovery startDad:count 2
scalar BgpAndOspfv3.rA2.ethernet pauseSent:count 0
scalar BgpAndOspfv3.rA2.ethernet pauseSent:sum 0
scalar BgpAndOspfv3.rA2.ethernet decapPk:count 170
scalar BgpAndOspfv3.rA2.ethernet decapPk:sum(packetBytes) 16660
scalar BgpAndOspfv3.rA2.ethernet encapPk:count 183
scalar BgpAndOspfv3.rA2.ethernet encapPk:sum(packetBytes) 18688
scalar BgpAndOspfv3.rA2.lo[0].lo rcvdPkFromHl:count 0
scalar BgpAndOspfv3.rA2.lo[0].lo rcvdPkFromHl:sum(packetBytes) 0
scalar BgpAndOspfv3.rA2.lo[0].lo passedUpPk:count 0
scalar BgpAndOspfv3.rA2.lo[0].lo passedUpPk:sum(packetBytes) 0
scalar BgpAndOspfv3.rA2.lo[0] packetDropInterfaceDown:count 0
scalar BgpAndOspfv3.rA2.lo[0] packetDropInterfaceDown:sum(packetBytes) 0
scalar BgpAndOspfv3.rA2.lo[0] packetDropNoCarrier:count 0
scalar BgpAndOspfv3.rA2.lo[0] packetDropNoCarrier:sum(packetBytes) 0
scalar BgpAndOspfv3.rA2.eth[0].queue queueLength:last 0
scalar BgpAndOspfv3.rA2.eth[0].queue queueLength:max 10
scalar BgpAndOspfv3.rA2.eth[0].queue queueLength:timeavg 1.15419e-05
scalar BgpAndOspfv3.rA2.eth[0].queue queueBitLength:last 0
scalar BgpAndOspfv3.rA2.eth[0].queue queueBitLength:max 9664
scalar BgpAndOspfv3.rA2.eth[0].queue queueBitLength:timeavg 0.0107592144
scalar BgpAndOspfv3.rA2.eth[0].queue outgoingPackets:count 93
scalar BgpAndOspfv3.rA2.eth[0].queue outgoingPacketLengths:sum 89104
scalar BgpAndOspfv3.rA2.eth[0].queue incomingPackets:count 93
scalar BgpAndOspfv3.rA2.eth[0].queue incomingPacketLengths:sum 89104
scalar BgpAndOspfv3.rA2.eth[0].queue droppedPacketsQueueOverflow:count 0
scalar BgpAndOspfv3.rA2.eth[0].queue droppedPacketLengthsQueueOverflow:sum 0
scalar BgpAndOspfv3.rA2.eth[0].mac "simulated time" 100
scalar BgpAndOspfv3.rA2.eth[0].mac full-duplex 1
scalar BgpAndOspfv3.rA2.eth[0].mac "frames/sec sent" 0.93
scalar BgpAndOspfv3.rA2.eth[0].mac "frames/sec rcvd" 0.86
scalar BgpAndOspfv3.rA2.eth[0].mac "bits/sec sent" 891.04
scalar BgpAndOspfv3.rA2.eth[0].mac "bits/sec rcvd" 800.32
scalar BgpAndOspfv3.rA2.eth[0].mac "rx channel idle (%)" 99.99914464
scalar BgpAndOspfv3.rA2.eth[0].mac "rx channel utilization (%)" 0.0008553600000000001
scalar BgpAndOspfv3.rA2.eth[0].mac rxPausePkUnits:count 0
scalar BgpAndOspfv3.rA2.eth[0].mac rxPausePkUnits:sum 0
scalar BgpAndOspfv3.rA2.eth[0].mac txPausePkUnits:count 0
scalar BgpAndOspfv3.rA2.eth[0].mac txPausePkUnits:sum 0
scalar BgpAndOspfv3.rA2.eth[0].mac rxPkOk:count 86
scalar BgpAndOspfv3.rA2.eth[0].mac rxPkOk:sum(packetBytes) 10004
scalar BgpAndOspfv3.rA2.eth[0].mac txPk:count 93
scalar BgpAndOspfv3.rA2.eth[0].mac txPk:sum(packetBytes) 11138
scalar BgpAndOspfv3.rA2.eth[0].mac packetReceivedFromUpper:count 93
scalar BgpAndOspfv3.rA2.eth[0].mac packetReceivedFromUpper:sum(packetBytes) 11138
scalar BgpAndOspfv3.rA2.eth[0].mac passedUpPk:count 86
scalar BgpAndOspfv3.rA2.eth[0].mac passedUpPk:sum(packetBytes) 10004
scalar BgpAndOspfv3.rA2.eth[0].mac packetDropIncorrectlyReceived:count 0
scalar BgpAndOspfv3.rA2.eth[0].mac packetDropIncorrectlyReceived:sum(packetBytes) 0
scalar BgpAndOspfv3.rA2.eth[0].mac packetDropInterfaceDown:count 0
scalar BgpAndOspfv3.rA2.eth[0].mac packetDropInterfaceDown:sum(packetBytes) 0
scalar BgpAndOspfv3.rA2.eth[0].mac packetDropNotAddressedToUs:count 0
scalar BgpAndOspfv3.rA2.eth[0].mac packetDropNotAddressedToUs:sum(packetBytes) 0
scalar BgpAndOspfv3.rA2.eth[0] packetDropInterfaceDown:count 0
scalar BgpAndOspfv3.rA2.eth[0] packetDropInterfaceDown:sum(packetBytes) 0
scalar BgpAndOspfv3.rA2.eth[0] packetDropNoCarrier:count 0
scalar BgpAndOspfv3.rA2.eth[0] packetDropNoCarrier:sum(packetBytes) 0
scalar BgpAndOspfv3.rA2.eth[1].queue queueLength:last 0
scalar BgpAndOspfv3.rA2.eth[1].queue queueLength:max 9
scalar BgpAndOspfv3.rA2.eth[1].queue queueLength:timeavg 7.6501e-06
scalar BgpAndOspfv3.rA2.eth[1].queue queueBitLength:last 0
scalar BgpAndOspfv3.rA2.eth[1].queue queueBitLength:max 8976
scalar BgpAndOspfv3.rA2.eth[1].queue queueBitLength:timeavg 0.0075283696
scalar BgpAndOspfv3.rA2.eth[1].queue outgoingPackets:count 90
scalar BgpAndOspfv3.rA2.eth[1].queue outgoingPacketLengths:sum 86752
scalar BgpAndOspfv3.rA2.eth[1].queue incomingPackets:count 90
scalar BgpAndOspfv3.rA2.eth[1].queue incomingPacketLengths:sum 86752
scalar BgpAndOspfv3.rA2.eth[1].queue droppedPacketsQueueOverflow:count 0
scalar BgpAndOspfv3.rA2.eth[1].queue droppedPacketLengthsQueueOverflow:sum 0
scalar BgpAndOspfv3.rA2.eth[1].mac "simulated time" 100
scalar BgpAndOspfv3.rA2.eth[1].mac full-duplex 1
scalar BgpAndOspfv3.rA2.eth[1].mac "frames/sec sent" 0.9
scalar BgpAndOspfv3.rA2.eth[1].mac "frames/sec rcvd" 0.84
scalar BgpAndOspfv3.rA2.eth[1].mac "bits/sec sent" 867.52
scalar BgpAndOspfv3.rA2.eth[1].mac "bits/sec rcvd" 777.28
scalar BgpAndOspfv3.rA2.eth[1].mac "rx channel idle (%)" 99.99916895999999
scalar BgpAndOspfv3.rA2.eth[1].mac "rx channel utilization (%)" 0.0008310399999999999
scalar BgpAndOspfv3.rA2.eth[1].mac rxPausePkUnits:count 0
scalar BgpAndOspfv3.rA2.eth[1].mac rxPausePkUnits:sum 0
scalar BgpAndOspfv3.rA2.eth[1].mac txPausePkUnits:count 0
scalar BgpAndOspfv3.rA2.eth[1].mac txPausePkUnits:sum 0
scalar BgpAndOspfv3.rA2.eth[1].mac rxPkOk:count 84
scalar BgpAndOspfv3.rA2.eth[1].mac rxPkOk:sum(packetBytes) 9716
scalar BgpAndOspfv3.rA2.eth[1].mac txPk:count 90
scalar BgpAndOspfv3.rA2.eth[1].mac txPk:sum(packetBytes) 10844
scalar BgpAndOspfv3.rA2.eth[1].mac packetReceivedFromUpper:count 90
scalar BgpAndOspfv3.rA2.eth[1].mac packetReceivedFromUpper:sum(packetBytes) 10844
scalar BgpAndOspfv3.rA2.eth[1].mac passedUpPk:count 84
scalar BgpAndOspfv3.rA2.eth[1].mac passedUpPk:sum(packetBytes) 9716
scalar BgpAndOspfv3.rA2.eth[1].mac packetDropIncorrectlyReceived:count 0
scalar BgpAndOspfv3.rA2.eth[1].mac packetDropIncorrectlyReceived:sum(packetBytes) 0
scalar BgpAndOspfv3.rA2.eth[1].mac packetDropInterfaceDown:count 0
scalar BgpAndOspfv3.rA2.eth[1].mac packetDropInterfaceDown:sum(packetBytes) 0
scalar BgpAndOspfv3.rA2.eth[1].mac packetDropNotAddressedToUs:count 0
scalar BgpAndOspfv3.rA2.eth[1].mac packetDropNotAddressedToUs:sum(packetBytes) 0
scalar BgpAndOspfv3.rA2.eth[1] packetDropInterfaceDown:count 0
scalar BgpAndOspfv3.rA2.eth[1] packetDropInterfaceDown:sum(packetBytes) 0
scalar BgpAndOspfv3.rA2.eth[1] packetDropNoCarrier:count 0
scalar BgpAndOspfv3.rA2.eth[1] packetDropNoCarrier:sum(packetBytes) 0
scalar BgpAndOspfv3.rA2.ipv6.neighbourDiscovery dadFailed:count 0
scalar BgpAndOspfv3.rA2.ipv6.neighbourDiscovery dadCompleted:count 2
scalar BgpAndOspfv3.rA2.ipv6.neighbourDiscovery startDad:count 2
scalar BgpAndOspfv3.rA3.ethernet pauseSent:count 0
scalar BgpAndOspfv3.rA3.ethernet pauseSent:sum 0
scalar BgpAndOspfv3.rA3.ethernet decapPk:count 91
scalar BgpAndOspfv3.rA3.ethernet decapPk:sum(packetBytes) 9288
scalar BgpAndOspfv3.rA3.ethernet encapPk:count 85
scalar BgpAndOspfv3.rA3.ethernet encapPk:sum(packetBytes) 8268
scalar BgpAndOspfv3.rA3.lo[0].lo rcvdPkFromHl:count 0
scalar BgpAndOspfv3.rA3.lo[0].lo rcvdPkFromHl:sum(packetBytes) 0
scalar BgpAndOspfv3.rA3.lo[0].lo passedUpPk:count 0
scalar BgpAndOspfv3.rA3.lo[0].lo passedUpPk:sum(packetBytes) 0
scalar BgpAndOspfv3.rA3.lo[0] packetDropInterfaceDown:count 0
scalar BgpAndOspfv3.rA3.lo[0] packetDropInterfaceDown:sum(packetBytes) 0
scalar BgpAndOspfv3.rA3.lo[0] packetDropNoCarrier:count 0
scalar BgpAndOspfv3.rA3.lo[0] packetDropNoCarrier:sum(packetBytes) 0
scalar BgpAndOspfv3.rA3.eth[0].queue queueLength:last 0
scalar BgpAndOspfv3.rA3.eth[0].queue queueLength:max 5
scalar BgpAndOspfv3.rA3.eth[0].queue queueLength:timeavg 2.766e-06
scalar BgpAndOspfv3.rA3.eth[0].queue queueBitLength:last 0
scalar BgpAndOspfv3.rA3.eth[0].queue queueBitLength:max 4752
scalar BgpAndOspfv3.rA3.eth[0].queue queueBitLength:timeavg 0.0023906304
scalar BgpAndOspfv3.rA3.eth[0].queue outgoingPackets:count 84
scalar BgpAndOspfv3.rA3.eth[0].queue outgoingPacketLengths:sum 77728
scalar BgpAndOspfv3.rA3.eth[0].queue incomingPackets:count 84
scalar BgpAndOspfv3.rA3.eth[0].queue incomingPacketLengths:sum 77728
scalar BgpAndOspfv3.rA3.eth[0].queue droppedPacketsQueueOverflow:count 0
scalar BgpAndOspfv3.rA3.eth[0].queue droppedPacketLengthsQueueOverflow:sum 0
scalar BgpAndOspfv3.rA3.eth[0].mac "simulated time" 100
scalar BgpAndOspfv3.rA3.eth[0].mac full-duplex 1
scalar BgpAndOspfv3.rA3.eth[0].mac "frames/sec sent" 0.84
scalar BgpAndOspfv3.rA3.eth[0].mac "frames/sec rcvd" 0.9
scalar BgpAndOspfv3.rA3.eth[0].mac "bits/sec sent" 777.28
scalar BgpAndOspfv3.rA3.eth[0].mac "bits/sec rcvd" 867.52
scalar BgpAndOspfv3.rA3.eth[0].mac "rx channel idle (%)" 99.99907488000001
scalar BgpAndOspfv3.rA3.eth[0].mac "rx channel utilization (%)" 0.0009251200000000001
scalar BgpAndOspfv3.rA3.eth[0].mac rxPausePkUnits:count 0
scalar BgpAndOspfv3.rA3.eth[0].mac rxPausePkUnits:sum 0
scalar BgpAndOspfv3.rA3.eth[0].mac txPausePkUnits:count 0
scalar BgpAndOspfv3.rA3.eth[0].mac txPausePkUnits:sum 0
scalar BgpAndOspfv3.rA3.eth[0].mac rxPkOk:count 90
scalar BgpAndOspfv3.rA3.eth[0].mac rxPkOk:sum(packetBytes) 10844
scalar BgpAndOspfv3.rA3.eth[0].mac txPk:count 84
scalar BgpAndOspfv3.rA3.eth[0].mac txPk:sum(packetBytes) 9716
scalar BgpAndOspfv3.rA3.eth[0].mac packetReceivedFromUpper:count 84
scalar BgpAndOspfv3.rA3.eth[0].mac packetReceivedFromUpper:sum(packetBytes) 9716
scalar BgpAndOspfv3.rA3.eth[0].mac passedUpPk:count 90
scalar BgpAndOspfv3.rA3.eth[0].mac passedUpPk:sum(packetBytes) 10844
scalar BgpAndOspfv3.rA3.eth[0].mac packetDropIncorrectlyReceived:count 0
scalar BgpAndOspfv3.rA3.eth[0].mac packetDropIncorrectlyReceived:sum(packetBytes) 0
scalar BgpAndOspfv3.rA3.eth[0].mac packetDropInterfaceDown:count 0
scalar BgpAndOspfv3.rA3.eth[0].mac packetDropInterfaceDown:sum(packetBytes) 0
scalar BgpAndOspfv3.rA3.eth[0].mac packetDropNotAddressedToUs:count 0
scalar BgpAndOspfv3.rA3.eth[0].mac packetDropNotAddressedToUs:sum(packetBytes) 0
scalar BgpAndOspfv3.rA3.eth[0] packetDropInterfaceDown:count 0
scalar BgpAndOspfv3.rA3.eth[0] packetDropInterfaceDown:sum(packetBytes) 0
scalar BgpAndOspfv3.rA3.eth[0] packetDropNoCarrier:count 0
scalar BgpAndOspfv3.rA3.eth[0] packetDropNoCarrier:sum(packetBytes) 0
scalar BgpAndOspfv3.rA3.eth[1].queue queueLength:last 0
scalar BgpAndOspfv3.rA3.eth[1].queue queueLength:max 0
scalar BgpAndOspfv3.rA3.eth[1].queue queueLength:timeavg 0
scalar BgpAndOspfv3.rA3.eth[1].queue queueBitLength:last 0
scalar BgpAndOspfv3.rA3.eth[1].queue queueBitLength:max 0
scalar BgpAndOspfv3.rA3.eth[1].queue queueBitLength:timeavg 0
scalar BgpAndOspfv3.rA3.eth[1].queue outgoingPackets:count 1
scalar BgpAndOspfv3.rA3.eth[1].queue outgoingPacketLengths:sum 656
scalar BgpAndOspfv3.rA3.eth[1].queue incomingPackets:count 1
scalar BgpAndOspfv3.rA3.eth[1].queue incomingPacketLengths:sum 656
scalar BgpAndOspfv3.rA3.eth[1].queue droppedPacketsQueueOverflow:count 0
scalar BgpAndOspfv3.rA3.eth[1].queue droppedPacketLengthsQueueOverflow:sum 0
scalar BgpAndOspfv3.rA3.eth[1].mac "simulated time" 100
scalar BgpAndOspfv3.rA3.eth[1].mac full-duplex 1
scalar BgpAndOspfv3.rA3.eth[1].mac "frames/sec sent" 0.01
scalar BgpAndOspfv3.rA3.eth[1].mac "frames/sec rcvd" 0.01
scalar BgpAndOspfv3.rA3.eth[1].mac "bits/sec sent" 6.56
scalar BgpAndOspfv3.rA3.eth[1].mac "bits/sec rcvd" 6.56
scalar BgpAndOspfv3.rA3.eth[1].mac "rx channel idle (%)" 99.9999928
scalar BgpAndOspfv3.rA3.eth[1].mac "rx channel utilization (%)" 7.2e-06
scalar BgpAndOspfv3.rA3.eth[1].mac rxPausePkUnits:count 0
scalar BgpAndOspfv3.rA3.eth[1].mac rxPausePkUnits:sum 0
scalar BgpAndOspfv3.rA3.eth[1].mac txPausePkUnits:count 0
scalar BgpAndOspfv3.rA3.eth[1].mac txPausePkUnits:sum 0
scalar BgpAndOspfv3.rA3.eth[1].mac rxPkOk:count 1
scalar BgpAndOspfv3.rA3.eth[1].mac rxPkOk:sum(packetBytes) 82
scalar BgpAndOspfv3.rA3.eth[1].mac txPk:count 1
scalar BgpAndOspfv3.rA3.eth[1].mac txPk:sum(packetBytes) 82
scalar BgpAndOspfv3.rA3.eth[1].mac packetReceivedFromUpper:count 1
scalar BgpAndOspfv3.rA3.eth[1].mac packetReceivedFromUpper:sum(packetBytes) 82
scalar BgpAndOspfv3.rA3.eth[1].mac passedUpPk:count 1
scalar BgpAndOspfv3.rA3.eth[1].mac passedUpPk:sum(packetBytes) 82
scalar BgpAndOspfv3.rA3.eth[1].mac packetDropIncorrectlyReceived:count 0
scalar BgpAndOspfv3.rA3.eth[1].mac packetDropIncorrectlyReceived:sum(packetBytes) 0
scalar BgpAndOspfv3.rA3.eth[1].mac packetDropInterfaceDown:count 0
scalar BgpAndOspfv3.rA3.eth[1].mac packetDropInterfaceDown:sum(packetBytes) 0
scalar BgpAndOspfv3.rA3.eth[1].mac packetDropNotAddressedToUs:count 0
scalar BgpAndOspfv3.rA3.eth[1].mac packetDropNotAddressedToUs:sum(packetBytes) 0
scalar BgpAndOspfv3.rA3.eth[1] packetDropInterfaceDown:count 0
scalar BgpAndOspfv3.rA3.eth[1] packetDropInterfaceDown:sum(packetBytes) 0
scalar BgpAndOspfv3.rA3.eth[1] packetDropNoCarrier:count 0
scalar BgpAndOspfv3.rA3.eth[1] packetDropNoCarrier:sum(packetBytes) 0
scalar BgpAndOspfv3.rA3.ipv6.neighbourDiscovery dadFailed:count 0
scalar BgpAndOspfv3.rA3.ipv6.neighbourDiscovery dadCompleted:count 2
scalar BgpAndOspfv3.rA3.ipv6.neighbourDiscovery startDad:count 2
scalar BgpAndOspfv3.rB1.ethernet pauseSent:count 0
scalar BgpAndOspfv3.rB1.ethernet pauseSent:sum 0
scalar BgpAndOspfv3.rB1.ethernet decapPk:count 45
scalar BgpAndOspfv3.rB1.ethernet decapPk:sum(packetBytes) 4816
scalar BgpAndOspfv3.rB1.ethernet encapPk:count 36
scalar BgpAndOspfv3.rB1.ethernet encapPk:sum(packetBytes) 3112
scalar BgpAndOspfv3.rB1.lo[0].lo rcvdPkFromHl:count 0
scalar BgpAndOspfv3.rB1.lo[0].lo rcvdPkFromHl:sum(packetBytes) 0
scalar BgpAndOspfv3.rB1.lo[0].lo passedUpPk:count 0
scalar BgpAndOspfv3.rB1.lo[0].lo passedUpPk:sum(packetBytes) 0
scalar BgpAndOspfv3.rB1.lo[0] packetDropInterfaceDown:count 0
scalar BgpAndOspfv3.rB1.lo[0] packetDropInterfaceDown:sum(packetBytes) 0
scalar BgpAndOspfv3.rB1.lo[0] packetDropNoCarrier:count 0
scalar BgpAndOspfv3.rB1.lo[0] packetDropNoCarrier:sum(packetBytes) 0
scalar BgpAndOspfv3.rB1.eth[0].queue queueLength:last 0
scalar BgpAndOspfv3.rB1.eth[0].queue queueLength:max 0
scalar BgpAndOspfv3.rB1.eth[0].queue queueLength:timeavg 0
scalar BgpAndOspfv3.rB1.eth[0].queue queueBitLength:last 0
scalar BgpAndOspfv3.rB1.eth[0].queue queueBitLength:max 0
scalar BgpAndOspfv3.rB1.eth[0].queue queueBitLength:timeavg 0
scalar BgpAndOspfv3.rB1.eth[0].queue outgoingPackets:count 1
scalar BgpAndOspfv3.rB1.eth[0].queue outgoingPacketLengths:sum 656
scalar BgpAndOspfv3.rB1.eth[0].queue incomingPackets:count 1
scalar BgpAndOspfv3.rB1.eth[0].queue incomingPacketLengths:sum 656
scalar BgpAndOspfv3.rB1.eth[0].queue droppedPacketsQueueOverflow:count 0
scalar BgpAndOspfv3.rB1.eth[0].queue droppedPacketLengthsQueueOverflow:sum 0
scalar BgpAndOspfv3.rB1.eth[0].mac "simulated time" 100
scalar BgpAndOspfv3.rB1.eth[0].mac full-duplex 1
scalar BgpAndOspfv3.rB1.eth[0].mac "frames/sec sent" 0.01
scalar BgpAndOspfv3.rB1.eth[0].mac "frames/sec rcvd" 0.01
scalar BgpAndOspfv3.rB1.eth[0].mac "bits/sec sent" 6.56
scalar BgpAndOspfv3.rB1.eth[0].mac "bits/sec rcvd" 6.56
scalar BgpAndOspfv3.rB1.eth[0].mac "rx channel idle (%)" 99.9999928
scalar BgpAndOspfv3.rB1.eth[0].mac "rx channel utilization (%)" 7.2e-06
scalar BgpAndOspfv3.rB1.eth[0].mac rxPausePkUnits:count 0
scalar BgpAndOspfv3.rB1.eth[0].mac rxPausePkUnits:sum 0
scalar BgpAndOspfv3.rB1.eth[0].mac txPausePkUnits:count 0
scalar BgpAndOspfv3.rB1.eth[0].mac txPausePkUnits:sum 0
scalar BgpAndOspfv3.rB1.eth[0].mac rxPkOk:count 1
scalar BgpAndOspfv3.rB1.eth[0].mac rxPkOk:sum(packetBytes) 82
scalar BgpAndOspfv3.rB1.eth[0].mac txPk:count 1
scalar BgpAndOspfv3.rB1.eth[0].mac txPk:sum(packetBytes) 82
scalar BgpAndOspfv3.rB1.eth[0].mac packetReceivedFromUpper:count 1
scalar BgpAndOspfv3.rB1.eth[0].mac packetReceivedFromUpper:sum(packetBytes) 82
scalar BgpAndOspfv3.rB1.eth[0].mac passedUpPk:count 1
scalar BgpAndOspfv3.rB1.eth[0].mac passedUpPk:sum(packetBytes) 82
scalar BgpAndOspfv3.rB1.eth[0].mac packetDropIncorrectlyReceived:count 0
scalar BgpAndOspfv3.rB1.eth[0].mac packetDropIncorrectlyReceived:sum(packetBytes) 0
scalar BgpAndOspfv3.rB1.eth[0].mac packetDropInterfaceDown:count 0
scalar BgpAndOspfv3.rB1.eth[0].mac packetDropInterfaceDown:sum(packetBytes) 0
scalar BgpAndOspfv3.rB1.eth[0].mac packetDropNotAddressedToUs:count 0
scalar BgpAndOspfv3.rB1.eth[0].mac packetDropNotAddressedToUs:sum(packetBytes) 0
scalar BgpAndOspfv3.rB1.eth[0] packetDropInterfaceDown:count 0
scalar BgpAndOspfv3.rB1.eth[0] packetDropInterfaceDown:sum(packetBytes) 0
scalar BgpAndOspfv3.rB1.eth[0] packetDropNoCarrier:count 0
scalar BgpAndOspfv3.rB1.eth[0] packetDropNoCarrier:sum(packetBytes) 0
scalar BgpAndOspfv3.rB1.eth[1].queue queueLength:last 0
scalar BgpAndOspfv3.rB1.eth[1].queue queueLength:max 5
scalar BgpAndOspfv3.rB1.eth[1].queue queueLength:timeavg 2.1109999999999998e-06
scalar BgpAndOspfv3.rB1.eth[1].queue queueBitLength:last 0
scalar BgpAndOspfv3.rB1.eth[1].queue queueBitLength:max 3760
scalar BgpAndOspfv3.rB1.eth[1].queue queueBitLength:timeavg 0.0017393599999999997
scalar BgpAndOspfv3.rB1.eth[1].queue outgoingPackets:count 35
scalar BgpAndOspfv3.rB1.eth[1].queue outgoingPacketLengths:sum 29424
scalar BgpAndOspfv3.rB1.eth[1].queue incomingPackets:count 35
scalar BgpAndOspfv3.rB1.eth[1].queue incomingPacketLengths:sum 29424
scalar BgpAndOspfv3.rB1.eth[1].queue droppedPacketsQueueOverflow:count 0
scalar BgpAndOspfv3.rB1.eth[1].queue droppedPacketLengthsQueueOverflow:sum 0
scalar BgpAndOspfv3.rB1.eth[1].mac "simulated time" 100
scalar BgpAndOspfv3.rB1.eth[1].mac full-duplex 1
scalar BgpAndOspfv3.rB1.eth[1].mac "frames/sec sent" 0.35
scalar BgpAndOspfv3.rB1.eth[1].mac "frames/sec rcvd" 0.44
scalar BgpAndOspfv3.rB1.eth[1].mac "bits/sec sent" 294.24
scalar BgpAndOspfv3.rB1.eth[1].mac "bits/sec rcvd" 443.52
scalar BgpAndOspfv3.rB1.eth[1].mac "rx channel idle (%)" 99.99952832
scalar BgpAndOspfv3.rB1.eth[1].mac "rx channel utilization (%)" 0.00047168000000000004
scalar BgpAndOspfv3.rB1.eth[1].mac rxPausePkUnits:count 0
scalar BgpAndOspfv3.rB1.eth[1].mac rxPausePkUnits:sum 0
scalar BgpAndOspfv3.rB1.eth[1].mac txPausePkUnits:count 0
scalar BgpAndOspfv3.rB1.eth[1].mac txPausePkUnits:sum 0
scalar BgpAndOspfv3.rB1.eth[1].mac rxPkOk:count 44
scalar BgpAndOspfv3.rB1.eth[1].mac rxPkOk:sum(packetBytes) 5544
scalar BgpAndOspfv3.rB1.eth[1].mac txPk:count 35
scalar BgpAndOspfv3.rB1.eth[1].mac txPk:sum(packetBytes) 3678
scalar BgpAndOspfv3.rB1.eth[1].mac packetReceivedFromUpper:count 35
scalar BgpAndOspfv3.rB1.eth[1].mac packetReceivedFromUpper:sum(packetBytes) 3678
scalar BgpAndOspfv3.rB1.eth[1].mac passedUpPk:count 44
scalar BgpAndOspfv3.rB1.eth[1].mac passedUpPk:sum(packetBytes) 5544
scalar BgpAndOspfv3.rB1.eth[1].mac packetDropIncorrectlyReceived:count 0
scalar BgpAndOspfv3.rB1.eth[1].mac packetDropIncorrectlyReceived:sum(packetBytes) 0
scalar BgpAndOspfv3.rB1.eth[1].mac packetDropInterfaceDown:count 0
scalar BgpAndOspfv3.rB1.eth[1].mac packetDropInterfaceDown:sum(packetBytes) 0
scalar BgpAndOspfv3.rB1.eth[1].mac packetDropNotAddressedToUs:count 0
scalar BgpAndOspfv3.rB1.eth[1].mac packetDropNotAddressedToUs:sum(packetBytes) 0
scalar BgpAndOspfv3.rB1.eth[1] packetDropInterfaceDown:count 0
scalar BgpAndOspfv3.rB1.eth[1] packetDropInterfaceDown:sum(packetBytes) 0
scalar BgpAndOspfv3.rB1.eth[1] packetDropNoCarrier:count 0
scalar BgpAndOspfv3.rB1.eth[1] packetDropNoCarrier:sum(packetBytes) 0
scalar BgpAndOspfv3.rB1.ipv6.neighbourDiscovery dadFailed:count 0
scalar BgpAndOspfv3.rB1.ipv6.neighbourDiscovery dadCompleted:count 2
scalar BgpAndOspfv3.rB1.ipv6.neighbourDiscovery startDad:count 2
scalar BgpAndOspfv3.rB2.ethernet pauseSent:count 0
scalar BgpAndOspfv3.rB2.ethernet pauseSent:sum 0
scalar BgpAndOspfv3.rB2.ethernet decapPk:count 75
scalar BgpAndOspfv3.rB2.ethernet decapPk:sum(packetBytes) 6964
scalar BgpAndOspfv3.rB2.ethernet encapPk:count 86
scalar BgpAndOspfv3.rB2.ethernet encapPk:sum(packetBytes) 8892
scalar BgpAndOspfv3.rB2.lo[0].lo rcvdPkFromHl:count 0
scalar BgpAndOspfv3.rB2.lo[0].lo rcvdPkFromHl:sum(packetBytes) 0
scalar BgpAndOspfv3.rB2.lo[0].lo passedUpPk:count 0
scalar BgpAndOspfv3.rB2.lo[0].lo passedUpPk:sum(packetBytes) 0
scalar BgpAndOspfv3.rB2.lo[0] packetDropInterfaceDown:count 0
scalar BgpAndOspfv3.rB2.lo[0] packetDropInterfaceDown:sum(packetBytes) 0
scalar BgpAndOspfv3.rB2.lo[0] packetDropNoCarrier:count 0
scalar BgpAndOspfv3.rB2.lo[0] packetDropNoCarrier:sum(packetBytes) 0
scalar BgpAndOspfv3.rB2.eth[0].queue queueLength:last 0
scalar BgpAndOspfv3.rB2.eth[0].queue queueLength:max 10
scalar BgpAndOspfv3.rB2.eth[0].queue queueLength:timeavg 1.1748299999999999e-05
scalar BgpAndOspfv3.rB2.eth[0].queue queueBitLength:last 0
scalar BgpAndOspfv3.rB2.eth[0].queue queueBitLength:max 9856
scalar BgpAndOspfv3.rB2.eth[0].queue queueBitLength:timeavg 0.011639092799999999
scalar BgpAndOspfv3.rB2.eth[0].queue outgoingPackets:count 44
scalar BgpAndOspfv3.rB2.eth[0].queue outgoingPacketLengths:sum 44352
scalar BgpAndOspfv3.rB2.eth[0].queue incomingPackets:count 44
scalar BgpAndOspfv3.rB2.eth[0].queue incomingPacketLengths:sum 44352
scalar BgpAndOspfv3.rB2.eth[0].queue droppedPacketsQueueOverflow:count 0
scalar BgpAndOspfv3.rB2.eth[0].queue droppedPacketLengthsQueueOverflow:sum 0
scalar BgpAndOspfv3.rB2.eth[0].mac "simulated time" 100
scalar BgpAndOspfv3.rB2.eth[0].mac full-duplex 1
scalar BgpAndOspfv3.rB2.eth[0].mac "frames/sec sent" 0.44
scalar BgpAndOspfv3.rB2.eth[0].mac "frames/sec rcvd" 0.35
scalar BgpAndOspfv3.rB2.eth[0].mac "bits/sec sent" 443.52
scalar BgpAndOspfv3.rB2.eth[0].mac "bits/sec rcvd" 294.24
scalar BgpAndOspfv3.rB2.eth[0].mac "rx channel idle (%)" 99.99968336
scalar BgpAndOspfv3.rB2.eth[0].mac "rx channel utilization (%)" 0.00031664
scalar BgpAndOspfv3.rB2.eth[0].mac rxPausePkUnits:count 0
scalar BgpAndOspfv3.rB2.eth[0].mac rxPausePkUnits:sum 0
scalar BgpAndOspfv3.rB2.eth[0].mac txPausePkUnits:count 0
scalar BgpAndOspfv3.rB2.eth[0].mac txPausePkUnits:sum 0
scalar BgpAndOspfv3.rB2.eth[0].mac rxPkOk:count 35
scalar BgpAndOspfv3.rB2.eth[0].mac rxPkOk:sum(packetBytes) 3678
scalar BgpAndOspfv3.rB2.eth[0].mac txPk:count 44
scalar BgpAndOspfv3.rB2.eth[0].mac txPk:sum(packetBytes) 5544
scalar BgpAndOspfv3.rB2.eth[0].mac packetReceivedFromUpper:count 44
scalar BgpAndOspfv3.rB2.eth[0].mac packetReceivedFromUpper:sum(packetBytes) 5544
scalar BgpAndOspfv3.rB2.eth[0].mac passedUpPk:count 35
scalar BgpAndOspfv3.rB2.eth[0].mac passedUpPk:sum(packetBytes) 3678
scalar BgpAndOspfv3.rB2.eth[0].mac packetDropIncorrectlyReceived:count 0
scalar BgpAndOspfv3.rB2.eth[0].mac packetDropIncorrectlyReceived:sum(packetBytes) 0
scalar BgpAndOspfv3.rB2.eth[0].mac packetDropInterfaceDown:count 0
scalar BgpAndOspfv3.rB2.eth[0].mac packetDropInterfaceDown:sum(packetBytes) 0
scalar BgpAndOspfv3.rB2.eth[0].mac packetDropNotAddressedToUs:count 0
scalar BgpAndOspfv3.rB2.eth[0].mac packetDropNotAddressedToUs:sum(packetBytes) 0
scalar BgpAndOspfv3.rB2.eth[0] packetDropInterfaceDown:count 0
scalar BgpAndOspfv3.rB2.eth[0] packetDropInterfaceDown:sum(packetBytes) 0
scalar BgpAndOspfv3.rB2.eth[0] packetDropNoCarrier:count 0
scalar BgpAndOspfv3.rB2.eth[0] packetDropNoCarrier:sum(packetBytes) 0
scalar BgpAndOspfv3.rB2.eth[1].queue queueLength:last 0
scalar BgpAndOspfv3.rB2.eth[1].queue queueLength:max 8
scalar BgpAndOspfv3.rB2.eth[1].queue queueLength:timeavg 6.4378e-06
scalar BgpAndOspfv3.rB2.eth[1].queue queueBitLength:last 0
scalar BgpAndOspfv3.rB2.eth[1].queue queueBitLength:max 8160
scalar BgpAndOspfv3.rB2.eth[1].queue queueBitLength:timeavg 0.0062471615999999995
scalar BgpAndOspfv3.rB2.eth[1].queue outgoingPackets:count 42
scalar BgpAndOspfv3.rB2.eth[1].queue outgoingPacketLengths:sum 39168
scalar BgpAndOspfv3.rB2.eth[1].queue incomingPackets:count 42
scalar BgpAndOspfv3.rB2.eth[1].queue incomingPacketLengths:sum 39168
scalar BgpAndOspfv3.rB2.eth[1].queue droppedPacketsQueueOverflow:count 0
scalar BgpAndOspfv3.rB2.eth[1].queue droppedPacketLengthsQueueOverflow:sum 0
scalar BgpAndOspfv3.rB2.eth[1].mac "simulated time" 100
scalar BgpAndOspfv3.rB2.eth[1].mac full-duplex 1
scalar BgpAndOspfv3.rB2.eth[1].mac "frames/sec sent" 0.42
scalar BgpAndOspfv3.rB2.eth[1].mac "frames/sec rcvd" 0.4
scalar BgpAndOspfv3.rB2.eth[1].mac "bits/sec sent" 391.68
scalar BgpAndOspfv3.rB2.eth[1].mac "bits/sec rcvd" 370.88
scalar BgpAndOspfv3.rB2.eth[1].mac "rx channel idle (%)" 99.99960352000001
scalar BgpAndOspfv3.rB2.eth[1].mac "rx channel utilization (%)" 0.00039647999999999994
scalar BgpAndOspfv3.rB2.eth[1].mac rxPausePkUnits:count 0
scalar BgpAndOspfv3.rB2.eth[1].mac rxPausePkUnits:sum 0
scalar BgpAndOspfv3.rB2.eth[1].mac txPausePkUnits:count 0
scalar BgpAndOspfv3.rB2.eth[1].mac txPausePkUnits:sum 0
scalar BgpAndOspfv3.rB2.eth[1].mac rxPkOk:count 40
scalar BgpAndOspfv3.rB2.eth[1].mac rxPkOk:sum(packetBytes) 4636
scalar BgpAndOspfv3.rB2.eth[1].mac txPk:count 42
scalar BgpAndOspfv3.rB2.eth[1].mac txPk:sum(packetBytes) 4896
scalar BgpAndOspfv3.rB2.eth[1].mac packetReceivedFromUpper:count 42
scalar BgpAndOspfv3.rB2.eth[1].mac packetReceivedFromUpper:sum(packetBytes) 4896
scalar BgpAndOspfv3.rB2.eth[1].mac passedUpPk:count 40
scalar BgpAndOspfv3.rB2.eth[1].mac passedUpPk:sum(packetBytes) 4636
scalar BgpAndOspfv3.rB2.eth[1].mac packetDropIncorrectlyReceived:count 0
scalar BgpAndOspfv3.rB2.eth[1].mac packetDropIncorrectlyReceived:sum(packetBytes) 0
scalar BgpAndOspfv3.rB2.eth[1].mac packetDropInterfaceDown:count 0
scalar BgpAndOspfv3.rB2.eth[1].mac packetDropInterfaceDown:sum(packetBytes) 0
scalar BgpAndOspfv3.rB2.eth[1].mac packetDropNotAddressedToUs:count 0
scalar BgpAndOspfv3.rB2.eth[1].mac packetDropNotAddressedToUs:sum(packetBytes) 0
scalar BgpAndOspfv3.rB2.eth[1] packetDropInterfaceDown:count 0
scalar BgpAndOspfv3.rB2.eth[1] packetDropInterfaceDown:sum(packetBytes) 0
scalar BgpAndOspfv3.rB2.eth[1] packetDropNoCarrier:count 0
scalar BgpAndOspfv3.rB2.eth[1] packetDropNoCarrier:sum(packetBytes) 0
scalar BgpAndOspfv3.rB2.ipv6.neighbourDiscovery dadFailed:count 0
scalar BgpAndOspfv3.rB2.ipv6.neighbourDiscovery dadCompleted:count 2
scalar BgpAndOspfv3.rB2.ipv6.neighbourDiscovery startDad:count 2
scalar BgpAndOspfv3.rB3.ethernet pauseSent:count 0
scalar BgpAndOspfv3.rB3.ethernet pauseSent:sum 0
scalar BgpAndOspfv3.rB3.ethernet decapPk:count 44
scalar BgpAndOspfv3.rB3.ethernet decapPk:sum(packetBytes) 4260
scalar BgpAndOspfv3.rB3.ethernet encapPk:count 52
scalar BgpAndOspfv3.rB3.ethernet encapPk:sum(packetBytes) 4844
scalar BgpAndOspfv3.rB3.lo[0].lo rcvdPkFromHl:count 0
scalar BgpAndOspfv3.rB3.lo[0].lo rcvdPkFromHl:sum(packetBytes) 0
scalar BgpAndOspfv3.rB3.lo[0].lo passedUpPk:count 0
scalar BgpAndOspfv3.rB3.lo[0].lo passedUpPk:sum(packetBytes) 0
scalar BgpAndOspfv3.rB3.lo[0] packetDropInterfaceDown:count 0
scalar BgpAndOspfv3.rB3.lo[0] packetDropInterfaceDown:sum(packetBytes) 0
scalar BgpAndOspfv3.rB3.lo[0] packetDropNoCarrier:count 0
scalar BgpAndOspfv3.rB3.lo[0] packetDropNoCarrier:sum(packetBytes) 0
scalar BgpAndOspfv3.rB3.eth[0].queue queueLength:last 0
scalar BgpAndOspfv3.rB3.eth[0].queue queueLength:max 10
scalar BgpAndOspfv3.rB3.eth[0].queue queueLength:timeavg 8.0007e-06
scalar BgpAndOspfv3.rB3.eth[0].queue queueBitLength:last 0
scalar BgpAndOspfv3.rB3.eth[0].queue queueBitLength:max 10048
scalar BgpAndOspfv3.rB3.eth[0].queue queueBitLength:timeavg 0.007521102399999999
scalar BgpAndOspfv3.rB3.eth[0].queue outgoingPackets:count 40
scalar BgpAndOspfv3.rB3.eth[0].queue outgoingPacketLengths:sum 37088
scalar BgpAndOspfv3.rB3.eth[0].queue incomingPackets:count 40
scalar BgpAndOspfv3.rB3.eth[0].queue incomingPacketLengths:sum 37088
scalar BgpAndOspfv3.rB3.eth[0].queue droppedPacketsQueueOverflow:count 0
scalar BgpAndOspfv3.rB3.eth[0].queue droppedPacketLengthsQueueOverflow:sum 0
scalar BgpAndOspfv3.rB3.eth[0].mac "simulated time" 100
scalar BgpAndOspfv3.rB3.eth[0].mac full-duplex 1
scalar BgpAndOspfv3.rB3.eth[0].mac "frames/sec sent" 0.4
scalar BgpAndOspfv3.rB3.eth[0].mac "frames/sec rcvd" 0.42
scalar BgpAndOspfv3.rB3.eth[0].mac "bits/sec sent" 370.88
scalar BgpAndOspfv3.rB3.eth[0].mac "bits/sec rcvd" 391.68
scalar BgpAndOspfv3.rB3.eth[0].mac "rx channel idle (%)" 99.99958144
scalar BgpAndOspfv3.rB3.eth[0].mac "rx channel utilization (%)" 0.00041856
scalar BgpAndOspfv3.rB3.eth[0].mac rxPausePkUnits:count 0
scalar BgpAndOspfv3.rB3.eth[0].mac rxPausePkUnits:sum 0
scalar BgpAndOspfv3.rB3.eth[0].mac txPausePkUnits:count 0
scalar BgpAndOspfv3.rB3.eth[0].mac txPausePkUnits:sum 0
scalar BgpAndOspfv3.rB3.eth[0].mac rxPkOk:count 42
scalar BgpAndOspfv3.rB3.eth[0].mac rxPkOk:sum(packetBytes) 4896
scalar BgpAndOspfv3.rB3.eth[0].mac txPk:count 40
scalar BgpAndOspfv3.rB3.eth[0].mac txPk:sum(packetBytes) 4636
scalar BgpAndOspfv3.rB3.eth[0].mac packetReceivedFromUpper:count 40
scalar BgpAndOspfv3.rB3.eth[0].mac packetReceivedFromUpper:sum(packetBytes) 4636
scalar BgpAndOspfv3.rB3.eth[0].mac passedUpPk:count 42
scalar BgpAndOspfv3.rB3.eth[0].mac passedUpPk:sum(packetBytes) 4896
scalar BgpAndOspfv3.rB3.eth[0].mac packetDropIncorrectlyReceived:count 0
scalar BgpAndOspfv3.rB3.eth[0].mac packetDropIncorrectlyReceived:sum(packetBytes) 0
scalar BgpAndOspfv3.rB3.eth[0].mac packetDropInterfaceDown:count 0
scalar BgpAndOspfv3.rB3.eth[0].mac packetDropInterfaceDown:sum(packetBytes) 0
scalar BgpAndOspfv3.rB3.eth[0].mac packetDropNotAddressedToUs:count 0
scalar BgpAndOspfv3.rB3.eth[0].mac packetDropNotAddressedToUs:sum(packetBytes) 0
scalar BgpAndOspfv3.rB3.eth[0] packetDropInterfaceDown:count 0
scalar BgpAndOspfv3.rB3.eth[0] packetDropInterfaceDown:sum(packetBytes) 0
scalar BgpAndOspfv3.rB3.eth[0] packetDropNoCarrier:count 0
scalar BgpAndOspfv3.rB3.eth[0] packetDropNoCarrier:sum(packetBytes) 0
scalar BgpAndOspfv3.rB3.eth[1].queue queueLength:last 0
scalar BgpAndOspfv3.rB3.eth[1].queue queueLength:max 0
scalar BgpAndOspfv3.rB3.eth[1].queue queueLength:timeavg 0
scalar BgpAndOspfv3.rB3.eth[1].queue queueBitLength:last 0
scalar BgpAndOspfv3.rB3.eth[1].queue queueBitLength:max 0
scalar BgpAndOspfv3.rB3.eth[1].queue queueBitLength:timeavg 0
scalar BgpAndOspfv3.rB3.eth[1].queue outgoingPackets:count 12
scalar BgpAndOspfv3.rB3.eth[1].queue outgoingPacketLengths:sum 9152
scalar BgpAndOspfv3.rB3.eth[1].queue incomingPackets:count 12
scalar BgpAndOspfv3.rB3.eth[1].queue incomingPacketLengths:sum 9152
scalar BgpAndOspfv3.rB3.eth[1].queue droppedPacketsQueueOverflow:count 0
scalar BgpAndOspfv3.rB3.eth[1].queue droppedPacketLengthsQueueOverflow:sum 0
scalar BgpAndOspfv3.rB3.eth[1].mac "simulated time" 100
scalar BgpAndOspfv3.rB3.eth[1].mac full-duplex 1
scalar BgpAndOspfv3.rB3.eth[1].mac "frames/sec sent" 0.12
scalar BgpAndOspfv3.rB3.eth[1].mac "frames/sec rcvd" 0.02
scalar BgpAndOspfv3.rB3.eth[1].mac "bits/sec sent" 91.52
scalar BgpAndOspfv3.rB3.eth[1].mac "bits/sec rcvd" 12.48
scalar BgpAndOspfv3.rB3.eth[1].mac "rx channel idle (%)" 99.99998624
scalar BgpAndOspfv3.rB3.eth[1].mac "rx channel utilization (%)" 1.3759999999999999e-05
scalar BgpAndOspfv3.rB3.eth[1].mac rxPausePkUnits:count 0
scalar BgpAndOspfv3.rB3.eth[1].mac rxPausePkUnits:sum 0
scalar BgpAndOspfv3.rB3.eth[1].mac txPausePkUnits:count 0
scalar BgpAndOspfv3.rB3.eth[1].mac txPausePkUnits:sum 0
scalar BgpAndOspfv3.rB3.eth[1].mac rxPkOk:count 2
scalar BgpAndOspfv3.rB3.eth[1].mac rxPkOk:sum(packetBytes) 156
scalar BgpAndOspfv3.rB3.eth[1].mac txPk:count 12
scalar BgpAndOspfv3.rB3.eth[1].mac txPk:sum(packetBytes) 1144
scalar BgpAndOspfv3.rB3.eth[1].mac packetReceivedFromUpper:count 12
scalar BgpAndOspfv3.rB3.eth[1].mac packetReceivedFromUpper:sum(packetBytes) 1144
scalar BgpAndOspfv3.rB3.eth[1].mac passedUpPk:count 2
scalar BgpAndOspfv3.rB3.eth[1].mac passedUpPk:sum(packetBytes) 156
scalar BgpAndOspfv3.rB3.eth[1].mac packetDropIncorrectlyReceived:count 0
scalar BgpAndOspfv3.rB3.eth[1].mac packetDropIncorrectlyReceived:sum(packetBytes) 0
scalar BgpAndOspfv3.rB3.eth[1].mac packetDropInterfaceDown:count 0
scalar BgpAndOspfv3.rB3.eth[1].mac packetDropInterfaceDown:sum(packetBytes) 0
scalar BgpAndOspfv3.rB3.eth[1].mac packetDropNotAddressedToUs:count 0
scalar BgpAndOspfv3.rB3.eth[1].mac packetDropNotAddressedToUs:sum(packetBytes) 0
scalar BgpAndOspfv3.rB3.eth[1] packetDropInterfaceDown:count 0
scalar BgpAndOspfv3.rB3.eth[1] packetDropInterfaceDown:sum(packetBytes) 0
scalar BgpAndOspfv3.rB3.eth[1] packetDropNoCarrier:count 0
scalar BgpAndOspfv3.rB3.eth[1] packetDropNoCarrier:sum(packetBytes) 0
scalar BgpAndOspfv3.rB3.ipv6.neighbourDiscovery dadFailed:count 0
scalar BgpAndOspfv3.rB3.ipv6.neighbourDiscovery dadCompleted:count 2
scalar BgpAndOspfv3.rB3.ipv6.neighbourDiscovery startDad:count 2
scalar BgpAndOspfv3.hostA.ethernet pauseSent:count 0
scalar BgpAndOspfv3.hostA.ethernet pauseSent:sum 0
scalar BgpAndOspfv3.hostA.ethernet decapPk:count 61
scalar BgpAndOspfv3.hostA.ethernet decapPk:sum(packetBytes) 5888
scalar BgpAndOspfv3.hostA.ethernet encapPk:count 52
scalar BgpAndOspfv3.hostA.ethernet encapPk:sum(packetBytes) 5176
scalar BgpAndOspfv3.hostA.lo[0].lo rcvdPkFromHl:count 0
scalar BgpAndOspfv3.hostA.lo[0].lo rcvdPkFromHl:sum(packetBytes) 0
scalar BgpAndOspfv3.hostA.lo[0].lo passedUpPk:count 0
scalar BgpAndOspfv3.hostA.lo[0].lo passedUpPk:sum(packetBytes) 0
scalar BgpAndOspfv3.hostA.lo[0] packetDropInterfaceDown:count 0
scalar BgpAndOspfv3.hostA.lo[0] packetDropInterfaceDown:sum(packetBytes) 0
scalar BgpAndOspfv3.hostA.lo[0] packetDropNoCarrier:count 0
scalar BgpAndOspfv3.hostA.lo[0] packetDropNoCarrier:sum(packetBytes) 0
scalar BgpAndOspfv3.hostA.eth[0].queue queueLength:last 0
scalar BgpAndOspfv3.hostA.eth[0].queue queueLength:max 1
scalar BgpAndOspfv3.hostA.eth[0].queue queueLength:timeavg 1.632e-07
scalar BgpAndOspfv3.hostA.eth[0].queue queueBitLength:last 0
scalar BgpAndOspfv3.hostA.eth[0].queue queueBitLength:max 976
scalar BgpAndOspfv3.hostA.eth[0].queue queueBitLength:timeavg 0.00015928319999999999
scalar BgpAndOspfv3.hostA.eth[0].queue outgoingPackets:count 52
scalar BgpAndOspfv3.hostA.eth[0].queue outgoingPacketLengths:sum 48896
scalar BgpAndOspfv3.hostA.eth[0].queue incomingPackets:count 52
scalar BgpAndOspfv3.hostA.eth[0].queue incomingPacketLengths:sum 48896
scalar BgpAndOspfv3.hostA.eth[0].queue droppedPacketsQueueOverflow:count 0
scalar BgpAndOspfv3.hostA.eth[0].queue droppedPacketLengthsQueueOverflow:sum 0
scalar BgpAndOspfv3.hostA.eth[0].mac "simulated time" 100
scalar BgpAndOspfv3.hostA.eth[0].mac full-duplex 1
scalar BgpAndOspfv3.hostA.eth[0].mac "frames/sec sent" 0.51
scalar BgpAndOspfv3.hostA.eth[0].mac "frames/sec rcvd" 0.61
scalar BgpAndOspfv3.hostA.eth[0].mac "bits/sec sent" 479.2
scalar BgpAndOspfv3.hostA.eth[0].mac "bits/sec rcvd" 558.88
scalar BgpAndOspfv3.hostA.eth[0].mac "rx channel idle (%)" 99.99940208
scalar BgpAndOspfv3.hostA.eth[0].mac "rx channel utilization (%)" 0.00059792
scalar BgpAndOspfv3.hostA.eth[0].mac rxPausePkUnits:count 0
scalar BgpAndOspfv3.hostA.eth[0].mac rxPausePkUnits:sum 0
scalar BgpAndOspfv3.hostA.eth[0].mac txPausePkUnits:count 0
scalar BgpAndOspfv3.hostA.eth[0].mac txPausePkUnits:sum 0
scalar BgpAndOspfv3.hostA.eth[0].mac rxPkOk:count 61
scalar BgpAndOspfv3.hostA.eth[0].mac rxPkOk:sum(packetBytes) 6986
scalar BgpAndOspfv3.hostA.eth[0].mac txPk:count 51
scalar BgpAndOspfv3.hostA.eth[0].mac txPk:sum(packetBytes) 5990
scalar BgpAndOspfv3.hostA.eth[0].mac packetReceivedFromUpper:count 52
scalar BgpAndOspfv3.hostA.eth[0].mac packetReceivedFromUpper:sum(packetBytes) 6112
scalar BgpAndOspfv3.hostA.eth[0].mac passedUpPk:count 61
scalar BgpAndOspfv3.hostA.eth[0].mac passedUpPk:sum(packetBytes) 6986
scalar BgpAndOspfv3.hostA.eth[0].mac packetDropIncorrectlyReceived:count 0
scalar BgpAndOspfv3.hostA.eth[0].mac packetDropIncorrectlyReceived:sum(packetBytes) 0
scalar BgpAndOspfv3.hostA.eth[0].mac packetDropInterfaceDown:count 0
scalar BgpAndOspfv3.hostA.eth[0].mac packetDropInterfaceDown:sum(packetBytes) 0
scalar BgpAndOspfv3.hostA.eth[0].mac packetDropNotAddressedToUs:count 0
scalar BgpAndOspfv3.hostA.eth[0].mac packetDropNotAddressedToUs:sum(packetBytes) 0
scalar BgpAndOspfv3.hostA.eth[0] packetDropInterfaceDown:count 0
scalar BgpAndOspfv3.hostA.eth[0] packetDropInterfaceDown:sum(packetBytes) 0
scalar BgpAndOspfv3.hostA.eth[0] packetDropNoCarrier:count 0
scalar BgpAndOspfv3.hostA.eth[0] packetDropNoCarrier:sum(packetBytes) 0
scalar BgpAndOspfv3.hostA.ipv6.neighbourDiscovery dadFailed:count 0
scalar BgpAndOspfv3.hostA.ipv6.neighbourDiscovery dadCompleted:count 1
scalar BgpAndOspfv3.hostA.ipv6.neighbourDiscovery startDad:count 1
scalar BgpAndOspfv3.hostA.udp packetReceived:count 0
scalar BgpAndOspfv3.hostA.udp packetReceived:sum(packetBytes) 0
scalar BgpAndOspfv3.hostA.udp packetSent:count 0
scalar BgpAndOspfv3.hostA.udp packetSent:sum(packetBytes) 0
scalar BgpAndOspfv3.hostA.udp passedUpPk:count 0
scalar BgpAndOspfv3.hostA.udp droppedPkWrongPort:count 0
scalar BgpAndOspfv3.hostA.udp droppedPkBadChecksum:count 0
scalar BgpAndOspfv3.hostA.app[0] "Pings sent" 46
scalar BgpAndOspfv3.hostA.app[0] "ping loss rate (%)" 2.1739130434782608
scalar BgpAndOspfv3.hostA.app[0] "ping out-of-order rate (%)" 0
scalar BgpAndOspfv3.hostA.app[0] pingRxSeq:count 45
scalar BgpAndOspfv3.hostA.app[0] pingTxSeq:count 46
scalar BgpAndOspfv3.hostA.app[0] numOutOfOrderArrivals:last nan
scalar BgpAndOspfv3.hostA.app[0] numLost:last nan
scalar BgpAndOspfv3.hostB.ethernet pauseSent:count 0
scalar BgpAndOspfv3.hostB.ethernet pauseSent:sum 0
scalar BgpAndOspfv3.hostB.ethernet decapPk:count 12
scalar BgpAndOspfv3.hostB.ethernet decapPk:sum(packetBytes) 928
scalar BgpAndOspfv3.hostB.ethernet encapPk:count 2
scalar BgpAndOspfv3.hostB.ethernet encapPk:sum(packetBytes) 120
scalar BgpAndOspfv3.hostB.lo[0].lo rcvdPkFromHl:count 0
scalar BgpAndOspfv3.hostB.lo[0].lo rcvdPkFromHl:sum(packetBytes) 0
scalar BgpAndOspfv3.hostB.lo[0].lo passedUpPk:count 0
scalar BgpAndOspfv3.hostB.lo[0].lo passedUpPk:sum(packetBytes) 0
scalar BgpAndOspfv3.hostB.lo[0] packetDropInterfaceDown:count 0
scalar BgpAndOspfv3.hostB.lo[0] packetDropInterfaceDown:sum(packetBytes) 0
scalar BgpAndOspfv3.hostB.lo[0] packetDropNoCarrier:count 0
scalar BgpAndOspfv3.hostB.lo[0] packetDropNoCarrier:sum(packetBytes) 0
scalar BgpAndOspfv3.hostB.eth[0].queue queueLength:last 0
scalar BgpAndOspfv3.hostB.eth[0].queue queueLength:max 0
scalar BgpAndOspfv3.hostB.eth[0].queue queueLength:timeavg 0
scalar BgpAndOspfv3.hostB.eth[0].queue queueBitLength:last 0
scalar BgpAndOspfv3.hostB.eth[0].queue queueBitLength:max 0
scalar BgpAndOspfv3.hostB.eth[0].queue queueBitLength:timeavg 0
scalar BgpAndOspfv3.hostB.eth[0].queue outgoingPackets:count 2
scalar BgpAndOspfv3.hostB.eth[0].queue outgoingPacketLengths:sum 1248
scalar BgpAndOspfv3.hostB.eth[0].queue incomingPackets:count 2
scalar BgpAndOspfv3.hostB.eth[0].queue incomingPacketLengths:sum 1248
scalar BgpAndOspfv3.hostB.eth[0].queue droppedPacketsQueueOverflow:count 0
scalar BgpAndOspfv3.hostB.eth[0].queue droppedPacketLengthsQueueOverflow:sum 0
scalar BgpAndOspfv3.hostB.eth[0].mac "simulated time" 100
scalar BgpAndOspfv3.hostB.eth[0].mac full-duplex 1
scalar BgpAndOspfv3.hostB.eth[0].mac "frames/sec sent" 0.02
scalar BgpAndOspfv3.hostB.eth[0].mac "frames/sec rcvd" 0.12
scalar BgpAndOspfv3.hostB.eth[0].mac "bits/sec sent" 12.48
scalar BgpAndOspfv3.hostB.eth[0].mac "bits/sec rcvd" 91.52
scalar BgpAndOspfv3.hostB.eth[0].mac "rx channel idle (%)" 99.99990079999999
scalar BgpAndOspfv3.hostB.eth[0].mac "rx channel utilization (%)" 9.92e-05
scalar BgpAndOspfv3.hostB.eth[0].mac rxPausePkUnits:count 0
scalar BgpAndOspfv3.hostB.eth[0].mac rxPausePkUnits:sum 0
scalar BgpAndOspfv3.hostB.eth[0].mac txPausePkUnits:count 0
scalar BgpAndOspfv3.hostB.eth[0].mac txPausePkUnits:sum 0
scalar BgpAndOspfv3.hostB.eth[0].mac rxPkOk:count 12
scalar BgpAndOspfv3.hostB.eth[0].mac rxPkOk:sum(packetBytes) 1144
scalar BgpAndOspfv3.hostB.eth[0].mac txPk:count 2
scalar BgpAndOspfv3.hostB.eth[0].mac txPk:sum(packetBytes) 156
scalar BgpAndOspfv3.hostB.eth[0].mac packetReceivedFromUpper:count 2
scalar BgpAndOspfv3.hostB.eth[0].mac packetReceivedFromUpper:sum(packetBytes) 156
scalar BgpAndOspfv3.hostB.eth[0].mac passedUpPk:count 12
scalar BgpAndOspfv3.hostB.eth[0].mac passedUpPk:sum(packetBytes) 1144
scalar BgpAndOspfv3.hostB.eth[0].mac packetDropIncorrectlyReceived:count 0
scalar BgpAndOspfv3.hostB.eth[0].mac packetDropIncorrectlyReceived:sum(packetBytes) 0
scalar BgpAndOspfv3.hostB.eth[0].mac packetDropInterfaceDown:count 0
scalar BgpAndOspfv3.hostB.eth[0].mac packetDropInterfaceDown:sum(packetBytes) 0
scalar BgpAndOspfv3.hostB.eth[0].mac packetDropNotAddressedToUs:count 0
scalar BgpAndOspfv3.hostB.eth[0].mac packetDropNotAddressedToUs:sum(packetBytes) 0
scalar BgpAndOspfv3.hostB.eth[0] packetDropInterfaceDown:count 0
scalar BgpAndOspfv3.hostB.eth[0] packetDropInterfaceDown:sum(packetBytes) 0
scalar BgpAndOspfv3.hostB.eth[0] packetDropNoCarrier:count 0
scalar BgpAndOspfv3.hostB.eth[0] packetDropNoCarrier:sum(packetBytes) 0
scalar BgpAndOspfv3.hostB.ipv6.neighbourDiscovery dadFailed:count 0
scalar BgpAndOspfv3.hostB.ipv6.neighbourDiscovery dadCompleted:count 1
scalar BgpAndOspfv3.hostB.ipv6.neighbourDiscovery startDad:count 1
scalar BgpAndOspfv3.hostB.udp packetReceived:count 0
scalar BgpAndOspfv3.hostB.udp packetReceived:sum(packetBytes) 0
scalar BgpAndOspfv3.hostB.udp packetSent:count 0
scalar BgpAndOspfv3.hostB.udp packetSent:sum(packetBytes) 0
scalar BgpAndOspfv3.hostB.udp passedUpPk:count 0
scalar BgpAndOspfv3.hostB.udp droppedPkWrongPort:count 0
scalar BgpAndOspfv3.hostB.udp droppedPkBadChecksum:count 0
scalar BgpAndOspfv3.rA1.eth[0].queue queueingTime:histogram:count 61
scalar BgpAndOspfv3.rA1.eth[0].queue queueingTime:histogram:sumweights 61
scalar BgpAndOspfv3.rA1.eth[0].queue queueingTime:histogram:mean 0
scalar BgpAndOspfv3.rA1.eth[0].queue queueingTime:histogram:stddev 0
scalar BgpAndOspfv3.rA1.eth[0].queue queueingTime:histogram:min 0
scalar BgpAndOspfv3.rA1.eth[0].queue queueingTime:histogram:max 0
scalar BgpAndOspfv3.rA1.eth[0].queue queueingTime:histogram:numbins 50
scalar BgpAndOspfv3.rA1.eth[0].queue queueingTime:histogram:rangemin -0.5
scalar BgpAndOspfv3.rA1.eth[0].queue queueingTime:histogram:rangemax 0.5
scalar BgpAndOspfv3.rA1.eth[0].queue queueingTime:histogram:underflows 0
scalar BgpAndOspfv3.rA1.eth[0].queue queueingTime:histogram:overflows 0
scalar BgpAndOspfv3.rA1.eth[0].queue outgoingPacketLengths:histogram:count 61
scalar BgpAndOspfv3.rA1.eth[0].queue outgoingPacketLengths:histogram:sumweights 61
scalar BgpAndOspfv3.rA1.eth[0].queue outgoingPacketLengths:histogram:mean 916.1967213114754
scalar BgpAndOspfv3.rA1.eth[0].queue outgoingPacketLengths:histogram:stddev 106.8492426540205
scalar BgpAndOspfv3.rA1.eth[0].queue outgoingPacketLengths:histogram:min 656
scalar BgpAndOspfv3.rA1.eth[0].queue outgoingPacketLengths:histogram:max 976
scalar BgpAndOspfv3.rA1.eth[0].queue outgoingPacketLengths:histogram:numbins 49
scalar BgpAndOspfv3.rA1.eth[0].queue outgoingPacketLengths:histogram:rangemin 570
scalar BgpAndOspfv3.rA1.eth[0].queue outgoingPacketLengths:histogram:rangemax 1060
scalar BgpAndOspfv3.rA1.eth[0].queue outgoingPacketLengths:histogram:underflows 0
scalar BgpAndOspfv3.rA1.eth[0].queue outgoingPacketLengths:histogram:overflows 0
scalar BgpAndOspfv3.rA1.eth[0].queue flowQueueingTime:histogram:count 0
scalar BgpAndOspfv3.rA1.eth[0].queue flowQueueingTime:histogram:sumweights 0
scalar BgpAndOspfv3.rA1.eth[0].queue flowQueueingTime:histogram:mean nan
scalar BgpAndOspfv3.rA1.eth[0].queue flowQueueingTime:histogram:stddev nan
scalar BgpAndOspfv3.rA1.eth[0].queue flowQueueingTime:histogram:min nan
scalar BgpAndOspfv3.rA1.eth[0].queue flowQueueingTime:histogram:max nan
scalar BgpAndOspfv3.rA1.eth[0].queue flowQueueingTime:histogram:numbins 1
scalar BgpAndOspfv3.rA1.eth[0].queue flowQueueingTime:histogram:rangemin 0
scalar BgpAndOspfv3.rA1.eth[0].queue flowQueueingTime:histogram:rangemax 1
scalar BgpAndOspfv3.rA1.eth[0].queue flowQueueingTime:histogram:underflows 0
scalar BgpAndOspfv3.rA1.eth[0].queue flowQueueingTime:histogram:overflows 0
scalar BgpAndOspfv3.rA1.eth[0].queue incomingPacketLengths:histogram:count 61
scalar BgpAndOspfv3.rA1.eth[0].queue incomingPacketLengths:histogram:sumweights 61
scalar BgpAndOspfv3.rA1.eth[0].queue incomingPacketLengths:histogram:mean 916.1967213114754
scalar BgpAndOspfv3.rA1.eth[0].queue incomingPacketLengths:histogram:stddev 106.8492426540205
scalar BgpAndOspfv3.rA1.eth[0].queue incomingPacketLengths:histogram:min 656
scalar BgpAndOspfv3.rA1.eth[0].queue incomingPacketLengths:histogram:max 976
scalar BgpAndOspfv3.rA1.eth[0].queue incomingPacketLengths:histogram:numbins 49
scalar BgpAndOspfv3.rA1.eth[0].queue incomingPacketLengths:histogram:rangemin 570
scalar BgpAndOspfv3.rA1.eth[0].queue incomingPacketLengths:histogram:rangemax 1060
scalar BgpAndOspfv3.rA1.eth[0].queue incomingPacketLengths:histogram:underflows 0
scalar BgpAndOspfv3.rA1.eth[0].queue incomingPacketLengths:histogram:overflows 0
scalar BgpAndOspfv3.rA1.eth[0].mac throughput:histogram:count 1000
scalar BgpAndOspfv3.rA1.eth[0].mac throughput:histogram:sumweights 1000
scalar BgpAndOspfv3.rA1.eth[0].mac throughput:histogram:mean 597.92
scalar BgpAndOspfv3.rA1.eth[0].mac throughput:histogram:stddev 2682.26468071617
scalar BgpAndOspfv3.rA1.eth[0].mac throughput:histogram:min 0
scalar BgpAndOspfv3.rA1.eth[0].mac throughput:histogram:max 26400.000000000004
scalar BgpAndOspfv3.rA1.eth[0].mac throughput:histogram:numbins 45
scalar BgpAndOspfv3.rA1.eth[0].mac throughput:histogram:rangemin 0
scalar BgpAndOspfv3.rA1.eth[0].mac throughput:histogram:rangemax 27000
scalar BgpAndOspfv3.rA1.eth[0].mac throughput:histogram:underflows 0
scalar BgpAndOspfv3.rA1.eth[0].mac throughput:histogram:overflows 0
scalar BgpAndOspfv3.rA1.eth[0].mac utilization:histogram:count 1000
scalar BgpAndOspfv3.rA1.eth[0].mac utilization:histogram:sumweights 1000
scalar BgpAndOspfv3.rA1.eth[0].mac utilization:histogram:mean 0.00059792
scalar BgpAndOspfv3.rA1.eth[0].mac utilization:histogram:stddev 0.0026822646807161702
scalar BgpAndOspfv3.rA1.eth[0].mac utilization:histogram:min 0
scalar BgpAndOspfv3.rA1.eth[0].mac utilization:histogram:max 0.026400000000000003
scalar BgpAndOspfv3.rA1.eth[0].mac utilization:histogram:numbins 45
scalar BgpAndOspfv3.rA1.eth[0].mac utilization:histogram:rangemin 0
scalar BgpAndOspfv3.rA1.eth[0].mac utilization:histogram:rangemax 0.027000000000000003
scalar BgpAndOspfv3.rA1.eth[0].mac utilization:histogram:underflows 0
scalar BgpAndOspfv3.rA1.eth[0].mac utilization:histogram:overflows 0
scalar BgpAndOspfv3.rA1.eth[1].queue queueingTime:histogram:count 86
scalar BgpAndOspfv3.rA1.eth[1].queue queueingTime:histogram:sumweights 86
scalar BgpAndOspfv3.rA1.eth[1].queue queueingTime:histogram:mean 4.555813953488372e-06
scalar BgpAndOspfv3.rA1.eth[1].queue queueingTime:histogram:stddev 1.305347584678604e-05
scalar BgpAndOspfv3.rA1.eth[1].queue queueingTime:histogram:min 0
scalar BgpAndOspfv3.rA1.eth[1].queue queueingTime:histogram:max 7.328e-05
scalar BgpAndOspfv3.rA1.eth[1].queue queueingTime:histogram:numbins 46
scalar BgpAndOspfv3.rA1.eth[1].queue queueingTime:histogram:rangemin 0
scalar BgpAndOspfv3.rA1.eth[1].queue queueingTime:histogram:rangemax 9.200000000000001e-05
scalar BgpAndOspfv3.rA1.eth[1].queue queueingTime:histogram:underflows 0
scalar BgpAndOspfv3.rA1.eth[1].queue queueingTime:histogram:overflows 0
scalar BgpAndOspfv3.rA1.eth[1].queue outgoingPacketLengths:histogram:count 86
scalar BgpAndOspfv3.rA1.eth[1].queue outgoingPacketLengths:histogram:sumweights 86
scalar BgpAndOspfv3.rA1.eth[1].queue outgoingPacketLengths:histogram:mean 930.6046511627907
scalar BgpAndOspfv3.rA1.eth[1].queue outgoingPacketLengths:histogram:stddev 186.62048806695233
scalar BgpAndOspfv3.rA1.eth[1].queue outgoingPacketLengths:histogram:min 656
scalar BgpAndOspfv3.rA1.eth[1].queue outgoingPacketLengths:histogram:max 2000
scalar BgpAndOspfv3.rA1.eth[1].queue outgoingPacketLengths:histogram:numbins 101
scalar BgpAndOspfv3.rA1.eth[1].queue outgoingPacketLengths:histogram:rangemin 320
scalar BgpAndOspfv3.rA1.eth[1].queue outgoingPacketLengths:histogram:rangemax 2340
scalar BgpAndOspfv3.rA1.eth[1].queue outgoingPacketLengths:histogram:underflows 0
scalar BgpAndOspfv3.rA1.eth[1].queue outgoingPacketLengths:histogram:overflows 0
scalar BgpAndOspfv3.rA1.eth[1].queue flowQueueingTime:histogram:count 0
scalar BgpAndOspfv3.rA1.eth[1].queue flowQueueingTime:histogram:sumweights 0
scalar BgpAndOspfv3.rA1.eth[1].queue flowQueueingTime:histogram:mean nan
scalar BgpAndOspfv3.rA1.eth[1].queue flowQueueingTime:histogram:stddev nan
scalar BgpAndOspfv3.rA1.eth[1].queue flowQueueingTime:histogram:min nan
scalar BgpAndOspfv3.rA1.eth[1].queue flowQueueingTime:histogram:max nan
scalar BgpAndOspfv3.rA1.eth[1].queue flowQueueingTime:histogram:numbins 1
scalar BgpAndOspfv3.rA1.eth[1].queue flowQueueingTime:histogram:rangemin 0
scalar BgpAndOspfv3.rA1.eth[1].queue flowQueueingTime:histogram:rangemax 1
scalar BgpAndOspfv3.rA1.eth[1].queue flowQueueingTime:histogram:underflows 0
scalar BgpAndOspfv3.rA1.eth[1].queue flowQueueingTime:histogram:overflows 0
scalar BgpAndOspfv3.rA1.eth[1].queue incomingPacketLengths:histogram:count 86
scalar BgpAndOspfv3.rA1.eth[1].queue incomingPacketLengths:histogram:sumweights 86
scalar BgpAndOspfv3.rA1.eth[1].queue incomingPacketLengths:histogram:mean 930.6046511627907
scalar BgpAndOspfv3.rA1.eth[1].queue incomingPacketLengths:histogram:stddev 186.62048806695233
scalar BgpAndOspfv3.rA1.eth[1].queue incomingPacketLengths:histogram:min 656
scalar BgpAndOspfv3.rA1.eth[1].queue incomingPacketLengths:histogram:max 2000
scalar BgpAndOspfv3.rA1.eth[1].queue incomingPacketLengths:histogram:numbins 101
scalar BgpAndOspfv3.rA1.eth[1].queue incomingPacketLengths:histogram:rangemin 320
scalar BgpAndOspfv3.rA1.eth[1].queue incomingPacketLengths:histogram:rangemax 2340
scalar BgpAndOspfv3.rA1.eth[1].queue incomingPacketLengths:histogram:underflows 0
scalar BgpAndOspfv3.rA1.eth[1].queue incomingPacketLengths:histogram:overflows 0
scalar BgpAndOspfv3.rA1.eth[1].mac throughput:histogram:count 1000
scalar BgpAndOspfv3.rA1.eth[1].mac throughput:histogram:sumweights 1000
scalar BgpAndOspfv3.rA1.eth[1].mac throughput:histogram:mean 855.36
scalar BgpAndOspfv3.rA1.eth[1].mac throughput:histogram:stddev 4814.595850494993
scalar BgpAndOspfv3.rA1.eth[1].mac throughput:histogram:min 0
scalar BgpAndOspfv3.rA1.eth[1].mac throughput:histogram:max 76000
scalar BgpAndOspfv3.rA1.eth[1].mac throughput:histogram:numbins 55
scalar BgpAndOspfv3.rA1.eth[1].mac throughput:histogram:rangemin 0
scalar BgpAndOspfv3.rA1.eth[1].mac throughput:histogram:rangemax 77000
scalar BgpAndOspfv3.rA1.eth[1].mac throughput:histogram:underflows 0
scalar BgpAndOspfv3.rA1.eth[1].mac throughput:histogram:overflows 0
scalar BgpAndOspfv3.rA1.eth[1].mac utilization:histogram:count 1000
scalar BgpAndOspfv3.rA1.eth[1].mac utilization:histogram:sumweights 1000
scalar BgpAndOspfv3.rA1.eth[1].mac utilization:histogram:mean 0.0008553600000000001
scalar BgpAndOspfv3.rA1.eth[1].mac utilization:histogram:stddev 0.0048145958504949935
scalar BgpAndOspfv3.rA1.eth[1].mac utilization:histogram:min 0
scalar BgpAndOspfv3.rA1.eth[1].mac utilization:histogram:max 0.07600000000000001
scalar BgpAndOspfv3.rA1.eth[1].mac utilization:histogram:numbins 55
scalar BgpAndOspfv3.rA1.eth[1].mac utilization:histogram:rangemin 0
scalar BgpAndOspfv3.rA1.eth[1].mac utilization:histogram:rangemax 0.077
scalar BgpAndOspfv3.rA1.eth[1].mac utilization:histogram:underflows 0
scalar BgpAndOspfv3.rA1.eth[1].mac utilization:histogram:overflows 0
scalar BgpAndOspfv3.rA2.eth[0].queue queueingTime:histogram:count 93
scalar BgpAndOspfv3.rA2.eth[0].queue queueingTime:histogram:sumweights 93
scalar BgpAndOspfv3.rA2.eth[0].queue queueingTime:histogram:mean 1.2410645161290322e-05
scalar BgpAndOspfv3.rA2.eth[0].queue queueingTime:histogram:stddev 2.8338572913903657e-05
scalar BgpAndOspfv3.rA2.eth[0].queue queueingTime:histogram:min 0
scalar BgpAndOspfv3.rA2.eth[0].queue queueingTime:histogram:max 0.00010571
scalar BgpAndOspfv3.rA2.eth[0].queue queueingTime:histogram:numbins 67
scalar BgpAndOspfv3.rA2.eth[0].queue queueingTime:histogram:rangemin 0
scalar BgpAndOspfv3.rA2.eth[0].queue queueingTime:histogram:rangemax 0.00013400000000000003
scalar BgpAndOspfv3.rA2.eth[0].queue queueingTime:histogram:underflows 0
scalar BgpAndOspfv3.rA2.eth[0].queue queueingTime:histogram:overflows 0
scalar BgpAndOspfv3.rA2.eth[0].queue outgoingPacketLengths:histogram:count 93
scalar BgpAndOspfv3.rA2.eth[0].queue outgoingPacketLengths:histogram:sumweights 93
scalar BgpAndOspfv3.rA2.eth[0].queue outgoingPacketLengths:histogram:mean 958.1075268817204
scalar BgpAndOspfv3.rA2.eth[0].queue outgoingPacketLengths:histogram:stddev 268.6219851780399
scalar BgpAndOspfv3.rA2.eth[0].queue outgoingPacketLengths:histogram:min 656
scalar BgpAndOspfv3.rA2.eth[0].queue outgoingPacketLengths:histogram:max 2928
scalar BgpAndOspfv3.rA2.eth[0].queue outgoingPacketLengths:histogram:numbins 69
scalar BgpAndOspfv3.rA2.eth[0].queue outgoingPacketLengths:histogram:rangemin 50
scalar BgpAndOspfv3.rA2.eth[0].queue outgoingPacketLengths:histogram:rangemax 3500
scalar BgpAndOspfv3.rA2.eth[0].queue outgoingPacketLengths:histogram:underflows 0
scalar BgpAndOspfv3.rA2.eth[0].queue outgoingPacketLengths:histogram:overflows 0
scalar BgpAndOspfv3.rA2.eth[0].queue flowQueueingTime:histogram:count 0
scalar BgpAndOspfv3.rA2.eth[0].queue flowQueueingTime:histogram:sumweights 0
scalar BgpAndOspfv3.rA2.eth[0].queue flowQueueingTime:histogram:mean nan
scalar BgpAndOspfv3.rA2.eth[0].queue flowQueueingTime:histogram:stddev nan
scalar BgpAndOspfv3.rA2.eth[0].queue flowQueueingTime:histogram:min nan
scalar BgpAndOspfv3.rA2.eth[0].queue flowQueueingTime:histogram:max nan
scalar BgpAndOspfv3.rA2.eth[0].queue flowQueueingTime:histogram:numbins 1
scalar BgpAndOspfv3.rA2.eth[0].queue flowQueueingTime:histogram:rangemin 0
scalar BgpAndOspfv3.rA2.eth[0].queue flowQueueingTime:histogram:rangemax 1
scalar BgpAndOspfv3.rA2.eth[0].queue flowQueueingTime:histogram:underflows 0
scalar BgpAndOspfv3.rA2.eth[0].queue flowQueueingTime:histogram:overflows 0
scalar BgpAndOspfv3.rA2.eth[0].queue incomingPacketLengths:histogram:count 93
scalar BgpAndOspfv3.rA2.eth[0].queue incomingPacketLengths:histogram:sumweights 93
scalar BgpAndOspfv3.rA2.eth[0].queue incomingPacketLengths:histogram:mean 958.1075268817204
scalar BgpAndOspfv3.rA2.eth[0].queue incomingPacketLengths:histogram:stddev 268.6219851780399
scalar BgpAndOspfv3.rA2.eth[0].queue incomingPacketLengths:histogram:min 656
scalar BgpAndOspfv3.rA2.eth[0].queue incomingPacketLengths:histogram:max 2928
scalar BgpAndOspfv3.rA2.eth[0].queue incomingPacketLengths:histogram:numbins 69
scalar BgpAndOspfv3.rA2.eth[0].queue incomingPacketLengths:histogram:rangemin 50
scalar BgpAndOspfv3.rA2.eth[0].queue incomingPacketLengths:histogram:rangemax 3500
scalar BgpAndOspfv3.rA2.eth[0].queue incomingPacketLengths:histogram:underflows 0
scalar BgpAndOspfv3.rA2.eth[0].queue incomingPacketLengths:histogram:overflows 0
scalar BgpAndOspfv3.rA2.eth[0].mac throughput:histogram:count 1000
scalar BgpAndOspfv3.rA2.eth[0].mac throughput:histogram:sumweights 1000
scalar BgpAndOspfv3.rA2.eth[0].mac throughput:histogram:mean 950.56
scalar BgpAndOspfv3.rA2.eth[0].mac throughput:histogram:stddev 6842.0875358510475
scalar BgpAndOspfv3.rA2.eth[0].mac throughput:histogram:min 0
scalar BgpAndOspfv3.rA2.eth[0].mac throughput:histogram:max 155360
scalar BgpAndOspfv3.rA2.eth[0].mac throughput:histogram:numbins 87
scalar BgpAndOspfv3.rA2.eth[0].mac throughput:histogram:rangemin 0
scalar BgpAndOspfv3.rA2.eth[0].mac throughput:histogram:rangemax 156600
scalar BgpAndOspfv3.rA2.eth[0].mac throughput:histogram:underflows 0
scalar BgpAndOspfv3.rA2.eth[0].mac throughput:histogram:overflows 0
scalar BgpAndOspfv3.rA2.eth[0].mac utilization:histogram:count 1000
scalar BgpAndOspfv3.rA2.eth[0].mac utilization:histogram:sumweights 1000
scalar BgpAndOspfv3.rA2.eth[0].mac utilization:histogram:mean 0.00095056
scalar BgpAndOspfv3.rA2.eth[0].mac utilization:histogram:stddev 0.006842087535851045
scalar BgpAndOspfv3.rA2.eth[0].mac utilization:histogram:min 0
scalar BgpAndOspfv3.rA2.eth[0].mac utilization:histogram:max 0.15535999999999997
scalar BgpAndOspfv3.rA2.eth[0].mac utilization:histogram:numbins 87
scalar BgpAndOspfv3.rA2.eth[0].mac utilization:histogram:rangemin 0
scalar BgpAndOspfv3.rA2.eth[0].mac utilization:histogram:rangemax 0.15660000000000002
scalar BgpAndOspfv3.rA2.eth[0].mac utilization:histogram:underflows 0
scalar BgpAndOspfv3.rA2.eth[0].mac utilization:histogram:overflows 0
scalar BgpAndOspfv3.rA2.eth[1].queue queueingTime:histogram:count 90
scalar BgpAndOspfv3.rA2.eth[1].queue queueingTime:histogram:sumweights 90
scalar BgpAndOspfv3.rA2.eth[1].queue queueingTime:histogram:mean 8.50011111111111e-06
scalar BgpAndOspfv3.rA2.eth[1].queue queueingTime:histogram:stddev 2.1230589680688636e-05
scalar BgpAndOspfv3.rA2.eth[1].queue queueingTime:histogram:min 0
scalar BgpAndOspfv3.rA2.eth[1].queue queueingTime:histogram:max 9.659e-05
scalar BgpAndOspfv3.rA2.eth[1].queue queueingTime:histogram:numbins 61
scalar BgpAndOspfv3.rA2.eth[1].queue queueingTime:histogram:rangemin 0
scalar BgpAndOspfv3.rA2.eth[1].queue queueingTime:histogram:rangemax 0.00012200000000000002
scalar BgpAndOspfv3.rA2.eth[1].queue queueingTime:histogram:underflows 0
scalar BgpAndOspfv3.rA2.eth[1].queue queueingTime:histogram:overflows 0
scalar BgpAndOspfv3.rA2.eth[1].queue outgoingPacketLengths:histogram:count 90
scalar BgpAndOspfv3.rA2.eth[1].queue outgoingPacketLengths:histogram:sumweights 90
scalar BgpAndOspfv3.rA2.eth[1].queue outgoingPacketLengths:histogram:mean 963.9111111111112
scalar BgpAndOspfv3.rA2.eth[1].queue outgoingPacketLengths:histogram:stddev 275.13133307014266
scalar BgpAndOspfv3.rA2.eth[1].queue outgoingPacketLengths:histogram:min 656
scalar BgpAndOspfv3.rA2.eth[1].queue outgoingPacketLengths:histogram:max 2864
scalar BgpAndOspfv3.rA2.eth[1].queue outgoingPacketLengths:histogram:numbins 67
scalar BgpAndOspfv3.rA2.eth[1].queue outgoingPacketLengths:histogram:rangemin 100
scalar BgpAndOspfv3.rA2.eth[1].queue outgoingPacketLengths:histogram:rangemax 3450
scalar BgpAndOspfv3.rA2.eth[1].queue outgoingPacketLengths:histogram:underflows 0
scalar BgpAndOspfv3.rA2.eth[1].queue outgoingPacketLengths:histogram:overflows 0
scalar BgpAndOspfv3.rA2.eth[1].queue flowQueueingTime:histogram:count 0
scalar BgpAndOspfv3.rA2.eth[1].queue flowQueueingTime:histogram:sumweights 0
scalar BgpAndOspfv3.rA2.eth[1].queue flowQueueingTime:histogram:mean nan
scalar BgpAndOspfv3.rA2.eth[1].queue flowQueueingTime:histogram:stddev nan
scalar BgpAndOspfv3.rA2.eth[1].queue flowQueueingTime:histogram:min nan
scalar BgpAndOspfv3.rA2.eth[1].queue flowQueueingTime:histogram:max nan
scalar BgpAndOspfv3.rA2.eth[1].queue flowQueueingTime:histogram:numbins 1
scalar BgpAndOspfv3.rA2.eth[1].queue flowQueueingTime:histogram:rangemin 0
scalar BgpAndOspfv3.rA2.eth[1].queue flowQueueingTime:histogram:rangemax 1
scalar BgpAndOspfv3.rA2.eth[1].queue flowQueueingTime:histogram:underflows 0
scalar BgpAndOspfv3.rA2.eth[1].queue flowQueueingTime:histogram:overflows 0
scalar BgpAndOspfv3.rA2.eth[1].queue incomingPacketLengths:histogram:count 90
scalar BgpAndOspfv3.rA2.eth[1].queue incomingPacketLengths:histogram:sumweights 90
scalar BgpAndOspfv3.rA2.eth[1].queue incomingPacketLengths:histogram:mean 963.9111111111112
scalar BgpAndOspfv3.rA2.eth[1].queue incomingPacketLengths:histogram:stddev 275.13133307014266
scalar BgpAndOspfv3.rA2.eth[1].queue incomingPacketLengths:histogram:min 656
scalar BgpAndOspfv3.rA2.eth[1].queue incomingPacketLengths:histogram:max 2864
scalar BgpAndOspfv3.rA2.eth[1].queue incomingPacketLengths:histogram:numbins 67
scalar BgpAndOspfv3.rA2.eth[1].queue incomingPacketLengths:histogram:rangemin 100
scalar BgpAndOspfv3.rA2.eth[1].queue incomingPacketLengths:histogram:rangemax 3450
scalar BgpAndOspfv3.rA2.eth[1].queue incomingPacketLengths:histogram:underflows 0
scalar BgpAndOspfv3.rA2.eth[1].queue incomingPacketLengths:histogram:overflows 0
scalar BgpAndOspfv3.rA2.eth[1].mac throughput:histogram:count 1000
scalar BgpAndOspfv3.rA2.eth[1].mac throughput:histogram:sumweights 1000
scalar BgpAndOspfv3.rA2.eth[1].mac throughput:histogram:mean 925.12
scalar BgpAndOspfv3.rA2.eth[1].mac throughput:histogram:stddev 6112.636657982586
scalar BgpAndOspfv3.rA2.eth[1].mac throughput:histogram:min 0
scalar BgpAndOspfv3.rA2.eth[1].mac throughput:histogram:max 118880.00000000001
scalar BgpAndOspfv3.rA2.eth[1].mac throughput:histogram:numbins 67
scalar BgpAndOspfv3.rA2.eth[1].mac throughput:histogram:rangemin 0
scalar BgpAndOspfv3.rA2.eth[1].mac throughput:histogram:rangemax 120600
scalar BgpAndOspfv3.rA2.eth[1].mac throughput:histogram:underflows 0
scalar BgpAndOspfv3.rA2.eth[1].mac throughput:histogram:overflows 0
scalar BgpAndOspfv3.rA2.eth[1].mac utilization:histogram:count 1000
scalar BgpAndOspfv3.rA2.eth[1].mac utilization:histogram:sumweights 1000
scalar BgpAndOspfv3.rA2.eth[1].mac utilization:histogram:mean 0.0009251200000000001
scalar BgpAndOspfv3.rA2.eth[1].mac utilization:histogram:stddev 0.006112636657982585
scalar BgpAndOspfv3.rA2.eth[1].mac utilization:histogram:min 0
scalar BgpAndOspfv3.rA2.eth[1].mac utilization:histogram:max 0.11888
scalar BgpAndOspfv3.rA2.eth[1].mac utilization:histogram:numbins 67
scalar BgpAndOspfv3.rA2.eth[1].mac utilization:histogram:rangemin 0
scalar BgpAndOspfv3.rA2.eth[1].mac utilization:histogram:rangemax 0.1206
scalar BgpAndOspfv3.rA2.eth[1].mac utilization:histogram:underflows 0
scalar BgpAndOspfv3.rA2.eth[1].mac utilization:histogram:overflows 0
scalar BgpAndOspfv3.rA3.eth[0].queue queueingTime:histogram:count 84
scalar BgpAndOspfv3.rA3.eth[0].queue queueingTime:histogram:sumweights 84
scalar BgpAndOspfv3.rA3.eth[0].queue queueingTime:histogram:mean 3.2928571428571427e-06
scalar BgpAndOspfv3.rA3.eth[0].queue queueingTime:histogram:stddev 1.025603936934775e-05
scalar BgpAndOspfv3.rA3.eth[0].queue queueingTime:histogram:min 0
scalar BgpAndOspfv3.rA3.eth[0].queue queueingTime:histogram:max 5.712e-05
scalar BgpAndOspfv3.rA3.eth[0].queue queueingTime:histogram:numbins 72
scalar BgpAndOspfv3.rA3.eth[0].queue queueingTime:histogram:rangemin 0
scalar BgpAndOspfv3.rA3.eth[0].queue queueingTime:histogram:rangemax 7.200000000000002e-05
scalar BgpAndOspfv3.rA3.eth[0].queue queueingTime:histogram:underflows 0
scalar BgpAndOspfv3.rA3.eth[0].queue queueingTime:histogram:overflows 0
scalar BgpAndOspfv3.rA3.eth[0].queue outgoingPacketLengths:histogram:count 84
scalar BgpAndOspfv3.rA3.eth[0].queue outgoingPacketLengths:histogram:sumweights 84
scalar BgpAndOspfv3.rA3.eth[0].queue outgoingPacketLengths:histogram:mean 925.3333333333334
scalar BgpAndOspfv3.rA3.eth[0].queue outgoingPacketLengths:histogram:stddev 169.12455902636796
scalar BgpAndOspfv3.rA3.eth[0].queue outgoingPacketLengths:histogram:min 656
scalar BgpAndOspfv3.rA3.eth[0].queue outgoingPacketLengths:histogram:max 1808
scalar BgpAndOspfv3.rA3.eth[0].queue outgoingPacketLengths:histogram:numbins 87
scalar BgpAndOspfv3.rA3.eth[0].queue outgoingPacketLengths:histogram:rangemin 360
scalar BgpAndOspfv3.rA3.eth[0].queue outgoingPacketLengths:histogram:rangemax 2100
scalar BgpAndOspfv3.rA3.eth[0].queue outgoingPacketLengths:histogram:underflows 0
scalar BgpAndOspfv3.rA3.eth[0].queue outgoingPacketLengths:histogram:overflows 0
scalar BgpAndOspfv3.rA3.eth[0].queue flowQueueingTime:histogram:count 0
scalar BgpAndOspfv3.rA3.eth[0].queue flowQueueingTime:histogram:sumweights 0
scalar BgpAndOspfv3.rA3.eth[0].queue flowQueueingTime:histogram:mean nan
scalar BgpAndOspfv3.rA3.eth[0].queue flowQueueingTime:histogram:stddev nan
scalar BgpAndOspfv3.rA3.eth[0].queue flowQueueingTime:histogram:min nan
scalar BgpAndOspfv3.rA3.eth[0].queue flowQueueingTime:histogram:max nan
scalar BgpAndOspfv3.rA3.eth[0].queue flowQueueingTime:histogram:numbins 1
scalar BgpAndOspfv3.rA3.eth[0].queue flowQueueingTime:histogram:rangemin 0
scalar BgpAndOspfv3.rA3.eth[0].queue flowQueueingTime:histogram:rangemax 1
scalar BgpAndOspfv3.rA3.eth[0].queue flowQueueingTime:histogram:underflows 0
scalar BgpAndOspfv3.rA3.eth[0].queue flowQueueingTime:histogram:overflows 0
scalar BgpAndOspfv3.rA3.eth[0].queue incomingPacketLengths:histogram:count 84
scalar BgpAndOspfv3.rA3.eth[0].queue incomingPacketLengths:histogram:sumweights 84
scalar BgpAndOspfv3.rA3.eth[0].queue incomingPacketLengths:histogram:mean 925.3333333333334
scalar BgpAndOspfv3.rA3.eth[0].queue incomingPacketLengths:histogram:stddev 169.12455902636796
scalar BgpAndOspfv3.rA3.eth[0].queue incomingPacketLengths:histogram:min 656
scalar BgpAndOspfv3.rA3.eth[0].queue incomingPacketLengths:histogram:max 1808
scalar BgpAndOspfv3.rA3.eth[0].queue incomingPacketLengths:histogram:numbins 87
scalar BgpAndOspfv3.rA3.eth[0].queue incomingPacketLengths:histogram:rangemin 360
scalar BgpAndOspfv3.rA3.eth[0].queue incomingPacketLengths:histogram:rangemax 2100
scalar BgpAndOspfv3.rA3.eth[0].queue incomingPacketLengths:histogram:underflows 0
scalar BgpAndOspfv3.rA3.eth[0].queue incomingPacketLengths:histogram:overflows 0
scalar BgpAndOspfv3.rA3.eth[0].mac throughput:histogram:count 1000
scalar BgpAndOspfv3.rA3.eth[0].mac throughput:histogram:sumweights 1000
scalar BgpAndOspfv3.rA3.eth[0].mac throughput:histogram:mean 831.04
scalar BgpAndOspfv3.rA3.eth[0].mac throughput:histogram:stddev 4566.094977301912
scalar BgpAndOspfv3.rA3.eth[0].mac throughput:histogram:min 0
scalar BgpAndOspfv3.rA3.eth[0].mac throughput:histogram:max 72800
scalar BgpAndOspfv3.rA3.eth[0].mac throughput:histogram:numbins 53
scalar BgpAndOspfv3.rA3.eth[0].mac throughput:histogram:rangemin 0
scalar BgpAndOspfv3.rA3.eth[0].mac throughput:histogram:rangemax 74200
scalar BgpAndOspfv3.rA3.eth[0].mac throughput:histogram:underflows 0
scalar BgpAndOspfv3.rA3.eth[0].mac throughput:histogram:overflows 0
scalar BgpAndOspfv3.rA3.eth[0].mac utilization:histogram:count 1000
scalar BgpAndOspfv3.rA3.eth[0].mac utilization:histogram:sumweights 1000
scalar BgpAndOspfv3.rA3.eth[0].mac utilization:histogram:mean 0.0008310400000000001
scalar BgpAndOspfv3.rA3.eth[0].mac utilization:histogram:stddev 0.004566094977301912
scalar BgpAndOspfv3.rA3.eth[0].mac utilization:histogram:min 0
scalar BgpAndOspfv3.rA3.eth[0].mac utilization:histogram:max 0.0728
scalar BgpAndOspfv3.rA3.eth[0].mac utilization:histogram:numbins 53
scalar BgpAndOspfv3.rA3.eth[0].mac utilization:histogram:rangemin 0
scalar BgpAndOspfv3.rA3.eth[0].mac utilization:histogram:rangemax 0.07420000000000002
scalar BgpAndOspfv3.rA3.eth[0].mac utilization:histogram:underflows 0
scalar BgpAndOspfv3.rA3.eth[0].mac utilization:histogram:overflows 0
scalar BgpAndOspfv3.rA3.eth[1].queue queueingTime:histogram:count 1
scalar BgpAndOspfv3.rA3.eth[1].queue queueingTime:histogram:sumweights 1
scalar BgpAndOspfv3.rA3.eth[1].queue queueingTime:histogram:mean 0
scalar BgpAndOspfv3.rA3.eth[1].queue queueingTime:histogram:stddev nan
scalar BgpAndOspfv3.rA3.eth[1].queue queueingTime:histogram:min 0
scalar BgpAndOspfv3.rA3.eth[1].queue queueingTime:histogram:max 0
scalar BgpAndOspfv3.rA3.eth[1].queue queueingTime:histogram:numbins 50
scalar BgpAndOspfv3.rA3.eth[1].queue queueingTime:histogram:rangemin -0.5
scalar BgpAndOspfv3.rA3.eth[1].queue queueingTime:histogram:rangemax 0.5
scalar BgpAndOspfv3.rA3.eth[1].queue queueingTime:histogram:underflows 0
scalar BgpAndOspfv3.rA3.eth[1].queue queueingTime:histogram:overflows 0
scalar BgpAndOspfv3.rA3.eth[1].queue outgoingPacketLengths:histogram:count 1
scalar BgpAndOspfv3.rA3.eth[1].queue outgoingPacketLengths:histogram:sumweights 1
scalar BgpAndOspfv3.rA3.eth[1].queue outgoingPacketLengths:histogram:mean 656
scalar BgpAndOspfv3.rA3.eth[1].queue outgoingPacketLengths:histogram:stddev nan
scalar BgpAndOspfv3.rA3.eth[1].queue outgoingPacketLengths:histogram:min 656
scalar BgpAndOspfv3.rA3.eth[1].queue outgoingPacketLengths:histogram:max 656
scalar BgpAndOspfv3.rA3.eth[1].queue outgoingPacketLengths:histogram:numbins 2
scalar BgpAndOspfv3.rA3.eth[1].queue outgoingPacketLengths:histogram:rangemin 655
scalar BgpAndOspfv3.rA3.eth[1].queue outgoingPacketLengths:histogram:rangemax 657
scalar BgpAndOspfv3.rA3.eth[1].queue outgoingPacketLengths:histogram:underflows 0
scalar BgpAndOspfv3.rA3.eth[1].queue outgoingPacketLengths:histogram:overflows 0
scalar BgpAndOspfv3.rA3.eth[1].queue flowQueueingTime:histogram:count 0
scalar BgpAndOspfv3.rA3.eth[1].queue flowQueueingTime:histogram:sumweights 0
scalar BgpAndOspfv3.rA3.eth[1].queue flowQueueingTime:histogram:mean nan
scalar BgpAndOspfv3.rA3.eth[1].queue flowQueueingTime:histogram:stddev nan
scalar BgpAndOspfv3.rA3.eth[1].queue flowQueueingTime:histogram:min nan
scalar BgpAndOspfv3.rA3.eth[1].queue flowQueueingTime:histogram:max nan
scalar BgpAndOspfv3.rA3.eth[1].queue flowQueueingTime:histogram:numbins 1
scalar BgpAndOspfv3.rA3.eth[1].queue flowQueueingTime:histogram:rangemin 0
scalar BgpAndOspfv3.rA3.eth[1].queue flowQueueingTime:histogram:rangemax 1
scalar BgpAndOspfv3.rA3.eth[1].queue flowQueueingTime:histogram:underflows 0
scalar BgpAndOspfv3.rA3.eth[1].queue flowQueueingTime:histogram:overflows 0
scalar BgpAndOspfv3.rA3.eth[1].queue incomingPacketLengths:histogram:count 1
scalar BgpAndOspfv3.rA3.eth[1].queue incomingPacketLengths:histogram:sumweights 1
scalar BgpAndOspfv3.rA3.eth[1].queue incomingPacketLengths:histogram:mean 656
scalar BgpAndOspfv3.rA3.eth[1].queue incomingPacketLengths:histogram:stddev nan
scalar BgpAndOspfv3.rA3.eth[1].queue incomingPacketLengths:histogram:min 656
scalar BgpAndOspfv3.rA3.eth[1].queue incomingPacketLengths:histogram:max 656
scalar BgpAndOspfv3.rA3.eth[1].queue incomingPacketLengths:histogram:numbins 2
scalar BgpAndOspfv3.rA3.eth[1].queue incomingPacketLengths:histogram:rangemin 655
scalar BgpAndOspfv3.rA3.eth[1].queue incomingPacketLengths:histogram:rangemax 657
scalar BgpAndOspfv3.rA3.eth[1].queue incomingPacketLengths:histogram:underflows 0
scalar BgpAndOspfv3.rA3.eth[1].queue incomingPacketLengths:histogram:overflows 0
scalar BgpAndOspfv3.rA3.eth[1].mac throughput:histogram:count 1000
scalar BgpAndOspfv3.rA3.eth[1].mac throughput:histogram:sumweights 1000
scalar BgpAndOspfv3.rA3.eth[1].mac throughput:histogram:mean 7.200000000000001
scalar BgpAndOspfv3.rA3.eth[1].mac throughput:histogram:stddev 227.68399153212334
scalar BgpAndOspfv3.rA3.eth[1].mac throughput:histogram:min 0
scalar BgpAndOspfv3.rA3.eth[1].mac throughput:histogram:max 7200.000000000001
scalar BgpAndOspfv3.rA3.eth[1].mac throughput:histogram:numbins 46
scalar BgpAndOspfv3.rA3.eth[1].mac throughput:histogram:rangemin 0
scalar BgpAndOspfv3.rA3.eth[1].mac throughput:histogram:rangemax 9200
scalar BgpAndOspfv3.rA3.eth[1].mac throughput:histogram:underflows 0
[...]
scalar BgpAndOspfv3.hostB.eth[0].queue outgoingPacketLengths:vector:starttime 0.6841648240110001
scalar BgpAndOspfv3.hostB.eth[0].queue outgoingPacketLengths:vector:endtime 3.1506820708050007
scalar BgpAndOspfv3.hostB.eth[0].queue outgoingDataRate:vector:count 1000
scalar BgpAndOspfv3.hostB.eth[0].queue outgoingDataRate:vector:sum 12480.000000000002
scalar BgpAndOspfv3.hostB.eth[0].queue outgoingDataRate:vector:sumweights 1000
scalar BgpAndOspfv3.hostB.eth[0].queue outgoingDataRate:vector:mean 12.480000000000002
scalar BgpAndOspfv3.hostB.eth[0].queue outgoingDataRate:vector:stddev 279.2888323077954
scalar BgpAndOspfv3.hostB.eth[0].queue outgoingDataRate:vector:min 0
scalar BgpAndOspfv3.hostB.eth[0].queue outgoingDataRate:vector:max 6560.000000000001
scalar BgpAndOspfv3.hostB.eth[0].queue outgoingDataRate:vector:starttime 0.1
scalar BgpAndOspfv3.hostB.eth[0].queue outgoingDataRate:vector:endtime 100
scalar BgpAndOspfv3.hostB.eth[0].queue droppedPacketLengthsQueueOverflow:vector:count 0
scalar BgpAndOspfv3.hostB.eth[0].queue droppedPacketLengthsQueueOverflow:vector:sum 0
scalar BgpAndOspfv3.hostB.eth[0].queue droppedPacketLengthsQueueOverflow:vector:sumweights 0
scalar BgpAndOspfv3.hostB.eth[0].queue droppedPacketLengthsQueueOverflow:vector:mean nan
scalar BgpAndOspfv3.hostB.eth[0].queue droppedPacketLengthsQueueOverflow:vector:stddev nan
scalar BgpAndOspfv3.hostB.eth[0].queue droppedPacketLengthsQueueOverflow:vector:min inf
scalar BgpAndOspfv3.hostB.eth[0].queue droppedPacketLengthsQueueOverflow:vector:max -inf
scalar BgpAndOspfv3.hostB.eth[0].queue droppedPacketLengthsQueueOverflow:vector:starttime nan
scalar BgpAndOspfv3.hostB.eth[0].queue droppedPacketLengthsQueueOverflow:vector:endtime nan
scalar BgpAndOspfv3.hostB.eth[0].queue flowQueueingTime:vector:count 0
scalar BgpAndOspfv3.hostB.eth[0].queue flowQueueingTime:vector:sum 0
scalar BgpAndOspfv3.hostB.eth[0].queue flowQueueingTime:vector:sumweights 0
scalar BgpAndOspfv3.hostB.eth[0].queue flowQueueingTime:vector:mean nan
scalar BgpAndOspfv3.hostB.eth[0].queue flowQueueingTime:vector:stddev nan
scalar BgpAndOspfv3.hostB.eth[0].queue flowQueueingTime:vector:min inf
scalar BgpAndOspfv3.hostB.eth[0].queue flowQueueingTime:vector:max -inf
scalar BgpAndOspfv3.hostB.eth[0].queue flowQueueingTime:vector:starttime nan
scalar BgpAndOspfv3.hostB.eth[0].queue flowQueueingTime:vector:endtime nan
scalar BgpAndOspfv3.hostB.eth[0].queue flowIncomingDataRate:vector:count 1000
scalar BgpAndOspfv3.hostB.eth[0].queue flowIncomingDataRate:vector:sum 0
scalar BgpAndOspfv3.hostB.eth[0].queue flowIncomingDataRate:vector:sumweights 1000
scalar BgpAndOspfv3.hostB.eth[0].queue flowIncomingDataRate:vector:mean 0
scalar BgpAndOspfv3.hostB.eth[0].queue flowIncomingDataRate:vector:stddev 0
scalar BgpAndOspfv3.hostB.eth[0].queue flowIncomingDataRate:vector:min 0
scalar BgpAndOspfv3.hostB.eth[0].queue flowIncomingDataRate:vector:max 0
scalar BgpAndOspfv3.hostB.eth[0].queue flowIncomingDataRate:vector:starttime 0.1
scalar BgpAndOspfv3.hostB.eth[0].queue flowIncomingDataRate:vector:endtime 100
scalar BgpAndOspfv3.hostB.eth[0].queue flowOutgoingDataRate:vector:count 1000
scalar BgpAndOspfv3.hostB.eth[0].queue flowOutgoingDataRate:vector:sum 0
scalar BgpAndOspfv3.hostB.eth[0].queue flowOutgoingDataRate:vector:sumweights 1000
scalar BgpAndOspfv3.hostB.eth[0].queue flowOutgoingDataRate:vector:mean 0
scalar BgpAndOspfv3.hostB.eth[0].queue flowOutgoingDataRate:vector:stddev 0
scalar BgpAndOspfv3.hostB.eth[0].queue flowOutgoingDataRate:vector:min 0
scalar BgpAndOspfv3.hostB.eth[0].queue flowOutgoingDataRate:vector:max 0
scalar BgpAndOspfv3.hostB.eth[0].queue flowOutgoingDataRate:vector:starttime 0.1
scalar BgpAndOspfv3.hostB.eth[0].queue flowOutgoingDataRate:vector:endtime 100
scalar BgpAndOspfv3.hostB.eth[0].mac transmitting:vector:count 6
scalar BgpAndOspfv3.hostB.eth[0].mac transmitting:vector:sum 2
scalar BgpAndOspfv3.hostB.eth[0].mac transmitting:vector:sumweights 6
scalar BgpAndOspfv3.hostB.eth[0].mac transmitting:vector:mean 0.3333333333333333
scalar BgpAndOspfv3.hostB.eth[0].mac transmitting:vector:stddev 0.5163977794943223
scalar BgpAndOspfv3.hostB.eth[0].mac transmitting:vector:min 0
scalar BgpAndOspfv3.hostB.eth[0].mac transmitting:vector:max 1
scalar BgpAndOspfv3.hostB.eth[0].mac transmitting:vector:starttime 0
scalar BgpAndOspfv3.hostB.eth[0].mac transmitting:vector:endtime 3.1506886308050004
scalar BgpAndOspfv3.hostB.eth[0].mac throughput:vector:count 1000
scalar BgpAndOspfv3.hostB.eth[0].mac throughput:vector:sum 13760.000000000002
scalar BgpAndOspfv3.hostB.eth[0].mac throughput:vector:sumweights 1000
scalar BgpAndOspfv3.hostB.eth[0].mac throughput:vector:mean 13.760000000000002
scalar BgpAndOspfv3.hostB.eth[0].mac throughput:vector:stddev 307.8620493686117
scalar BgpAndOspfv3.hostB.eth[0].mac throughput:vector:min 0
scalar BgpAndOspfv3.hostB.eth[0].mac throughput:vector:max 7200.000000000001
scalar BgpAndOspfv3.hostB.eth[0].mac throughput:vector:starttime 0.1
scalar BgpAndOspfv3.hostB.eth[0].mac throughput:vector:endtime 100
scalar BgpAndOspfv3.hostB.eth[0].mac utilization:vector:count 1000
scalar BgpAndOspfv3.hostB.eth[0].mac utilization:vector:sum 0.013760000000000001
scalar BgpAndOspfv3.hostB.eth[0].mac utilization:vector:sumweights 1000
scalar BgpAndOspfv3.hostB.eth[0].mac utilization:vector:mean 1.3760000000000002e-05
scalar BgpAndOspfv3.hostB.eth[0].mac utilization:vector:stddev 0.0003078620493686116
scalar BgpAndOspfv3.hostB.eth[0].mac utilization:vector:min 0
scalar BgpAndOspfv3.hostB.eth[0].mac utilization:vector:max 0.0072
scalar BgpAndOspfv3.hostB.eth[0].mac utilization:vector:starttime 0.1
scalar BgpAndOspfv3.hostB.eth[0].mac utilization:vector:endtime 100
scalar BgpAndOspfv3.hostB.eth[0].mac txPk:vector(packetBytes):count 2
scalar BgpAndOspfv3.hostB.eth[0].mac txPk:vector(packetBytes):sum 156
scalar BgpAndOspfv3.hostB.eth[0].mac txPk:vector(packetBytes):sumweights 2
scalar BgpAndOspfv3.hostB.eth[0].mac txPk:vector(packetBytes):mean 78
scalar BgpAndOspfv3.hostB.eth[0].mac txPk:vector(packetBytes):stddev 5.656854249492381
scalar BgpAndOspfv3.hostB.eth[0].mac txPk:vector(packetBytes):min 74
scalar BgpAndOspfv3.hostB.eth[0].mac txPk:vector(packetBytes):max 82
scalar BgpAndOspfv3.hostB.eth[0].mac txPk:vector(packetBytes):starttime 0.6841720240110001
scalar BgpAndOspfv3.hostB.eth[0].mac txPk:vector(packetBytes):endtime 3.1506886308050004
scalar BgpAndOspfv3.hostB.eth[0].mac rxPkOk:vector(packetBytes):count 12
scalar BgpAndOspfv3.hostB.eth[0].mac rxPkOk:vector(packetBytes):sum 1144
scalar BgpAndOspfv3.hostB.eth[0].mac rxPkOk:vector(packetBytes):sumweights 12
scalar BgpAndOspfv3.hostB.eth[0].mac rxPkOk:vector(packetBytes):mean 95.33333333333333
scalar BgpAndOspfv3.hostB.eth[0].mac rxPkOk:vector(packetBytes):stddev 9.078779787187424
scalar BgpAndOspfv3.hostB.eth[0].mac rxPkOk:vector(packetBytes):min 82
scalar BgpAndOspfv3.hostB.eth[0].mac rxPkOk:vector(packetBytes):max 122
scalar BgpAndOspfv3.hostB.eth[0].mac rxPkOk:vector(packetBytes):starttime 0.26103342532000007
scalar BgpAndOspfv3.hostB.eth[0].mac rxPkOk:vector(packetBytes):endtime 95.00000821000002
scalar BgpAndOspfv3.hostB.eth[0].mac passedUpPk:vector(packetBytes):count 12
scalar BgpAndOspfv3.hostB.eth[0].mac passedUpPk:vector(packetBytes):sum 1144
scalar BgpAndOspfv3.hostB.eth[0].mac passedUpPk:vector(packetBytes):sumweights 12
scalar BgpAndOspfv3.hostB.eth[0].mac passedUpPk:vector(packetBytes):mean 95.33333333333333
scalar BgpAndOspfv3.hostB.eth[0].mac passedUpPk:vector(packetBytes):stddev 9.078779787187424
scalar BgpAndOspfv3.hostB.eth[0].mac passedUpPk:vector(packetBytes):min 82
scalar BgpAndOspfv3.hostB.eth[0].mac passedUpPk:vector(packetBytes):max 122
scalar BgpAndOspfv3.hostB.eth[0].mac passedUpPk:vector(packetBytes):starttime 0.26103342532000007
scalar BgpAndOspfv3.hostB.eth[0].mac passedUpPk:vector(packetBytes):endtime 95.00000821000002
scalar BgpAndOspfv3.hostB.eth[0].mac txPausePkUnits:vector:count 0
scalar BgpAndOspfv3.hostB.eth[0].mac txPausePkUnits:vector:sum 0
scalar BgpAndOspfv3.hostB.eth[0].mac txPausePkUnits:vector:sumweights 0
scalar BgpAndOspfv3.hostB.eth[0].mac txPausePkUnits:vector:mean nan
scalar BgpAndOspfv3.hostB.eth[0].mac txPausePkUnits:vector:stddev nan
scalar BgpAndOspfv3.hostB.eth[0].mac txPausePkUnits:vector:min inf
scalar BgpAndOspfv3.hostB.eth[0].mac txPausePkUnits:vector:max -inf
scalar BgpAndOspfv3.hostB.eth[0].mac txPausePkUnits:vector:starttime nan
scalar BgpAndOspfv3.hostB.eth[0].mac txPausePkUnits:vector:endtime nan
scalar BgpAndOspfv3.hostB.eth[0].mac rxPausePkUnits:vector:count 0
scalar BgpAndOspfv3.hostB.eth[0].mac rxPausePkUnits:vector:sum 0
scalar BgpAndOspfv3.hostB.eth[0].mac rxPausePkUnits:vector:sumweights 0
scalar BgpAndOspfv3.hostB.eth[0].mac rxPausePkUnits:vector:mean nan
scalar BgpAndOspfv3.hostB.eth[0].mac rxPausePkUnits:vector:stddev nan
scalar BgpAndOspfv3.hostB.eth[0].mac rxPausePkUnits:vector:min inf
scalar BgpAndOspfv3.hostB.eth[0].mac rxPausePkUnits:vector:max -inf
scalar BgpAndOspfv3.hostB.eth[0].mac rxPausePkUnits:vector:starttime nan
scalar BgpAndOspfv3.hostB.eth[0].mac rxPausePkUnits:vector:endtime nan
scalar BgpAndOspfv3.hostB.eth[0].mac packetReceivedFromUpper:vector(packetBytes):count 2
scalar BgpAndOspfv3.hostB.eth[0].mac packetReceivedFromUpper:vector(packetBytes):sum 156
scalar BgpAndOspfv3.hostB.eth[0].mac packetReceivedFromUpper:vector(packetBytes):sumweights 2
scalar BgpAndOspfv3.hostB.eth[0].mac packetReceivedFromUpper:vector(packetBytes):mean 78
scalar BgpAndOspfv3.hostB.eth[0].mac packetReceivedFromUpper:vector(packetBytes):stddev 5.656854249492381
scalar BgpAndOspfv3.hostB.eth[0].mac packetReceivedFromUpper:vector(packetBytes):min 74
scalar BgpAndOspfv3.hostB.eth[0].mac packetReceivedFromUpper:vector(packetBytes):max 82
scalar BgpAndOspfv3.hostB.eth[0].mac packetReceivedFromUpper:vector(packetBytes):starttime 0.6841648240110001
scalar BgpAndOspfv3.hostB.eth[0].mac packetReceivedFromUpper:vector(packetBytes):endtime 3.1506820708050007
scalar BgpAndOspfv3.hostB.eth[0].mac packetDropIncorrectlyReceived:vector(packetBytes):count 0
scalar BgpAndOspfv3.hostB.eth[0].mac packetDropIncorrectlyReceived:vector(packetBytes):sum 0
scalar BgpAndOspfv3.hostB.eth[0].mac packetDropIncorrectlyReceived:vector(packetBytes):sumweights 0
scalar BgpAndOspfv3.hostB.eth[0].mac packetDropIncorrectlyReceived:vector(packetBytes):mean nan
scalar BgpAndOspfv3.hostB.eth[0].mac packetDropIncorrectlyReceived:vector(packetBytes):stddev nan
scalar BgpAndOspfv3.hostB.eth[0].mac packetDropIncorrectlyReceived:vector(packetBytes):min inf
scalar BgpAndOspfv3.hostB.eth[0].mac packetDropIncorrectlyReceived:vector(packetBytes):max -inf
scalar BgpAndOspfv3.hostB.eth[0].mac packetDropIncorrectlyReceived:vector(packetBytes):starttime nan
scalar BgpAndOspfv3.hostB.eth[0].mac packetDropIncorrectlyReceived:vector(packetBytes):endtime nan
scalar BgpAndOspfv3.hostB.eth[0].mac packetDropInterfaceDown:vector(packetBytes):count 0
scalar BgpAndOspfv3.hostB.eth[0].mac packetDropInterfaceDown:vector(packetBytes):sum 0
scalar BgpAndOspfv3.hostB.eth[0].mac packetDropInterfaceDown:vector(packetBytes):sumweights 0
scalar BgpAndOspfv3.hostB.eth[0].mac packetDropInterfaceDown:vector(packetBytes):mean nan
scalar BgpAndOspfv3.hostB.eth[0].mac packetDropInterfaceDown:vector(packetBytes):stddev nan
scalar BgpAndOspfv3.hostB.eth[0].mac packetDropInterfaceDown:vector(packetBytes):min inf
scalar BgpAndOspfv3.hostB.eth[0].mac packetDropInterfaceDown:vector(packetBytes):max -inf
scalar BgpAndOspfv3.hostB.eth[0].mac packetDropInterfaceDown:vector(packetBytes):starttime nan
scalar BgpAndOspfv3.hostB.eth[0].mac packetDropInterfaceDown:vector(packetBytes):endtime nan
scalar BgpAndOspfv3.hostB.eth[0].mac packetDropNotAddressedToUs:vector(packetBytes):count 0
scalar BgpAndOspfv3.hostB.eth[0].mac packetDropNotAddressedToUs:vector(packetBytes):sum 0
scalar BgpAndOspfv3.hostB.eth[0].mac packetDropNotAddressedToUs:vector(packetBytes):sumweights 0
scalar BgpAndOspfv3.hostB.eth[0].mac packetDropNotAddressedToUs:vector(packetBytes):mean nan
scalar BgpAndOspfv3.hostB.eth[0].mac packetDropNotAddressedToUs:vector(packetBytes):stddev nan
scalar BgpAndOspfv3.hostB.eth[0].mac packetDropNotAddressedToUs:vector(packetBytes):min inf
scalar BgpAndOspfv3.hostB.eth[0].mac packetDropNotAddressedToUs:vector(packetBytes):max -inf
scalar BgpAndOspfv3.hostB.eth[0].mac packetDropNotAddressedToUs:vector(packetBytes):starttime nan
scalar BgpAndOspfv3.hostB.eth[0].mac packetDropNotAddressedToUs:vector(packetBytes):endtime nan
scalar BgpAndOspfv3.hostB.eth[0] packetDropInterfaceDown:vector(packetBytes):count 0
scalar BgpAndOspfv3.hostB.eth[0] packetDropInterfaceDown:vector(packetBytes):sum 0
scalar BgpAndOspfv3.hostB.eth[0] packetDropInterfaceDown:vector(packetBytes):sumweights 0
scalar BgpAndOspfv3.hostB.eth[0] packetDropInterfaceDown:vector(packetBytes):mean nan
scalar BgpAndOspfv3.hostB.eth[0] packetDropInterfaceDown:vector(packetBytes):stddev nan
scalar BgpAndOspfv3.hostB.eth[0] packetDropInterfaceDown:vector(packetBytes):min inf
scalar BgpAndOspfv3.hostB.eth[0] packetDropInterfaceDown:vector(packetBytes):max -inf
scalar BgpAndOspfv3.hostB.eth[0] packetDropInterfaceDown:vector(packetBytes):starttime nan
scalar BgpAndOspfv3.hostB.eth[0] packetDropInterfaceDown:vector(packetBytes):endtime nan
scalar BgpAndOspfv3.hostB.eth[0] packetDropNoCarrier:vector(packetBytes):count 0
scalar BgpAndOspfv3.hostB.eth[0] packetDropNoCarrier:vector(packetBytes):sum 0
scalar BgpAndOspfv3.hostB.eth[0] packetDropNoCarrier:vector(packetBytes):sumweights 0
scalar BgpAndOspfv3.hostB.eth[0] packetDropNoCarrier:vector(packetBytes):mean nan
scalar BgpAndOspfv3.hostB.eth[0] packetDropNoCarrier:vector(packetBytes):stddev nan
scalar BgpAndOspfv3.hostB.eth[0] packetDropNoCarrier:vector(packetBytes):min inf
scalar BgpAndOspfv3.hostB.eth[0] packetDropNoCarrier:vector(packetBytes):max -inf
scalar BgpAndOspfv3.hostB.eth[0] packetDropNoCarrier:vector(packetBytes):starttime nan
scalar BgpAndOspfv3.hostB.eth[0] packetDropNoCarrier:vector(packetBytes):endtime nan
scalar BgpAndOspfv3.hostB.ipv6.neighbourDiscovery startDad:vector:count 1
scalar BgpAndOspfv3.hostB.ipv6.neighbourDiscovery startDad:vector:sum 1
scalar BgpAndOspfv3.hostB.ipv6.neighbourDiscovery startDad:vector:sumweights 1
scalar BgpAndOspfv3.hostB.ipv6.neighbourDiscovery startDad:vector:mean 1
scalar BgpAndOspfv3.hostB.ipv6.neighbourDiscovery startDad:vector:stddev nan
scalar BgpAndOspfv3.hostB.ipv6.neighbourDiscovery startDad:vector:min 1
scalar BgpAndOspfv3.hostB.ipv6.neighbourDiscovery startDad:vector:max 1
scalar BgpAndOspfv3.hostB.ipv6.neighbourDiscovery startDad:vector:starttime 0.6841648240110001
scalar BgpAndOspfv3.hostB.ipv6.neighbourDiscovery startDad:vector:endtime 0.6841648240110001
scalar BgpAndOspfv3.hostB.ipv6.neighbourDiscovery dadCompleted:vector:count 1
scalar BgpAndOspfv3.hostB.ipv6.neighbourDiscovery dadCompleted:vector:sum 1
scalar BgpAndOspfv3.hostB.ipv6.neighbourDiscovery dadCompleted:vector:sumweights 1
scalar BgpAndOspfv3.hostB.ipv6.neighbourDiscovery dadCompleted:vector:mean 1
scalar BgpAndOspfv3.hostB.ipv6.neighbourDiscovery dadCompleted:vector:stddev nan
scalar BgpAndOspfv3.hostB.ipv6.neighbourDiscovery dadCompleted:vector:min 1
scalar BgpAndOspfv3.hostB.ipv6.neighbourDiscovery dadCompleted:vector:max 1
scalar BgpAndOspfv3.hostB.ipv6.neighbourDiscovery dadCompleted:vector:starttime 2.6288337426260004
scalar BgpAndOspfv3.hostB.ipv6.neighbourDiscovery dadCompleted:vector:endtime 2.6288337426260004
scalar BgpAndOspfv3.hostB.ipv6.neighbourDiscovery dadFailed:vector:count 0
scalar BgpAndOspfv3.hostB.ipv6.neighbourDiscovery dadFailed:vector:sum 0
scalar BgpAndOspfv3.hostB.ipv6.neighbourDiscovery dadFailed:vector:sumweights 0
scalar BgpAndOspfv3.hostB.ipv6.neighbourDiscovery dadFailed:vector:mean nan
scalar BgpAndOspfv3.hostB.ipv6.neighbourDiscovery dadFailed:vector:stddev nan
scalar BgpAndOspfv3.hostB.ipv6.neighbourDiscovery dadFailed:vector:min inf
scalar BgpAndOspfv3.hostB.ipv6.neighbourDiscovery dadFailed:vector:max -inf
scalar BgpAndOspfv3.hostB.ipv6.neighbourDiscovery dadFailed:vector:starttime nan
scalar BgpAndOspfv3.hostB.ipv6.neighbourDiscovery dadFailed:vector:endtime nan
scalar BgpAndOspfv3.hostB.udp packetSent:vector(packetBytes):count 0
scalar BgpAndOspfv3.hostB.udp packetSent:vector(packetBytes):sum 0
scalar BgpAndOspfv3.hostB.udp packetSent:vector(packetBytes):sumweights 0
scalar BgpAndOspfv3.hostB.udp packetSent:vector(packetBytes):mean nan
scalar BgpAndOspfv3.hostB.udp packetSent:vector(packetBytes):stddev nan
scalar BgpAndOspfv3.hostB.udp packetSent:vector(packetBytes):min inf
scalar BgpAndOspfv3.hostB.udp packetSent:vector(packetBytes):max -inf
scalar BgpAndOspfv3.hostB.udp packetSent:vector(packetBytes):starttime nan
scalar BgpAndOspfv3.hostB.udp packetSent:vector(packetBytes):endtime nan
scalar BgpAndOspfv3.hostB.udp outgoingDataRate:vector:count 1000
scalar BgpAndOspfv3.hostB.udp outgoingDataRate:vector:sum 0
scalar BgpAndOspfv3.hostB.udp outgoingDataRate:vector:sumweights 1000
scalar BgpAndOspfv3.hostB.udp outgoingDataRate:vector:mean 0
scalar BgpAndOspfv3.hostB.udp outgoingDataRate:vector:stddev 0
scalar BgpAndOspfv3.hostB.udp outgoingDataRate:vector:min 0
scalar BgpAndOspfv3.hostB.udp outgoingDataRate:vector:max 0
scalar BgpAndOspfv3.hostB.udp outgoingDataRate:vector:starttime 0.1
scalar BgpAndOspfv3.hostB.udp outgoingDataRate:vector:endtime 100
scalar BgpAndOspfv3.hostB.udp packetReceived:vector(packetBytes):count 0
scalar BgpAndOspfv3.hostB.udp packetReceived:vector(packetBytes):sum 0
scalar BgpAndOspfv3.hostB.udp packetReceived:vector(packetBytes):sumweights 0
scalar BgpAndOspfv3.hostB.udp packetReceived:vector(packetBytes):mean nan
scalar BgpAndOspfv3.hostB.udp packetReceived:vector(packetBytes):stddev nan
scalar BgpAndOspfv3.hostB.udp packetReceived:vector(packetBytes):min inf
scalar BgpAndOspfv3.hostB.udp packetReceived:vector(packetBytes):max -inf
scalar BgpAndOspfv3.hostB.udp packetReceived:vector(packetBytes):starttime nan
scalar BgpAndOspfv3.hostB.udp packetReceived:vector(packetBytes):endtime nan
scalar BgpAndOspfv3.hostB.udp passedUpPk:vector(count):count 1
scalar BgpAndOspfv3.hostB.udp passedUpPk:vector(count):sum 0
scalar BgpAndOspfv3.hostB.udp passedUpPk:vector(count):sumweights 1
scalar BgpAndOspfv3.hostB.udp passedUpPk:vector(count):mean 0
scalar BgpAndOspfv3.hostB.udp passedUpPk:vector(count):stddev nan
scalar BgpAndOspfv3.hostB.udp passedUpPk:vector(count):min 0
scalar BgpAndOspfv3.hostB.udp passedUpPk:vector(count):max 0
scalar BgpAndOspfv3.hostB.udp passedUpPk:vector(count):starttime 0
scalar BgpAndOspfv3.hostB.udp passedUpPk:vector(count):endtime 0
scalar BgpAndOspfv3.hostB.udp droppedPkWrongPort:vector(count):count 1
scalar BgpAndOspfv3.hostB.udp droppedPkWrongPort:vector(count):sum 0
scalar BgpAndOspfv3.hostB.udp droppedPkWrongPort:vector(count):sumweights 1
scalar BgpAndOspfv3.hostB.udp droppedPkWrongPort:vector(count):mean 0
scalar BgpAndOspfv3.hostB.udp droppedPkWrongPort:vector(count):stddev nan
scalar BgpAndOspfv3.hostB.udp droppedPkWrongPort:vector(count):min 0
scalar BgpAndOspfv3.hostB.udp droppedPkWrongPort:vector(count):max 0
scalar BgpAndOspfv3.hostB.udp droppedPkWrongPort:vector(count):starttime 0
scalar BgpAndOspfv3.hostB.udp droppedPkWrongPort:vector(count):endtime 0
scalar BgpAndOspfv3.hostB.udp droppedPkBadChecksum:vector(count):count 1
scalar BgpAndOspfv3.hostB.udp droppedPkBadChecksum:vector(count):sum 0
scalar BgpAndOspfv3.hostB.udp droppedPkBadChecksum:vector(count):sumweights 1
scalar BgpAndOspfv3.hostB.udp droppedPkBadChecksum:vector(count):mean 0
scalar BgpAndOspfv3.hostB.udp droppedPkBadChecksum:vector(count):stddev nan
scalar BgpAndOspfv3.hostB.udp droppedPkBadChecksum:vector(count):min 0
scalar BgpAndOspfv3.hostB.udp droppedPkBadChecksum:vector(count):max 0
scalar BgpAndOspfv3.hostB.udp droppedPkBadChecksum:vector(count):starttime 0
scalar BgpAndOspfv3.hostB.udp droppedPkBadChecksum:vector(count):endtime 0

