version 3
run inet__inet-0-20250108-11:19:37-9855
attr configname inet__inet
attr datetime 20250108-11:19:37
attr datetimef 20250108-111937
attr experiment inet__inet
attr inifile omnetpp.ini
attr iterationvars ""
attr iterationvarsd ""
attr iterationvarsf ""
attr measurement ""
attr network BulkTransfer
attr processid 9855
attr repetition 0
attr replication #0
attr resultdir results
attr runnumber 0
attr seedset 0
config **.param-recording false
config image-path /home/levy/workspace/inet/images
config output-scalar-file results/omnetpp.ini-inet__inet-#0.sca
config output-vector-file results/omnetpp.ini-inet__inet-#0.vec
config sim-time-limit 50s
config sim-time-limit 50s
config description "inet_TCP <---> inet_TCP"
config **.server*.tcp.typename Tcp
config **.client*.tcp.typename Tcp
config network BulkTransfer
config total-stack 7MiB
config **.client*.numApps 1
config **.client*.app[*].typename TcpSessionApp
config **.client*.app[0].active true
config **.client*.app[0].localAddress "\"\""
config **.client*.app[0].localPort -1
config **.client1.app[0].connectAddress "\"server>client1\""
config **.client*.app[0].connectAddress "\"server>router\""
config **.client*.app[0].connectPort 1000
config **.client*.app[0].tOpen 1.0s
config **.client*.app[0].tSend 1.1s
config **.client*.app[0].sendBytes 10000000B
config **.client*.app[0].sendScript "\"\""
config **.client*.app[0].tClose 0s
config **.server*.numApps 1
config **.server*.app[*].typename TcpEchoApp
config **.server*.app[0].localAddress "\"\""
config **.server*.app[0].localPort 1000
config **.server*.app[0].echoFactor 2.0
config **.server*.app[0].echoDelay 0s
config **.app[0].dataTransferMode "\"bytecount\""
config **.ppp[*].queue.typename DropTailQueue
config **.ppp[*].queue.packetCapacity 10

scalar BulkTransfer.client1.lo[0].lo rcvdPkFromHl:count 0
scalar BulkTransfer.client1.lo[0].lo rcvdPkFromHl:sum(packetBytes) 0
scalar BulkTransfer.client1.lo[0].lo passedUpPk:count 0
scalar BulkTransfer.client1.lo[0].lo passedUpPk:sum(packetBytes) 0
scalar BulkTransfer.client1.lo[0] packetDropInterfaceDown:count 0
scalar BulkTransfer.client1.lo[0] packetDropInterfaceDown:sum(packetBytes) 0
scalar BulkTransfer.client1.lo[0] packetDropNoCarrier:count 0
scalar BulkTransfer.client1.lo[0] packetDropNoCarrier:sum(packetBytes) 0
scalar BulkTransfer.client1.ppp[0].queue queueLength:last 0
scalar BulkTransfer.client1.ppp[0].queue queueLength:max 0
scalar BulkTransfer.client1.ppp[0].queue queueLength:timeavg 0
scalar BulkTransfer.client1.ppp[0].queue queueBitLength:last 0
scalar BulkTransfer.client1.ppp[0].queue queueBitLength:max 0
scalar BulkTransfer.client1.ppp[0].queue queueBitLength:timeavg 0
scalar BulkTransfer.client1.ppp[0].queue outgoingPackets:count 0
scalar BulkTransfer.client1.ppp[0].queue outgoingPacketLengths:sum 0
scalar BulkTransfer.client1.ppp[0].queue incomingPackets:count 0
scalar BulkTransfer.client1.ppp[0].queue incomingPacketLengths:sum 0
scalar BulkTransfer.client1.ppp[0].queue droppedPacketsQueueOverflow:count 0
scalar BulkTransfer.client1.ppp[0].queue droppedPacketLengthsQueueOverflow:sum 0
scalar BulkTransfer.client1.ppp[0].ppp transmissionState:timeavg 0
scalar BulkTransfer.client1.ppp[0].ppp rxPkOk:count 0
scalar BulkTransfer.client1.ppp[0].ppp rxPkOk:sum(packetBytes) 0
scalar BulkTransfer.client1.ppp[0].ppp txPk:count 0
scalar BulkTransfer.client1.ppp[0].ppp txPk:sum(packetBytes) 0
scalar BulkTransfer.client1.ppp[0].ppp rcvdPkFromHl:count 0
scalar BulkTransfer.client1.ppp[0].ppp rcvdPkFromHl:sum(packetBytes) 0
scalar BulkTransfer.client1.ppp[0].ppp passedUpPk:count 0
scalar BulkTransfer.client1.ppp[0].ppp passedUpPk:sum(packetBytes) 0
scalar BulkTransfer.client1.ppp[0].ppp packetDropIncorrectlyReceived:count 0
scalar BulkTransfer.client1.ppp[0].ppp packetDropIncorrectlyReceived:sum(packetBytes) 0
scalar BulkTransfer.client1.ppp[0].ppp packetDropInterfaceDown:count 0
scalar BulkTransfer.client1.ppp[0].ppp packetDropInterfaceDown:sum(packetBytes) 0
scalar BulkTransfer.client1.ppp[0] packetDropInterfaceDown:count 0
scalar BulkTransfer.client1.ppp[0] packetDropInterfaceDown:sum(packetBytes) 0
scalar BulkTransfer.client1.ppp[0] packetDropNoCarrier:count 0
scalar BulkTransfer.client1.ppp[0] packetDropNoCarrier:sum(packetBytes) 0
scalar BulkTransfer.client1.ppp[1].queue queueLength:last 5
scalar BulkTransfer.client1.ppp[1].queue queueLength:max 10
scalar BulkTransfer.client1.ppp[1].queue queueLength:timeavg 2.4519724542167
scalar BulkTransfer.client1.ppp[1].queue queueBitLength:last 1600
scalar BulkTransfer.client1.ppp[1].queue queueBitLength:max 46080
scalar BulkTransfer.client1.ppp[1].queue queueBitLength:timeavg 10140.697902021
scalar BulkTransfer.client1.ppp[1].queue outgoingPackets:count 7354
scalar BulkTransfer.client1.ppp[1].queue outgoingPacketLengths:sum 18699168
scalar BulkTransfer.client1.ppp[1].queue incomingPackets:count 7508
scalar BulkTransfer.client1.ppp[1].queue incomingPacketLengths:sum 19374496
scalar BulkTransfer.client1.ppp[1].queue droppedPacketsQueueOverflow:count 149
scalar BulkTransfer.client1.ppp[1].queue droppedPacketLengthsQueueOverflow:sum 673728
scalar BulkTransfer.client1.ppp[1].ppp transmissionState:timeavg 0.38212886204327
scalar BulkTransfer.client1.ppp[1].ppp rxPkOk:count 7383
scalar BulkTransfer.client1.ppp[1].ppp rxPkOk:sum(packetBytes) 2238013
scalar BulkTransfer.client1.ppp[1].ppp txPk:count 7354
scalar BulkTransfer.client1.ppp[1].ppp txPk:sum(packetBytes) 2388874
scalar BulkTransfer.client1.ppp[1].ppp rcvdPkFromHl:count 7354
scalar BulkTransfer.client1.ppp[1].ppp rcvdPkFromHl:sum(packetBytes) 2337396
scalar BulkTransfer.client1.ppp[1].ppp passedUpPk:count 7383
scalar BulkTransfer.client1.ppp[1].ppp passedUpPk:sum(packetBytes) 2186332
scalar BulkTransfer.client1.ppp[1].ppp packetDropIncorrectlyReceived:count 0
scalar BulkTransfer.client1.ppp[1].ppp packetDropIncorrectlyReceived:sum(packetBytes) 0
scalar BulkTransfer.client1.ppp[1].ppp packetDropInterfaceDown:count 0
scalar BulkTransfer.client1.ppp[1].ppp packetDropInterfaceDown:sum(packetBytes) 0
scalar BulkTransfer.client1.ppp[1] packetDropInterfaceDown:count 0
scalar BulkTransfer.client1.ppp[1] packetDropInterfaceDown:sum(packetBytes) 0
scalar BulkTransfer.client1.ppp[1] packetDropNoCarrier:count 0
scalar BulkTransfer.client1.ppp[1] packetDropNoCarrier:sum(packetBytes) 0
scalar BulkTransfer.client1.ipv4.ip packetDropAddressResolutionFailed:count 0
scalar BulkTransfer.client1.ipv4.ip packetDropAddressResolutionFailed:sum(packetBytes) 0
scalar BulkTransfer.client1.ipv4.ip packetDropHopLimitReached:count 0
scalar BulkTransfer.client1.ipv4.ip packetDropHopLimitReached:sum(packetBytes) 0
scalar BulkTransfer.client1.ipv4.ip packetDropForwardingDisabled:count 0
scalar BulkTransfer.client1.ipv4.ip packetDropForwardingDisabled:sum(packetBytes) 0
scalar BulkTransfer.client1.ipv4.ip packetDropLifetimeExpired:count 0
scalar BulkTransfer.client1.ipv4.ip packetDropLifetimeExpired:sum(packetBytes) 0
scalar BulkTransfer.client1.ipv4.ip packetDropNoInterfaceFound:count 0
scalar BulkTransfer.client1.ipv4.ip packetDropNoInterfaceFound:sum(packetBytes) 0
scalar BulkTransfer.client1.ipv4.ip packetDropNoRouteFound:count 0
scalar BulkTransfer.client1.ipv4.ip packetDropNoRouteFound:sum(packetBytes) 0
scalar BulkTransfer.client1.ipv4.ip packetDropUndefined:count 0
scalar BulkTransfer.client1.ipv4.ip packetDropUndefined:sum(packetBytes) 0
scalar BulkTransfer.client1.ipv4.arp arpResolutionFailed:count 0
scalar BulkTransfer.client1.ipv4.arp arpResolutionCompleted:count 0
scalar BulkTransfer.client1.ipv4.arp arpResolutionInitiated:count 0
scalar BulkTransfer.client1.ipv4.arp arpReplySent:count 0
scalar BulkTransfer.client1.ipv4.arp arpReplySent:sum(packetBytes) 0
scalar BulkTransfer.client1.ipv4.arp arpRequestSent:count 0
scalar BulkTransfer.client1.ipv4.arp arpRequestSent:sum(packetBytes) 0
scalar BulkTransfer.client1.udp packetReceived:count 0
scalar BulkTransfer.client1.udp packetReceived:sum(packetBytes) 0
scalar BulkTransfer.client1.udp packetSent:count 0
scalar BulkTransfer.client1.udp packetSent:sum(packetBytes) 0
scalar BulkTransfer.client1.udp passedUpPk:count 0
scalar BulkTransfer.client1.udp droppedPkWrongPort:count 0
scalar BulkTransfer.client1.udp droppedPkBadChecksum:count 0
scalar BulkTransfer.client1.app[0] bytesRcvd 1861528
scalar BulkTransfer.client1.app[0] bytesSent 10000000
scalar BulkTransfer.client1.app[0] packetReceived:count 2851
scalar BulkTransfer.client1.app[0] packetReceived:sum(packetBytes) 1861528
scalar BulkTransfer.client1.app[0] packetSent:count 1
scalar BulkTransfer.client1.app[0] packetSent:sum(packetBytes) 10000000
scalar BulkTransfer.client2.lo[0].lo rcvdPkFromHl:count 0
scalar BulkTransfer.client2.lo[0].lo rcvdPkFromHl:sum(packetBytes) 0
scalar BulkTransfer.client2.lo[0].lo passedUpPk:count 0
scalar BulkTransfer.client2.lo[0].lo passedUpPk:sum(packetBytes) 0
scalar BulkTransfer.client2.lo[0] packetDropInterfaceDown:count 0
scalar BulkTransfer.client2.lo[0] packetDropInterfaceDown:sum(packetBytes) 0
scalar BulkTransfer.client2.lo[0] packetDropNoCarrier:count 0
scalar BulkTransfer.client2.lo[0] packetDropNoCarrier:sum(packetBytes) 0
scalar BulkTransfer.client2.ppp[0].queue queueLength:last 6
scalar BulkTransfer.client2.ppp[0].queue queueLength:max 10
scalar BulkTransfer.client2.ppp[0].queue queueLength:timeavg 0.93725766504298
scalar BulkTransfer.client2.ppp[0].queue queueBitLength:last 27648
scalar BulkTransfer.client2.ppp[0].queue queueBitLength:max 46080
scalar BulkTransfer.client2.ppp[0].queue queueBitLength:timeavg 3990.4894476221
scalar BulkTransfer.client2.ppp[0].queue outgoingPackets:count 5057
scalar BulkTransfer.client2.ppp[0].queue outgoingPacketLengths:sum 14460832
scalar BulkTransfer.client2.ppp[0].queue incomingPackets:count 5081
scalar BulkTransfer.client2.ppp[0].queue incomingPacketLengths:sum 14567136
scalar BulkTransfer.client2.ppp[0].queue droppedPacketsQueueOverflow:count 18
scalar BulkTransfer.client2.ppp[0].queue droppedPacketLengthsQueueOverflow:sum 78656
scalar BulkTransfer.client2.ppp[0].ppp transmissionState:timeavg 0.29483220684048
scalar BulkTransfer.client2.ppp[0].ppp rxPkOk:count 4957
scalar BulkTransfer.client2.ppp[0].ppp rxPkOk:sum(packetBytes) 1328031
scalar BulkTransfer.client2.ppp[0].ppp txPk:count 5057
scalar BulkTransfer.client2.ppp[0].ppp txPk:sum(packetBytes) 1843003
scalar BulkTransfer.client2.ppp[0].ppp rcvdPkFromHl:count 5057
scalar BulkTransfer.client2.ppp[0].ppp rcvdPkFromHl:sum(packetBytes) 1807604
scalar BulkTransfer.client2.ppp[0].ppp passedUpPk:count 4957
scalar BulkTransfer.client2.ppp[0].ppp passedUpPk:sum(packetBytes) 1293332
scalar BulkTransfer.client2.ppp[0].ppp packetDropIncorrectlyReceived:count 0
scalar BulkTransfer.client2.ppp[0].ppp packetDropIncorrectlyReceived:sum(packetBytes) 0
scalar BulkTransfer.client2.ppp[0].ppp packetDropInterfaceDown:count 0
scalar BulkTransfer.client2.ppp[0].ppp packetDropInterfaceDown:sum(packetBytes) 0
scalar BulkTransfer.client2.ppp[0] packetDropInterfaceDown:count 0
scalar BulkTransfer.client2.ppp[0] packetDropInterfaceDown:sum(packetBytes) 0
scalar BulkTransfer.client2.ppp[0] packetDropNoCarrier:count 0
scalar BulkTransfer.client2.ppp[0] packetDropNoCarrier:sum(packetBytes) 0
scalar BulkTransfer.client2.ipv4.ip packetDropAddressResolutionFailed:count 0
scalar BulkTransfer.client2.ipv4.ip packetDropAddressResolutionFailed:sum(packetBytes) 0
scalar BulkTransfer.client2.ipv4.ip packetDropHopLimitReached:count 0
scalar BulkTransfer.client2.ipv4.ip packetDropHopLimitReached:sum(packetBytes) 0
scalar BulkTransfer.client2.ipv4.ip packetDropForwardingDisabled:count 0
scalar BulkTransfer.client2.ipv4.ip packetDropForwardingDisabled:sum(packetBytes) 0
scalar BulkTransfer.client2.ipv4.ip packetDropLifetimeExpired:count 0
scalar BulkTransfer.client2.ipv4.ip packetDropLifetimeExpired:sum(packetBytes) 0
scalar BulkTransfer.client2.ipv4.ip packetDropNoInterfaceFound:count 0
scalar BulkTransfer.client2.ipv4.ip packetDropNoInterfaceFound:sum(packetBytes) 0
scalar BulkTransfer.client2.ipv4.ip packetDropNoRouteFound:count 0
scalar BulkTransfer.client2.ipv4.ip packetDropNoRouteFound:sum(packetBytes) 0
scalar BulkTransfer.client2.ipv4.ip packetDropUndefined:count 0
scalar BulkTransfer.client2.ipv4.ip packetDropUndefined:sum(packetBytes) 0
scalar BulkTransfer.client2.ipv4.arp arpResolutionFailed:count 0
scalar BulkTransfer.client2.ipv4.arp arpResolutionCompleted:count 0
scalar BulkTransfer.client2.ipv4.arp arpResolutionInitiated:count 0
scalar BulkTransfer.client2.ipv4.arp arpReplySent:count 0
scalar BulkTransfer.client2.ipv4.arp arpReplySent:sum(packetBytes) 0
scalar BulkTransfer.client2.ipv4.arp arpRequestSent:count 0
scalar BulkTransfer.client2.ipv4.arp arpRequestSent:sum(packetBytes) 0
scalar BulkTransfer.client2.udp packetReceived:count 0
scalar BulkTransfer.client2.udp packetReceived:sum(packetBytes) 0
scalar BulkTransfer.client2.udp packetSent:count 0
scalar BulkTransfer.client2.udp packetSent:sum(packetBytes) 0
scalar BulkTransfer.client2.udp passedUpPk:count 0
scalar BulkTransfer.client2.udp droppedPkWrongPort:count 0
scalar BulkTransfer.client2.udp droppedPkBadChecksum:count 0
scalar BulkTransfer.client2.app[0] bytesRcvd 1077896
scalar BulkTransfer.client2.app[0] bytesSent 10000000
scalar BulkTransfer.client2.app[0] packetReceived:count 1744
scalar BulkTransfer.client2.app[0] packetReceived:sum(packetBytes) 1077896
scalar BulkTransfer.client2.app[0] packetSent:count 1
scalar BulkTransfer.client2.app[0] packetSent:sum(packetBytes) 10000000
scalar BulkTransfer.client3.lo[0].lo rcvdPkFromHl:count 0
scalar BulkTransfer.client3.lo[0].lo rcvdPkFromHl:sum(packetBytes) 0
scalar BulkTransfer.client3.lo[0].lo passedUpPk:count 0
scalar BulkTransfer.client3.lo[0].lo passedUpPk:sum(packetBytes) 0
scalar BulkTransfer.client3.lo[0] packetDropInterfaceDown:count 0
scalar BulkTransfer.client3.lo[0] packetDropInterfaceDown:sum(packetBytes) 0
scalar BulkTransfer.client3.lo[0] packetDropNoCarrier:count 0
scalar BulkTransfer.client3.lo[0] packetDropNoCarrier:sum(packetBytes) 0
scalar BulkTransfer.client3.ppp[0].queue queueLength:last 0
scalar BulkTransfer.client3.ppp[0].queue queueLength:max 10
scalar BulkTransfer.client3.ppp[0].queue queueLength:timeavg 1.2515377967062
scalar BulkTransfer.client3.ppp[0].queue queueBitLength:last 0
scalar BulkTransfer.client3.ppp[0].queue queueBitLength:max 46080
scalar BulkTransfer.client3.ppp[0].queue queueBitLength:timeavg 5411.712987318
scalar BulkTransfer.client3.ppp[0].queue outgoingPackets:count 6784
scalar BulkTransfer.client3.ppp[0].queue outgoingPacketLengths:sum 17642016
scalar BulkTransfer.client3.ppp[0].queue incomingPackets:count 6814
scalar BulkTransfer.client3.ppp[0].queue incomingPacketLengths:sum 17780256
scalar BulkTransfer.client3.ppp[0].queue droppedPacketsQueueOverflow:count 30
scalar BulkTransfer.client3.ppp[0].queue droppedPacketLengthsQueueOverflow:sum 138240
scalar BulkTransfer.client3.ppp[0].ppp transmissionState:timeavg 0.36043839999997
scalar BulkTransfer.client3.ppp[0].ppp rxPkOk:count 6706
scalar BulkTransfer.client3.ppp[0].ppp rxPkOk:sum(packetBytes) 1998762
scalar BulkTransfer.client3.ppp[0].ppp txPk:count 6784
scalar BulkTransfer.client3.ppp[0].ppp txPk:sum(packetBytes) 2252740
scalar BulkTransfer.client3.ppp[0].ppp rcvdPkFromHl:count 6784
scalar BulkTransfer.client3.ppp[0].ppp rcvdPkFromHl:sum(packetBytes) 2205252
scalar BulkTransfer.client3.ppp[0].ppp passedUpPk:count 6706
scalar BulkTransfer.client3.ppp[0].ppp passedUpPk:sum(packetBytes) 1951820
scalar BulkTransfer.client3.ppp[0].ppp packetDropIncorrectlyReceived:count 0
scalar BulkTransfer.client3.ppp[0].ppp packetDropIncorrectlyReceived:sum(packetBytes) 0
scalar BulkTransfer.client3.ppp[0].ppp packetDropInterfaceDown:count 0
scalar BulkTransfer.client3.ppp[0].ppp packetDropInterfaceDown:sum(packetBytes) 0
scalar BulkTransfer.client3.ppp[0] packetDropInterfaceDown:count 0
scalar BulkTransfer.client3.ppp[0] packetDropInterfaceDown:sum(packetBytes) 0
scalar BulkTransfer.client3.ppp[0] packetDropNoCarrier:count 0
scalar BulkTransfer.client3.ppp[0] packetDropNoCarrier:sum(packetBytes) 0
scalar BulkTransfer.client3.ipv4.ip packetDropAddressResolutionFailed:count 0
scalar BulkTransfer.client3.ipv4.ip packetDropAddressResolutionFailed:sum(packetBytes) 0
scalar BulkTransfer.client3.ipv4.ip packetDropHopLimitReached:count 0
scalar BulkTransfer.client3.ipv4.ip packetDropHopLimitReached:sum(packetBytes) 0
scalar BulkTransfer.client3.ipv4.ip packetDropForwardingDisabled:count 0
scalar BulkTransfer.client3.ipv4.ip packetDropForwardingDisabled:sum(packetBytes) 0
scalar BulkTransfer.client3.ipv4.ip packetDropLifetimeExpired:count 0
scalar BulkTransfer.client3.ipv4.ip packetDropLifetimeExpired:sum(packetBytes) 0
scalar BulkTransfer.client3.ipv4.ip packetDropNoInterfaceFound:count 0
scalar BulkTransfer.client3.ipv4.ip packetDropNoInterfaceFound:sum(packetBytes) 0
scalar BulkTransfer.client3.ipv4.ip packetDropNoRouteFound:count 0
scalar BulkTransfer.client3.ipv4.ip packetDropNoRouteFound:sum(packetBytes) 0
scalar BulkTransfer.client3.ipv4.ip packetDropUndefined:count 0
scalar BulkTransfer.client3.ipv4.ip packetDropUndefined:sum(packetBytes) 0
scalar BulkTransfer.client3.ipv4.arp arpResolutionFailed:count 0
scalar BulkTransfer.client3.ipv4.arp arpResolutionCompleted:count 0
scalar BulkTransfer.client3.ipv4.arp arpResolutionInitiated:count 0
scalar BulkTransfer.client3.ipv4.arp arpReplySent:count 0
scalar BulkTransfer.client3.ipv4.arp arpReplySent:sum(packetBytes) 0
scalar BulkTransfer.client3.ipv4.arp arpRequestSent:count 0
scalar BulkTransfer.client3.ipv4.arp arpRequestSent:sum(packetBytes) 0
scalar BulkTransfer.client3.udp packetReceived:count 0
scalar BulkTransfer.client3.udp packetReceived:sum(packetBytes) 0
scalar BulkTransfer.client3.udp packetSent:count 0
scalar BulkTransfer.client3.udp packetSent:sum(packetBytes) 0
scalar BulkTransfer.client3.udp passedUpPk:count 0
scalar BulkTransfer.client3.udp droppedPkWrongPort:count 0
scalar BulkTransfer.client3.udp droppedPkBadChecksum:count 0
scalar BulkTransfer.client3.app[0] bytesRcvd 1656776
scalar BulkTransfer.client3.app[0] bytesSent 10000000
scalar BulkTransfer.client3.app[0] packetReceived:count 2687
scalar BulkTransfer.client3.app[0] packetReceived:sum(packetBytes) 1656776
scalar BulkTransfer.client3.app[0] packetSent:count 1
scalar BulkTransfer.client3.app[0] packetSent:sum(packetBytes) 10000000
scalar BulkTransfer.server.lo[0].lo rcvdPkFromHl:count 0
scalar BulkTransfer.server.lo[0].lo rcvdPkFromHl:sum(packetBytes) 0
scalar BulkTransfer.server.lo[0].lo passedUpPk:count 0
scalar BulkTransfer.server.lo[0].lo passedUpPk:sum(packetBytes) 0
scalar BulkTransfer.server.lo[0] packetDropInterfaceDown:count 0
scalar BulkTransfer.server.lo[0] packetDropInterfaceDown:sum(packetBytes) 0
scalar BulkTransfer.server.lo[0] packetDropNoCarrier:count 0
scalar BulkTransfer.server.lo[0] packetDropNoCarrier:sum(packetBytes) 0
scalar BulkTransfer.server.ppp[0].queue queueLength:last 0
scalar BulkTransfer.server.ppp[0].queue queueLength:max 10
scalar BulkTransfer.server.ppp[0].queue queueLength:timeavg 2.2533129610714
scalar BulkTransfer.server.ppp[0].queue queueBitLength:last 0
scalar BulkTransfer.server.ppp[0].queue queueBitLength:max 46080
scalar BulkTransfer.server.ppp[0].queue queueBitLength:timeavg 9166.1508396245
scalar BulkTransfer.server.ppp[0].queue outgoingPackets:count 7384
scalar BulkTransfer.server.ppp[0].queue outgoingPacketLengths:sum 17490976
scalar BulkTransfer.server.ppp[0].queue incomingPackets:count 7545
scalar BulkTransfer.server.ppp[0].queue incomingPacketLengths:sum 18232864
scalar BulkTransfer.server.ppp[0].queue droppedPacketsQueueOverflow:count 161
scalar BulkTransfer.server.ppp[0].queue droppedPacketLengthsQueueOverflow:sum 741888
scalar BulkTransfer.server.ppp[0].ppp transmissionState:timeavg 0.35808438004328
scalar BulkTransfer.server.ppp[0].ppp rxPkOk:count 7353
scalar BulkTransfer.server.ppp[0].ppp rxPkOk:sum(packetBytes) 2388291
scalar BulkTransfer.server.ppp[0].ppp txPk:count 7384
scalar BulkTransfer.server.ppp[0].ppp txPk:sum(packetBytes) 2238060
scalar BulkTransfer.server.ppp[0].ppp rcvdPkFromHl:count 7384
scalar BulkTransfer.server.ppp[0].ppp rcvdPkFromHl:sum(packetBytes) 2186372
scalar BulkTransfer.server.ppp[0].ppp passedUpPk:count 7353
scalar BulkTransfer.server.ppp[0].ppp passedUpPk:sum(packetBytes) 2336820
scalar BulkTransfer.server.ppp[0].ppp packetDropIncorrectlyReceived:count 0
scalar BulkTransfer.server.ppp[0].ppp packetDropIncorrectlyReceived:sum(packetBytes) 0
scalar BulkTransfer.server.ppp[0].ppp packetDropInterfaceDown:count 0
scalar BulkTransfer.server.ppp[0].ppp packetDropInterfaceDown:sum(packetBytes) 0
scalar BulkTransfer.server.ppp[0] packetDropInterfaceDown:count 0
scalar BulkTransfer.server.ppp[0] packetDropInterfaceDown:sum(packetBytes) 0
scalar BulkTransfer.server.ppp[0] packetDropNoCarrier:count 0
scalar BulkTransfer.server.ppp[0] packetDropNoCarrier:sum(packetBytes) 0
scalar BulkTransfer.server.ppp[1].queue queueLength:last 0
scalar BulkTransfer.server.ppp[1].queue queueLength:max 10
scalar BulkTransfer.server.ppp[1].queue queueLength:timeavg 3.0506249892383
scalar BulkTransfer.server.ppp[1].queue queueBitLength:last 0
scalar BulkTransfer.server.ppp[1].queue queueBitLength:max 46080
scalar BulkTransfer.server.ppp[1].queue queueBitLength:timeavg 10731.178132107
scalar BulkTransfer.server.ppp[1].queue outgoingPackets:count 11665
scalar BulkTransfer.server.ppp[1].queue outgoingPacketLengths:sum 25961856
scalar BulkTransfer.server.ppp[1].queue incomingPackets:count 11917
scalar BulkTransfer.server.ppp[1].queue incomingPacketLengths:sum 27101632
scalar BulkTransfer.server.ppp[1].queue droppedPacketsQueueOverflow:count 252
scalar BulkTransfer.server.ppp[1].queue droppedPacketLengthsQueueOverflow:sum 1139776
scalar BulkTransfer.server.ppp[1].ppp transmissionState:timeavg 0.53230191999986
scalar BulkTransfer.server.ppp[1].ppp rxPkOk:count 11593
scalar BulkTransfer.server.ppp[1].ppp rxPkOk:sum(packetBytes) 3996719
scalar BulkTransfer.server.ppp[1].ppp txPk:count 11665
scalar BulkTransfer.server.ppp[1].ppp txPk:sum(packetBytes) 3326887
scalar BulkTransfer.server.ppp[1].ppp rcvdPkFromHl:count 11665
scalar BulkTransfer.server.ppp[1].ppp rcvdPkFromHl:sum(packetBytes) 3245232
scalar BulkTransfer.server.ppp[1].ppp passedUpPk:count 11593
scalar BulkTransfer.server.ppp[1].ppp passedUpPk:sum(packetBytes) 3915568
scalar BulkTransfer.server.ppp[1].ppp packetDropIncorrectlyReceived:count 0
scalar BulkTransfer.server.ppp[1].ppp packetDropIncorrectlyReceived:sum(packetBytes) 0
scalar BulkTransfer.server.ppp[1].ppp packetDropInterfaceDown:count 0
scalar BulkTransfer.server.ppp[1].ppp packetDropInterfaceDown:sum(packetBytes) 0
scalar BulkTransfer.server.ppp[1] packetDropInterfaceDown:count 0
scalar BulkTransfer.server.ppp[1] packetDropInterfaceDown:sum(packetBytes) 0
scalar BulkTransfer.server.ppp[1] packetDropNoCarrier:count 0
scalar BulkTransfer.server.ppp[1] packetDropNoCarrier:sum(packetBytes) 0
scalar BulkTransfer.server.ipv4.ip packetDropAddressResolutionFailed:count 0
scalar BulkTransfer.server.ipv4.ip packetDropAddressResolutionFailed:sum(packetBytes) 0
scalar BulkTransfer.server.ipv4.ip packetDropHopLimitReached:count 0
scalar BulkTransfer.server.ipv4.ip packetDropHopLimitReached:sum(packetBytes) 0
scalar BulkTransfer.server.ipv4.ip packetDropForwardingDisabled:count 0
scalar BulkTransfer.server.ipv4.ip packetDropForwardingDisabled:sum(packetBytes) 0
scalar BulkTransfer.server.ipv4.ip packetDropLifetimeExpired:count 0
scalar BulkTransfer.server.ipv4.ip packetDropLifetimeExpired:sum(packetBytes) 0
scalar BulkTransfer.server.ipv4.ip packetDropNoInterfaceFound:count 0
scalar BulkTransfer.server.ipv4.ip packetDropNoInterfaceFound:sum(packetBytes) 0
scalar BulkTransfer.server.ipv4.ip packetDropNoRouteFound:count 0
scalar BulkTransfer.server.ipv4.ip packetDropNoRouteFound:sum(packetBytes) 0
scalar BulkTransfer.server.ipv4.ip packetDropUndefined:count 0
scalar BulkTransfer.server.ipv4.ip packetDropUndefined:sum(packetBytes) 0
scalar BulkTransfer.server.ipv4.arp arpResolutionFailed:count 0
scalar BulkTransfer.server.ipv4.arp arpResolutionCompleted:count 0
scalar BulkTransfer.server.ipv4.arp arpResolutionInitiated:count 0
scalar BulkTransfer.server.ipv4.arp arpReplySent:count 0
scalar BulkTransfer.server.ipv4.arp arpReplySent:sum(packetBytes) 0
scalar BulkTransfer.server.ipv4.arp arpRequestSent:count 0
scalar BulkTransfer.server.ipv4.arp arpRequestSent:sum(packetBytes) 0
scalar BulkTransfer.server.udp packetReceived:count 0
scalar BulkTransfer.server.udp packetReceived:sum(packetBytes) 0
scalar BulkTransfer.server.udp packetSent:count 0
scalar BulkTransfer.server.udp packetSent:sum(packetBytes) 0
scalar BulkTransfer.server.udp passedUpPk:count 0
scalar BulkTransfer.server.udp droppedPkWrongPort:count 0
scalar BulkTransfer.server.udp droppedPkBadChecksum:count 0
scalar BulkTransfer.server.app[0].thread_17 packetReceived:count 3118
scalar BulkTransfer.server.app[0].thread_17 packetReceived:sum(packetBytes) 2011608
scalar BulkTransfer.server.app[0].thread_17 packetSent:count 3118
scalar BulkTransfer.server.app[0].thread_17 packetSent:sum(packetBytes) 4023216
scalar BulkTransfer.server.app[0].thread_18 packetReceived:count 2515
scalar BulkTransfer.server.app[0].thread_18 packetReceived:sum(packetBytes) 1547968
scalar BulkTransfer.server.app[0].thread_18 packetSent:count 2515
scalar BulkTransfer.server.app[0].thread_18 packetSent:sum(packetBytes) 3095936
scalar BulkTransfer.server.app[0].thread_19 packetReceived:count 3004
scalar BulkTransfer.server.app[0].thread_19 packetReceived:sum(packetBytes) 1860456
scalar BulkTransfer.server.app[0].thread_19 packetSent:count 3004
scalar BulkTransfer.server.app[0].thread_19 packetSent:sum(packetBytes) 3720912
scalar BulkTransfer.server.app[0] bytesRcvd 5420032
scalar BulkTransfer.server.app[0] bytesSent 10840064
scalar BulkTransfer.server.app[0] packetReceived:count 8637
scalar BulkTransfer.server.app[0] packetReceived:sum(packetBytes) 5420032
scalar BulkTransfer.server.app[0] packetSent:count 8637
scalar BulkTransfer.server.app[0] packetSent:sum(packetBytes) 10840064
scalar BulkTransfer.router.lo[0].lo rcvdPkFromHl:count 0
scalar BulkTransfer.router.lo[0].lo rcvdPkFromHl:sum(packetBytes) 0
scalar BulkTransfer.router.lo[0].lo passedUpPk:count 0
scalar BulkTransfer.router.lo[0].lo passedUpPk:sum(packetBytes) 0
scalar BulkTransfer.router.lo[0] packetDropInterfaceDown:count 0
scalar BulkTransfer.router.lo[0] packetDropInterfaceDown:sum(packetBytes) 0
scalar BulkTransfer.router.lo[0] packetDropNoCarrier:count 0
scalar BulkTransfer.router.lo[0] packetDropNoCarrier:sum(packetBytes) 0
scalar BulkTransfer.router.ppp[0].queue queueLength:last 0
scalar BulkTransfer.router.ppp[0].queue queueLength:max 0
scalar BulkTransfer.router.ppp[0].queue queueLength:timeavg 0
scalar BulkTransfer.router.ppp[0].queue queueBitLength:last 0
scalar BulkTransfer.router.ppp[0].queue queueBitLength:max 0
scalar BulkTransfer.router.ppp[0].queue queueBitLength:timeavg 0
scalar BulkTransfer.router.ppp[0].queue outgoingPackets:count 0
scalar BulkTransfer.router.ppp[0].queue outgoingPacketLengths:sum 0
scalar BulkTransfer.router.ppp[0].queue incomingPackets:count 0
scalar BulkTransfer.router.ppp[0].queue incomingPacketLengths:sum 0
scalar BulkTransfer.router.ppp[0].queue droppedPacketsQueueOverflow:count 0
scalar BulkTransfer.router.ppp[0].queue droppedPacketLengthsQueueOverflow:sum 0
scalar BulkTransfer.router.ppp[0].ppp transmissionState:timeavg 0
scalar BulkTransfer.router.ppp[0].ppp rxPkOk:count 0
scalar BulkTransfer.router.ppp[0].ppp rxPkOk:sum(packetBytes) 0
scalar BulkTransfer.router.ppp[0].ppp txPk:count 0
scalar BulkTransfer.router.ppp[0].ppp txPk:sum(packetBytes) 0
scalar BulkTransfer.router.ppp[0].ppp rcvdPkFromHl:count 0
scalar BulkTransfer.router.ppp[0].ppp rcvdPkFromHl:sum(packetBytes) 0
scalar BulkTransfer.router.ppp[0].ppp passedUpPk:count 0
scalar BulkTransfer.router.ppp[0].ppp passedUpPk:sum(packetBytes) 0
scalar BulkTransfer.router.ppp[0].ppp packetDropIncorrectlyReceived:count 0
scalar BulkTransfer.router.ppp[0].ppp packetDropIncorrectlyReceived:sum(packetBytes) 0
scalar BulkTransfer.router.ppp[0].ppp packetDropInterfaceDown:count 0
scalar BulkTransfer.router.ppp[0].ppp packetDropInterfaceDown:sum(packetBytes) 0
scalar BulkTransfer.router.ppp[0] packetDropInterfaceDown:count 0
scalar BulkTransfer.router.ppp[0] packetDropInterfaceDown:sum(packetBytes) 0
scalar BulkTransfer.router.ppp[0] packetDropNoCarrier:count 0
scalar BulkTransfer.router.ppp[0] packetDropNoCarrier:sum(packetBytes) 0
scalar BulkTransfer.router.ppp[1].queue queueLength:last 0
scalar BulkTransfer.router.ppp[1].queue queueLength:max 10
scalar BulkTransfer.router.ppp[1].queue queueLength:timeavg 0.021850496
scalar BulkTransfer.router.ppp[1].queue queueBitLength:last 0
scalar BulkTransfer.router.ppp[1].queue queueBitLength:max 3200
scalar BulkTransfer.router.ppp[1].queue queueBitLength:timeavg 6.99215872
scalar BulkTransfer.router.ppp[1].queue outgoingPackets:count 4957
scalar BulkTransfer.router.ppp[1].queue outgoingPacketLengths:sum 10346656
scalar BulkTransfer.router.ppp[1].queue incomingPackets:count 4958
scalar BulkTransfer.router.ppp[1].queue incomingPacketLengths:sum 10346976
scalar BulkTransfer.router.ppp[1].queue droppedPacketsQueueOverflow:count 1
scalar BulkTransfer.router.ppp[1].queue droppedPacketLengthsQueueOverflow:sum 320
scalar BulkTransfer.router.ppp[1].ppp transmissionState:timeavg 0.21248496
scalar BulkTransfer.router.ppp[1].ppp rxPkOk:count 5056
scalar BulkTransfer.router.ppp[1].ppp rxPkOk:sum(packetBytes) 1842420
scalar BulkTransfer.router.ppp[1].ppp txPk:count 4957
scalar BulkTransfer.router.ppp[1].ppp txPk:sum(packetBytes) 1328031
scalar BulkTransfer.router.ppp[1].ppp rcvdPkFromHl:count 4957
scalar BulkTransfer.router.ppp[1].ppp rcvdPkFromHl:sum(packetBytes) 1293332
scalar BulkTransfer.router.ppp[1].ppp passedUpPk:count 5056
scalar BulkTransfer.router.ppp[1].ppp passedUpPk:sum(packetBytes) 1807028
scalar BulkTransfer.router.ppp[1].ppp packetDropIncorrectlyReceived:count 0
scalar BulkTransfer.router.ppp[1].ppp packetDropIncorrectlyReceived:sum(packetBytes) 0
scalar BulkTransfer.router.ppp[1].ppp packetDropInterfaceDown:count 0
scalar BulkTransfer.router.ppp[1].ppp packetDropInterfaceDown:sum(packetBytes) 0
scalar BulkTransfer.router.ppp[1] packetDropInterfaceDown:count 0
scalar BulkTransfer.router.ppp[1] packetDropInterfaceDown:sum(packetBytes) 0
scalar BulkTransfer.router.ppp[1] packetDropNoCarrier:count 0
scalar BulkTransfer.router.ppp[1] packetDropNoCarrier:sum(packetBytes) 0
scalar BulkTransfer.router.ppp[2].queue queueLength:last 0
scalar BulkTransfer.router.ppp[2].queue queueLength:max 10
scalar BulkTransfer.router.ppp[2].queue queueLength:timeavg 0.03307056
scalar BulkTransfer.router.ppp[2].queue queueBitLength:last 0
scalar BulkTransfer.router.ppp[2].queue queueBitLength:max 3200
scalar BulkTransfer.router.ppp[2].queue queueBitLength:timeavg 10.5825792
scalar BulkTransfer.router.ppp[2].queue outgoingPackets:count 6706
scalar BulkTransfer.router.ppp[2].queue outgoingPacketLengths:sum 15614560
scalar BulkTransfer.router.ppp[2].queue incomingPackets:count 6707
scalar BulkTransfer.router.ppp[2].queue incomingPacketLengths:sum 15614880
scalar BulkTransfer.router.ppp[2].queue droppedPacketsQueueOverflow:count 1
scalar BulkTransfer.router.ppp[2].queue droppedPacketLengthsQueueOverflow:sum 320
scalar BulkTransfer.router.ppp[2].ppp transmissionState:timeavg 0.31980191999997
scalar BulkTransfer.router.ppp[2].ppp rxPkOk:count 6784
scalar BulkTransfer.router.ppp[2].ppp rxPkOk:sum(packetBytes) 2252740
scalar BulkTransfer.router.ppp[2].ppp txPk:count 6706
scalar BulkTransfer.router.ppp[2].ppp txPk:sum(packetBytes) 1998762
scalar BulkTransfer.router.ppp[2].ppp rcvdPkFromHl:count 6706
scalar BulkTransfer.router.ppp[2].ppp rcvdPkFromHl:sum(packetBytes) 1951820
scalar BulkTransfer.router.ppp[2].ppp passedUpPk:count 6784
scalar BulkTransfer.router.ppp[2].ppp passedUpPk:sum(packetBytes) 2205252
scalar BulkTransfer.router.ppp[2].ppp packetDropIncorrectlyReceived:count 0
scalar BulkTransfer.router.ppp[2].ppp packetDropIncorrectlyReceived:sum(packetBytes) 0
scalar BulkTransfer.router.ppp[2].ppp packetDropInterfaceDown:count 0
scalar BulkTransfer.router.ppp[2].ppp packetDropInterfaceDown:sum(packetBytes) 0
scalar BulkTransfer.router.ppp[2] packetDropInterfaceDown:count 0
scalar BulkTransfer.router.ppp[2] packetDropInterfaceDown:sum(packetBytes) 0
scalar BulkTransfer.router.ppp[2] packetDropNoCarrier:count 0
scalar BulkTransfer.router.ppp[2] packetDropNoCarrier:sum(packetBytes) 0
scalar BulkTransfer.router.ppp[3].queue queueLength:last 0
scalar BulkTransfer.router.ppp[3].queue queueLength:max 10
scalar BulkTransfer.router.ppp[3].queue queueLength:timeavg 2.7635258433643
scalar BulkTransfer.router.ppp[3].queue queueBitLength:last 0
scalar BulkTransfer.router.ppp[3].queue queueBitLength:max 46080
scalar BulkTransfer.router.ppp[3].queue queueBitLength:timeavg 9432.9661855244
scalar BulkTransfer.router.ppp[3].queue outgoingPackets:count 11594
scalar BulkTransfer.router.ppp[3].queue outgoingPacketLengths:sum 31329152
scalar BulkTransfer.router.ppp[3].queue incomingPackets:count 11840
scalar BulkTransfer.router.ppp[3].queue incomingPacketLengths:sum 32098240
scalar BulkTransfer.router.ppp[3].queue droppedPacketsQueueOverflow:count 246
scalar BulkTransfer.router.ppp[3].queue droppedPacketLengthsQueueOverflow:sum 769088
scalar BulkTransfer.router.ppp[3].ppp transmissionState:timeavg 0.63952004484033
scalar BulkTransfer.router.ppp[3].ppp rxPkOk:count 11665
scalar BulkTransfer.router.ppp[3].ppp rxPkOk:sum(packetBytes) 3326887
scalar BulkTransfer.router.ppp[3].ppp txPk:count 11594
scalar BulkTransfer.router.ppp[3].ppp txPk:sum(packetBytes) 3997302
scalar BulkTransfer.router.ppp[3].ppp rcvdPkFromHl:count 11594
scalar BulkTransfer.router.ppp[3].ppp rcvdPkFromHl:sum(packetBytes) 3916144
scalar BulkTransfer.router.ppp[3].ppp passedUpPk:count 11665
scalar BulkTransfer.router.ppp[3].ppp passedUpPk:sum(packetBytes) 3245232
scalar BulkTransfer.router.ppp[3].ppp packetDropIncorrectlyReceived:count 0
scalar BulkTransfer.router.ppp[3].ppp packetDropIncorrectlyReceived:sum(packetBytes) 0
scalar BulkTransfer.router.ppp[3].ppp packetDropInterfaceDown:count 0
scalar BulkTransfer.router.ppp[3].ppp packetDropInterfaceDown:sum(packetBytes) 0
scalar BulkTransfer.router.ppp[3] packetDropInterfaceDown:count 0
scalar BulkTransfer.router.ppp[3] packetDropInterfaceDown:sum(packetBytes) 0
scalar BulkTransfer.router.ppp[3] packetDropNoCarrier:count 0
scalar BulkTransfer.router.ppp[3] packetDropNoCarrier:sum(packetBytes) 0
scalar BulkTransfer.router.ipv4.ip packetDropAddressResolutionFailed:count 0
scalar BulkTransfer.router.ipv4.ip packetDropAddressResolutionFailed:sum(packetBytes) 0
scalar BulkTransfer.router.ipv4.ip packetDropHopLimitReached:count 0
scalar BulkTransfer.router.ipv4.ip packetDropHopLimitReached:sum(packetBytes) 0
scalar BulkTransfer.router.ipv4.ip packetDropForwardingDisabled:count 0
scalar BulkTransfer.router.ipv4.ip packetDropForwardingDisabled:sum(packetBytes) 0
scalar BulkTransfer.router.ipv4.ip packetDropLifetimeExpired:count 0
scalar BulkTransfer.router.ipv4.ip packetDropLifetimeExpired:sum(packetBytes) 0
scalar BulkTransfer.router.ipv4.ip packetDropNoInterfaceFound:count 0
scalar BulkTransfer.router.ipv4.ip packetDropNoInterfaceFound:sum(packetBytes) 0
scalar BulkTransfer.router.ipv4.ip packetDropNoRouteFound:count 0
scalar BulkTransfer.router.ipv4.ip packetDropNoRouteFound:sum(packetBytes) 0
scalar BulkTransfer.router.ipv4.ip packetDropUndefined:count 0
scalar BulkTransfer.router.ipv4.ip packetDropUndefined:sum(packetBytes) 0
scalar BulkTransfer.router.ipv4.arp arpResolutionFailed:count 0
scalar BulkTransfer.router.ipv4.arp arpResolutionCompleted:count 0
scalar BulkTransfer.router.ipv4.arp arpResolutionInitiated:count 0
scalar BulkTransfer.router.ipv4.arp arpReplySent:count 0
scalar BulkTransfer.router.ipv4.arp arpReplySent:sum(packetBytes) 0
scalar BulkTransfer.router.ipv4.arp arpRequestSent:count 0
scalar BulkTransfer.router.ipv4.arp arpRequestSent:sum(packetBytes) 0
scalar BulkTransfer.client1.ppp[0].queue queueingTime:histogram:count 0
scalar BulkTransfer.client1.ppp[0].queue queueingTime:histogram:sumweights 0
scalar BulkTransfer.client1.ppp[0].queue queueingTime:histogram:mean -nan
scalar BulkTransfer.client1.ppp[0].queue queueingTime:histogram:stddev nan
scalar BulkTransfer.client1.ppp[0].queue queueingTime:histogram:min nan
scalar BulkTransfer.client1.ppp[0].queue queueingTime:histogram:max nan
scalar BulkTransfer.client1.ppp[0].queue queueingTime:histogram:numbins 1
scalar BulkTransfer.client1.ppp[0].queue queueingTime:histogram:rangemin 0
scalar BulkTransfer.client1.ppp[0].queue queueingTime:histogram:rangemax 1
scalar BulkTransfer.client1.ppp[0].queue queueingTime:histogram:underflows 0
scalar BulkTransfer.client1.ppp[0].queue queueingTime:histogram:overflows 0
scalar BulkTransfer.client1.ppp[0].queue outgoingPacketLengths:histogram:count 0
scalar BulkTransfer.client1.ppp[0].queue outgoingPacketLengths:histogram:sumweights 0
scalar BulkTransfer.client1.ppp[0].queue outgoingPacketLengths:histogram:mean -nan
scalar BulkTransfer.client1.ppp[0].queue outgoingPacketLengths:histogram:stddev nan
scalar BulkTransfer.client1.ppp[0].queue outgoingPacketLengths:histogram:min nan
scalar BulkTransfer.client1.ppp[0].queue outgoingPacketLengths:histogram:max nan
scalar BulkTransfer.client1.ppp[0].queue outgoingPacketLengths:histogram:numbins 1
scalar BulkTransfer.client1.ppp[0].queue outgoingPacketLengths:histogram:rangemin 0
scalar BulkTransfer.client1.ppp[0].queue outgoingPacketLengths:histogram:rangemax 1
scalar BulkTransfer.client1.ppp[0].queue outgoingPacketLengths:histogram:underflows 0
scalar BulkTransfer.client1.ppp[0].queue outgoingPacketLengths:histogram:overflows 0
scalar BulkTransfer.client1.ppp[0].queue flowQueueingTime:histogram:count 0
scalar BulkTransfer.client1.ppp[0].queue flowQueueingTime:histogram:sumweights 0
scalar BulkTransfer.client1.ppp[0].queue flowQueueingTime:histogram:mean -nan
scalar BulkTransfer.client1.ppp[0].queue flowQueueingTime:histogram:stddev nan
scalar BulkTransfer.client1.ppp[0].queue flowQueueingTime:histogram:min nan
scalar BulkTransfer.client1.ppp[0].queue flowQueueingTime:histogram:max nan
scalar BulkTransfer.client1.ppp[0].queue flowQueueingTime:histogram:numbins 1
scalar BulkTransfer.client1.ppp[0].queue flowQueueingTime:histogram:rangemin 0
scalar BulkTransfer.client1.ppp[0].queue flowQueueingTime:histogram:rangemax 1
scalar BulkTransfer.client1.ppp[0].queue flowQueueingTime:histogram:underflows 0
scalar BulkTransfer.client1.ppp[0].queue flowQueueingTime:histogram:overflows 0
scalar BulkTransfer.client1.ppp[0].queue incomingPacketLengths:histogram:count 0
scalar BulkTransfer.client1.ppp[0].queue incomingPacketLengths:histogram:sumweights 0
scalar BulkTransfer.client1.ppp[0].queue incomingPacketLengths:histogram:mean -nan
scalar BulkTransfer.client1.ppp[0].queue incomingPacketLengths:histogram:stddev nan
scalar BulkTransfer.client1.ppp[0].queue incomingPacketLengths:histogram:min nan
scalar BulkTransfer.client1.ppp[0].queue incomingPacketLengths:histogram:max nan
scalar BulkTransfer.client1.ppp[0].queue incomingPacketLengths:histogram:numbins 1
scalar BulkTransfer.client1.ppp[0].queue incomingPacketLengths:histogram:rangemin 0
scalar BulkTransfer.client1.ppp[0].queue incomingPacketLengths:histogram:rangemax 1
scalar BulkTransfer.client1.ppp[0].queue incomingPacketLengths:histogram:underflows 0
scalar BulkTransfer.client1.ppp[0].queue incomingPacketLengths:histogram:overflows 0
scalar BulkTransfer.client1.ppp[1].queue queueingTime:histogram:count 7354
scalar BulkTransfer.client1.ppp[1].queue queueingTime:histogram:sumweights 7354
scalar BulkTransfer.client1.ppp[1].queue queueingTime:histogram:mean 0.01666257277672
scalar BulkTransfer.client1.ppp[1].queue queueingTime:histogram:stddev 0.017007244357137
scalar BulkTransfer.client1.ppp[1].queue queueingTime:histogram:min 0
scalar BulkTransfer.client1.ppp[1].queue queueingTime:histogram:max 0.046264
scalar BulkTransfer.client1.ppp[1].queue queueingTime:histogram:numbins 47
scalar BulkTransfer.client1.ppp[1].queue queueingTime:histogram:rangemin 0
scalar BulkTransfer.client1.ppp[1].queue queueingTime:histogram:rangemax 0.047
scalar BulkTransfer.client1.ppp[1].queue queueingTime:histogram:underflows 0
scalar BulkTransfer.client1.ppp[1].queue queueingTime:histogram:overflows 0
scalar BulkTransfer.client1.ppp[1].queue outgoingPacketLengths:histogram:count 7354
scalar BulkTransfer.client1.ppp[1].queue outgoingPacketLengths:histogram:sumweights 7354
scalar BulkTransfer.client1.ppp[1].queue outgoingPacketLengths:histogram:mean 2542.7206962197
scalar BulkTransfer.client1.ppp[1].queue outgoingPacketLengths:histogram:stddev 2142.6956942925
scalar BulkTransfer.client1.ppp[1].queue outgoingPacketLengths:histogram:min 320
scalar BulkTransfer.client1.ppp[1].queue outgoingPacketLengths:histogram:max 4608
scalar BulkTransfer.client1.ppp[1].queue outgoingPacketLengths:histogram:numbins 57
scalar BulkTransfer.client1.ppp[1].queue outgoingPacketLengths:histogram:rangemin 0
scalar BulkTransfer.client1.ppp[1].queue outgoingPacketLengths:histogram:rangemax 5700
scalar BulkTransfer.client1.ppp[1].queue outgoingPacketLengths:histogram:underflows 0
scalar BulkTransfer.client1.ppp[1].queue outgoingPacketLengths:histogram:overflows 0
scalar BulkTransfer.client1.ppp[1].queue flowQueueingTime:histogram:count 0
scalar BulkTransfer.client1.ppp[1].queue flowQueueingTime:histogram:sumweights 0
scalar BulkTransfer.client1.ppp[1].queue flowQueueingTime:histogram:mean -nan
scalar BulkTransfer.client1.ppp[1].queue flowQueueingTime:histogram:stddev nan
scalar BulkTransfer.client1.ppp[1].queue flowQueueingTime:histogram:min nan
scalar BulkTransfer.client1.ppp[1].queue flowQueueingTime:histogram:max nan
scalar BulkTransfer.client1.ppp[1].queue flowQueueingTime:histogram:numbins 1
scalar BulkTransfer.client1.ppp[1].queue flowQueueingTime:histogram:rangemin 0
scalar BulkTransfer.client1.ppp[1].queue flowQueueingTime:histogram:rangemax 1
scalar BulkTransfer.client1.ppp[1].queue flowQueueingTime:histogram:underflows 0
scalar BulkTransfer.client1.ppp[1].queue flowQueueingTime:histogram:overflows 0
scalar BulkTransfer.client1.ppp[1].queue incomingPacketLengths:histogram:count 7508
scalar BulkTransfer.client1.ppp[1].queue incomingPacketLengths:histogram:sumweights 7508
scalar BulkTransfer.client1.ppp[1].queue incomingPacketLengths:histogram:mean 2580.5135855088
scalar BulkTransfer.client1.ppp[1].queue incomingPacketLengths:histogram:stddev 2140.9700980285
scalar BulkTransfer.client1.ppp[1].queue incomingPacketLengths:histogram:min 320
scalar BulkTransfer.client1.ppp[1].queue incomingPacketLengths:histogram:max 4608
scalar BulkTransfer.client1.ppp[1].queue incomingPacketLengths:histogram:numbins 57
scalar BulkTransfer.client1.ppp[1].queue incomingPacketLengths:histogram:rangemin 0
scalar BulkTransfer.client1.ppp[1].queue incomingPacketLengths:histogram:rangemax 5700
scalar BulkTransfer.client1.ppp[1].queue incomingPacketLengths:histogram:underflows 0
scalar BulkTransfer.client1.ppp[1].queue incomingPacketLengths:histogram:overflows 0
scalar BulkTransfer.client1.app[0] endToEndDelay:histogram:count 3473
scalar BulkTransfer.client1.app[0] endToEndDelay:histogram:sumweights 3473
scalar BulkTransfer.client1.app[0] endToEndDelay:histogram:mean 12.724720731517
scalar BulkTransfer.client1.app[0] endToEndDelay:histogram:stddev 6.6819634372183
scalar BulkTransfer.client1.app[0] endToEndDelay:histogram:min 0.0050401
scalar BulkTransfer.client1.app[0] endToEndDelay:histogram:max 22.9624541
scalar BulkTransfer.client1.app[0] endToEndDelay:histogram:numbins 58
scalar BulkTransfer.client1.app[0] endToEndDelay:histogram:rangemin 0
scalar BulkTransfer.client1.app[0] endToEndDelay:histogram:rangemax 23.2
scalar BulkTransfer.client1.app[0] endToEndDelay:histogram:underflows 0
scalar BulkTransfer.client1.app[0] endToEndDelay:histogram:overflows 0
scalar BulkTransfer.client1.app[0] endToEndDelay:weightedHistogram:count 3473
scalar BulkTransfer.client1.app[0] endToEndDelay:weightedHistogram:sumweights 14892224
scalar BulkTransfer.client1.app[0] endToEndDelay:weightedHistogram:mean 12.724720731517
scalar BulkTransfer.client1.app[0] endToEndDelay:weightedHistogram:stddev 6.6819634372177
scalar BulkTransfer.client1.app[0] endToEndDelay:weightedHistogram:min 0.0050401
scalar BulkTransfer.client1.app[0] endToEndDelay:weightedHistogram:max 22.9624541
scalar BulkTransfer.client1.app[0] endToEndDelay:weightedHistogram:numbins 58
scalar BulkTransfer.client1.app[0] endToEndDelay:weightedHistogram:rangemin 0
scalar BulkTransfer.client1.app[0] endToEndDelay:weightedHistogram:rangemax 23.2
scalar BulkTransfer.client1.app[0] endToEndDelay:weightedHistogram:underflows 0
scalar BulkTransfer.client1.app[0] endToEndDelay:weightedHistogram:overflows 0
scalar BulkTransfer.client2.ppp[0].queue queueingTime:histogram:count 5057
scalar BulkTransfer.client2.ppp[0].queue queueingTime:histogram:sumweights 5057
scalar BulkTransfer.client2.ppp[0].queue queueingTime:histogram:mean 0.0092310317579593
scalar BulkTransfer.client2.ppp[0].queue queueingTime:histogram:stddev 0.012453865528899
scalar BulkTransfer.client2.ppp[0].queue queueingTime:histogram:min 0
scalar BulkTransfer.client2.ppp[0].queue queueingTime:histogram:max 0.0458876
scalar BulkTransfer.client2.ppp[0].queue queueingTime:histogram:numbins 46
scalar BulkTransfer.client2.ppp[0].queue queueingTime:histogram:rangemin 0
scalar BulkTransfer.client2.ppp[0].queue queueingTime:histogram:rangemax 0.046
scalar BulkTransfer.client2.ppp[0].queue queueingTime:histogram:underflows 0
scalar BulkTransfer.client2.ppp[0].queue queueingTime:histogram:overflows 0
scalar BulkTransfer.client2.ppp[0].queue outgoingPacketLengths:histogram:count 5057
scalar BulkTransfer.client2.ppp[0].queue outgoingPacketLengths:histogram:sumweights 5057
scalar BulkTransfer.client2.ppp[0].queue outgoingPacketLengths:histogram:mean 2859.5673324105
scalar BulkTransfer.client2.ppp[0].queue outgoingPacketLengths:histogram:stddev 2107.3950188072
scalar BulkTransfer.client2.ppp[0].queue outgoingPacketLengths:histogram:min 320
scalar BulkTransfer.client2.ppp[0].queue outgoingPacketLengths:histogram:max 4608
scalar BulkTransfer.client2.ppp[0].queue outgoingPacketLengths:histogram:numbins 57
scalar BulkTransfer.client2.ppp[0].queue outgoingPacketLengths:histogram:rangemin 0
scalar BulkTransfer.client2.ppp[0].queue outgoingPacketLengths:histogram:rangemax 5700
scalar BulkTransfer.client2.ppp[0].queue outgoingPacketLengths:histogram:underflows 0
scalar BulkTransfer.client2.ppp[0].queue outgoingPacketLengths:histogram:overflows 0
scalar BulkTransfer.client2.ppp[0].queue flowQueueingTime:histogram:count 0
scalar BulkTransfer.client2.ppp[0].queue flowQueueingTime:histogram:sumweights 0
scalar BulkTransfer.client2.ppp[0].queue flowQueueingTime:histogram:mean -nan
scalar BulkTransfer.client2.ppp[0].queue flowQueueingTime:histogram:stddev nan
scalar BulkTransfer.client2.ppp[0].queue flowQueueingTime:histogram:min nan
scalar BulkTransfer.client2.ppp[0].queue flowQueueingTime:histogram:max nan
scalar BulkTransfer.client2.ppp[0].queue flowQueueingTime:histogram:numbins 1
scalar BulkTransfer.client2.ppp[0].queue flowQueueingTime:histogram:rangemin 0
scalar BulkTransfer.client2.ppp[0].queue flowQueueingTime:histogram:rangemax 1
scalar BulkTransfer.client2.ppp[0].queue flowQueueingTime:histogram:underflows 0
scalar BulkTransfer.client2.ppp[0].queue flowQueueingTime:histogram:overflows 0
scalar BulkTransfer.client2.ppp[0].queue incomingPacketLengths:histogram:count 5081
scalar BulkTransfer.client2.ppp[0].queue incomingPacketLengths:histogram:sumweights 5081
scalar BulkTransfer.client2.ppp[0].queue incomingPacketLengths:histogram:mean 2866.9820901397
scalar BulkTransfer.client2.ppp[0].queue incomingPacketLengths:histogram:stddev 2105.9884917623
scalar BulkTransfer.client2.ppp[0].queue incomingPacketLengths:histogram:min 320
scalar BulkTransfer.client2.ppp[0].queue incomingPacketLengths:histogram:max 4608
scalar BulkTransfer.client2.ppp[0].queue incomingPacketLengths:histogram:numbins 57
scalar BulkTransfer.client2.ppp[0].queue incomingPacketLengths:histogram:rangemin 0
scalar BulkTransfer.client2.ppp[0].queue incomingPacketLengths:histogram:rangemax 5700
scalar BulkTransfer.client2.ppp[0].queue incomingPacketLengths:histogram:underflows 0
scalar BulkTransfer.client2.ppp[0].queue incomingPacketLengths:histogram:overflows 0
scalar BulkTransfer.client2.app[0] endToEndDelay:histogram:count 2011
scalar BulkTransfer.client2.app[0] endToEndDelay:histogram:sumweights 2011
scalar BulkTransfer.client2.app[0] endToEndDelay:histogram:mean 16.19675702213
scalar BulkTransfer.client2.app[0] endToEndDelay:histogram:stddev 9.2274056150936
scalar BulkTransfer.client2.app[0] endToEndDelay:histogram:min 0.0097042
scalar BulkTransfer.client2.app[0] endToEndDelay:histogram:max 26.701429
scalar BulkTransfer.client2.app[0] endToEndDelay:histogram:numbins 67
scalar BulkTransfer.client2.app[0] endToEndDelay:histogram:rangemin 0
scalar BulkTransfer.client2.app[0] endToEndDelay:histogram:rangemax 26.8
scalar BulkTransfer.client2.app[0] endToEndDelay:histogram:underflows 0
scalar BulkTransfer.client2.app[0] endToEndDelay:histogram:overflows 0
scalar BulkTransfer.client2.app[0] endToEndDelay:weightedHistogram:count 2011
scalar BulkTransfer.client2.app[0] endToEndDelay:weightedHistogram:sumweights 8623168
scalar BulkTransfer.client2.app[0] endToEndDelay:weightedHistogram:mean 16.196757022129
scalar BulkTransfer.client2.app[0] endToEndDelay:weightedHistogram:stddev 9.2274056150948
scalar BulkTransfer.client2.app[0] endToEndDelay:weightedHistogram:min 0.0097042
scalar BulkTransfer.client2.app[0] endToEndDelay:weightedHistogram:max 26.701429
scalar BulkTransfer.client2.app[0] endToEndDelay:weightedHistogram:numbins 67
scalar BulkTransfer.client2.app[0] endToEndDelay:weightedHistogram:rangemin 0
scalar BulkTransfer.client2.app[0] endToEndDelay:weightedHistogram:rangemax 26.8
scalar BulkTransfer.client2.app[0] endToEndDelay:weightedHistogram:underflows 0
scalar BulkTransfer.client2.app[0] endToEndDelay:weightedHistogram:overflows 0
scalar BulkTransfer.client3.ppp[0].queue queueingTime:histogram:count 6784
scalar BulkTransfer.client3.ppp[0].queue queueingTime:histogram:sumweights 6784
scalar BulkTransfer.client3.ppp[0].queue queueingTime:histogram:mean 0.0092241877705348
scalar BulkTransfer.client3.ppp[0].queue queueingTime:histogram:stddev 0.012761912794392
scalar BulkTransfer.client3.ppp[0].queue queueingTime:histogram:min 0
scalar BulkTransfer.client3.ppp[0].queue queueingTime:histogram:max 0.04664
scalar BulkTransfer.client3.ppp[0].queue queueingTime:histogram:numbins 47
scalar BulkTransfer.client3.ppp[0].queue queueingTime:histogram:rangemin 0
scalar BulkTransfer.client3.ppp[0].queue queueingTime:histogram:rangemax 0.047
scalar BulkTransfer.client3.ppp[0].queue queueingTime:histogram:underflows 0
scalar BulkTransfer.client3.ppp[0].queue queueingTime:histogram:overflows 0
scalar BulkTransfer.client3.ppp[0].queue outgoingPacketLengths:histogram:count 6784
scalar BulkTransfer.client3.ppp[0].queue outgoingPacketLengths:histogram:sumweights 6784
scalar BulkTransfer.client3.ppp[0].queue outgoingPacketLengths:histogram:mean 2600.5330188679
scalar BulkTransfer.client3.ppp[0].queue outgoingPacketLengths:histogram:stddev 2139.8012975261
scalar BulkTransfer.client3.ppp[0].queue outgoingPacketLengths:histogram:min 320
scalar BulkTransfer.client3.ppp[0].queue outgoingPacketLengths:histogram:max 4608
scalar BulkTransfer.client3.ppp[0].queue outgoingPacketLengths:histogram:numbins 57
scalar BulkTransfer.client3.ppp[0].queue outgoingPacketLengths:histogram:rangemin 0
scalar BulkTransfer.client3.ppp[0].queue outgoingPacketLengths:histogram:rangemax 5700
scalar BulkTransfer.client3.ppp[0].queue outgoingPacketLengths:histogram:underflows 0
scalar BulkTransfer.client3.ppp[0].queue outgoingPacketLengths:histogram:overflows 0
scalar BulkTransfer.client3.ppp[0].queue flowQueueingTime:histogram:count 0
scalar BulkTransfer.client3.ppp[0].queue flowQueueingTime:histogram:sumweights 0
scalar BulkTransfer.client3.ppp[0].queue flowQueueingTime:histogram:mean -nan
scalar BulkTransfer.client3.ppp[0].queue flowQueueingTime:histogram:stddev nan
scalar BulkTransfer.client3.ppp[0].queue flowQueueingTime:histogram:min nan
scalar BulkTransfer.client3.ppp[0].queue flowQueueingTime:histogram:max nan
scalar BulkTransfer.client3.ppp[0].queue flowQueueingTime:histogram:numbins 1
scalar BulkTransfer.client3.ppp[0].queue flowQueueingTime:histogram:rangemin 0
scalar BulkTransfer.client3.ppp[0].queue flowQueueingTime:histogram:rangemax 1
scalar BulkTransfer.client3.ppp[0].queue flowQueueingTime:histogram:underflows 0
scalar BulkTransfer.client3.ppp[0].queue flowQueueingTime:histogram:overflows 0
scalar BulkTransfer.client3.ppp[0].queue incomingPacketLengths:histogram:count 6814
scalar BulkTransfer.client3.ppp[0].queue incomingPacketLengths:histogram:sumweights 6814
scalar BulkTransfer.client3.ppp[0].queue incomingPacketLengths:histogram:mean 2609.3712943939
scalar BulkTransfer.client3.ppp[0].queue incomingPacketLengths:histogram:stddev 2139.2182674121
scalar BulkTransfer.client3.ppp[0].queue incomingPacketLengths:histogram:min 320
scalar BulkTransfer.client3.ppp[0].queue incomingPacketLengths:histogram:max 4608
scalar BulkTransfer.client3.ppp[0].queue incomingPacketLengths:histogram:numbins 57
scalar BulkTransfer.client3.ppp[0].queue incomingPacketLengths:histogram:rangemin 0
scalar BulkTransfer.client3.ppp[0].queue incomingPacketLengths:histogram:rangemax 5700
scalar BulkTransfer.client3.ppp[0].queue incomingPacketLengths:histogram:underflows 0
scalar BulkTransfer.client3.ppp[0].queue incomingPacketLengths:histogram:overflows 0
scalar BulkTransfer.client3.app[0] endToEndDelay:histogram:count 3091
scalar BulkTransfer.client3.app[0] endToEndDelay:histogram:sumweights 3091
scalar BulkTransfer.client3.app[0] endToEndDelay:histogram:mean 12.217017353049
scalar BulkTransfer.client3.app[0] endToEndDelay:histogram:stddev 5.6921193967224
scalar BulkTransfer.client3.app[0] endToEndDelay:histogram:min 0.0100802
scalar BulkTransfer.client3.app[0] endToEndDelay:histogram:max 22.3213934
scalar BulkTransfer.client3.app[0] endToEndDelay:histogram:numbins 56
scalar BulkTransfer.client3.app[0] endToEndDelay:histogram:rangemin 0
scalar BulkTransfer.client3.app[0] endToEndDelay:histogram:rangemax 22.4
scalar BulkTransfer.client3.app[0] endToEndDelay:histogram:underflows 0
scalar BulkTransfer.client3.app[0] endToEndDelay:histogram:overflows 0
scalar BulkTransfer.client3.app[0] endToEndDelay:weightedHistogram:count 3091
scalar BulkTransfer.client3.app[0] endToEndDelay:weightedHistogram:sumweights 13254208
scalar BulkTransfer.client3.app[0] endToEndDelay:weightedHistogram:mean 12.21701735305
scalar BulkTransfer.client3.app[0] endToEndDelay:weightedHistogram:stddev 5.6921193967213
scalar BulkTransfer.client3.app[0] endToEndDelay:weightedHistogram:min 0.0100802
scalar BulkTransfer.client3.app[0] endToEndDelay:weightedHistogram:max 22.3213934
scalar BulkTransfer.client3.app[0] endToEndDelay:weightedHistogram:numbins 56
scalar BulkTransfer.client3.app[0] endToEndDelay:weightedHistogram:rangemin 0
scalar BulkTransfer.client3.app[0] endToEndDelay:weightedHistogram:rangemax 22.4
scalar BulkTransfer.client3.app[0] endToEndDelay:weightedHistogram:underflows 0
scalar BulkTransfer.client3.app[0] endToEndDelay:weightedHistogram:overflows 0
scalar BulkTransfer.server.ppp[0].queue queueingTime:histogram:count 7384
scalar BulkTransfer.server.ppp[0].queue queueingTime:histogram:sumweights 7384
scalar BulkTransfer.server.ppp[0].queue queueingTime:histogram:mean 0.015258078013754
scalar BulkTransfer.server.ppp[0].queue queueingTime:histogram:stddev 0.016658989409329
scalar BulkTransfer.server.ppp[0].queue queueingTime:histogram:min 0
scalar BulkTransfer.server.ppp[0].queue queueingTime:histogram:max 0.04664
scalar BulkTransfer.server.ppp[0].queue queueingTime:histogram:numbins 47
scalar BulkTransfer.server.ppp[0].queue queueingTime:histogram:rangemin 0
scalar BulkTransfer.server.ppp[0].queue queueingTime:histogram:rangemax 0.047
scalar BulkTransfer.server.ppp[0].queue queueingTime:histogram:underflows 0
scalar BulkTransfer.server.ppp[0].queue queueingTime:histogram:overflows 0
scalar BulkTransfer.server.ppp[0].queue outgoingPacketLengths:histogram:count 7384
scalar BulkTransfer.server.ppp[0].queue outgoingPacketLengths:histogram:sumweights 7384
scalar BulkTransfer.server.ppp[0].queue outgoingPacketLengths:histogram:mean 2368.767063922
scalar BulkTransfer.server.ppp[0].queue outgoingPacketLengths:histogram:stddev 2142.0246552368
scalar BulkTransfer.server.ppp[0].queue outgoingPacketLengths:histogram:min 320
scalar BulkTransfer.server.ppp[0].queue outgoingPacketLengths:histogram:max 4608
scalar BulkTransfer.server.ppp[0].queue outgoingPacketLengths:histogram:numbins 57
scalar BulkTransfer.server.ppp[0].queue outgoingPacketLengths:histogram:rangemin 0
scalar BulkTransfer.server.ppp[0].queue outgoingPacketLengths:histogram:rangemax 5700
scalar BulkTransfer.server.ppp[0].queue outgoingPacketLengths:histogram:underflows 0
scalar BulkTransfer.server.ppp[0].queue outgoingPacketLengths:histogram:overflows 0
scalar BulkTransfer.server.ppp[0].queue flowQueueingTime:histogram:count 0
scalar BulkTransfer.server.ppp[0].queue flowQueueingTime:histogram:sumweights 0
scalar BulkTransfer.server.ppp[0].queue flowQueueingTime:histogram:mean -nan
scalar BulkTransfer.server.ppp[0].queue flowQueueingTime:histogram:stddev nan
scalar BulkTransfer.server.ppp[0].queue flowQueueingTime:histogram:min nan
scalar BulkTransfer.server.ppp[0].queue flowQueueingTime:histogram:max nan
scalar BulkTransfer.server.ppp[0].queue flowQueueingTime:histogram:numbins 1
scalar BulkTransfer.server.ppp[0].queue flowQueueingTime:histogram:rangemin 0
scalar BulkTransfer.server.ppp[0].queue flowQueueingTime:histogram:rangemax 1
scalar BulkTransfer.server.ppp[0].queue flowQueueingTime:histogram:underflows 0
scalar BulkTransfer.server.ppp[0].queue flowQueueingTime:histogram:overflows 0
scalar BulkTransfer.server.ppp[0].queue incomingPacketLengths:histogram:count 7545
scalar BulkTransfer.server.ppp[0].queue incomingPacketLengths:histogram:sumweights 7545
scalar BulkTransfer.server.ppp[0].queue incomingPacketLengths:histogram:mean 2416.5492379059
scalar BulkTransfer.server.ppp[0].queue incomingPacketLengths:histogram:stddev 2143.6126975579
scalar BulkTransfer.server.ppp[0].queue incomingPacketLengths:histogram:min 320
scalar BulkTransfer.server.ppp[0].queue incomingPacketLengths:histogram:max 4608
scalar BulkTransfer.server.ppp[0].queue incomingPacketLengths:histogram:numbins 57
scalar BulkTransfer.server.ppp[0].queue incomingPacketLengths:histogram:rangemin 0
scalar BulkTransfer.server.ppp[0].queue incomingPacketLengths:histogram:rangemax 5700
scalar BulkTransfer.server.ppp[0].queue incomingPacketLengths:histogram:underflows 0
scalar BulkTransfer.server.ppp[0].queue incomingPacketLengths:histogram:overflows 0
scalar BulkTransfer.server.ppp[1].queue queueingTime:histogram:count 11665
scalar BulkTransfer.server.ppp[1].queue queueingTime:histogram:sumweights 11665
scalar BulkTransfer.server.ppp[1].queue queueingTime:histogram:mean 0.013075975093177
scalar BulkTransfer.server.ppp[1].queue queueingTime:histogram:stddev 0.014130568952936
scalar BulkTransfer.server.ppp[1].queue queueingTime:histogram:min 0
scalar BulkTransfer.server.ppp[1].queue queueingTime:histogram:max 0.04664
scalar BulkTransfer.server.ppp[1].queue queueingTime:histogram:numbins 57
scalar BulkTransfer.server.ppp[1].queue queueingTime:histogram:rangemin 0
scalar BulkTransfer.server.ppp[1].queue queueingTime:histogram:rangemax 0.057
scalar BulkTransfer.server.ppp[1].queue queueingTime:histogram:underflows 0
scalar BulkTransfer.server.ppp[1].queue queueingTime:histogram:overflows 0
scalar BulkTransfer.server.ppp[1].queue outgoingPacketLengths:histogram:count 11665
scalar BulkTransfer.server.ppp[1].queue outgoingPacketLengths:histogram:sumweights 11665
scalar BulkTransfer.server.ppp[1].queue outgoingPacketLengths:histogram:mean 2225.6198885555
scalar BulkTransfer.server.ppp[1].queue outgoingPacketLengths:histogram:stddev 2130.7925272343
scalar BulkTransfer.server.ppp[1].queue outgoingPacketLengths:histogram:min 320
scalar BulkTransfer.server.ppp[1].queue outgoingPacketLengths:histogram:max 4608
scalar BulkTransfer.server.ppp[1].queue outgoingPacketLengths:histogram:numbins 57
scalar BulkTransfer.server.ppp[1].queue outgoingPacketLengths:histogram:rangemin 0
scalar BulkTransfer.server.ppp[1].queue outgoingPacketLengths:histogram:rangemax 5700
scalar BulkTransfer.server.ppp[1].queue outgoingPacketLengths:histogram:underflows 0
scalar BulkTransfer.server.ppp[1].queue outgoingPacketLengths:histogram:overflows 0
scalar BulkTransfer.server.ppp[1].queue flowQueueingTime:histogram:count 0
scalar BulkTransfer.server.ppp[1].queue flowQueueingTime:histogram:sumweights 0
scalar BulkTransfer.server.ppp[1].queue flowQueueingTime:histogram:mean -nan
scalar BulkTransfer.server.ppp[1].queue flowQueueingTime:histogram:stddev nan
scalar BulkTransfer.server.ppp[1].queue flowQueueingTime:histogram:min nan
scalar BulkTransfer.server.ppp[1].queue flowQueueingTime:histogram:max nan
scalar BulkTransfer.server.ppp[1].queue flowQueueingTime:histogram:numbins 1
scalar BulkTransfer.server.ppp[1].queue flowQueueingTime:histogram:rangemin 0
scalar BulkTransfer.server.ppp[1].queue flowQueueingTime:histogram:rangemax 1
scalar BulkTransfer.server.ppp[1].queue flowQueueingTime:histogram:underflows 0
scalar BulkTransfer.server.ppp[1].queue flowQueueingTime:histogram:overflows 0
scalar BulkTransfer.server.ppp[1].queue incomingPacketLengths:histogram:count 11917
scalar BulkTransfer.server.ppp[1].queue incomingPacketLengths:histogram:sumweights 11917
scalar BulkTransfer.server.ppp[1].queue incomingPacketLengths:histogram:mean 2274.1992112109
scalar BulkTransfer.server.ppp[1].queue incomingPacketLengths:histogram:stddev 2135.6665330458
scalar BulkTransfer.server.ppp[1].queue incomingPacketLengths:histogram:min 320
scalar BulkTransfer.server.ppp[1].queue incomingPacketLengths:histogram:max 4608
scalar BulkTransfer.server.ppp[1].queue incomingPacketLengths:histogram:numbins 57
scalar BulkTransfer.server.ppp[1].queue incomingPacketLengths:histogram:rangemin 0
scalar BulkTransfer.server.ppp[1].queue incomingPacketLengths:histogram:rangemax 5700
scalar BulkTransfer.server.ppp[1].queue incomingPacketLengths:histogram:underflows 0
scalar BulkTransfer.server.ppp[1].queue incomingPacketLengths:histogram:overflows 0
scalar BulkTransfer.server.app[0].thread_17 endToEndDelay:histogram:count 3753
scalar BulkTransfer.server.app[0].thread_17 endToEndDelay:histogram:sumweights 3753
scalar BulkTransfer.server.app[0].thread_17 endToEndDelay:histogram:mean 25.893484211088
scalar BulkTransfer.server.app[0].thread_17 endToEndDelay:histogram:stddev 14.201407214534
scalar BulkTransfer.server.app[0].thread_17 endToEndDelay:histogram:min 0.0046641
scalar BulkTransfer.server.app[0].thread_17 endToEndDelay:histogram:max 48.848580997834
scalar BulkTransfer.server.app[0].thread_17 endToEndDelay:histogram:numbins 62
scalar BulkTransfer.server.app[0].thread_17 endToEndDelay:histogram:rangemin 0
scalar BulkTransfer.server.app[0].thread_17 endToEndDelay:histogram:rangemax 49.6
scalar BulkTransfer.server.app[0].thread_17 endToEndDelay:histogram:underflows 0
scalar BulkTransfer.server.app[0].thread_17 endToEndDelay:histogram:overflows 0
scalar BulkTransfer.server.app[0].thread_17 endToEndDelay:weightedHistogram:count 3753
scalar BulkTransfer.server.app[0].thread_17 endToEndDelay:weightedHistogram:sumweights 16092864
scalar BulkTransfer.server.app[0].thread_17 endToEndDelay:weightedHistogram:mean 25.893484211088
scalar BulkTransfer.server.app[0].thread_17 endToEndDelay:weightedHistogram:stddev 14.201407214534
scalar BulkTransfer.server.app[0].thread_17 endToEndDelay:weightedHistogram:min 0.0046641
scalar BulkTransfer.server.app[0].thread_17 endToEndDelay:weightedHistogram:max 48.848580997834
scalar BulkTransfer.server.app[0].thread_17 endToEndDelay:weightedHistogram:numbins 62
scalar BulkTransfer.server.app[0].thread_17 endToEndDelay:weightedHistogram:rangemin 0
scalar BulkTransfer.server.app[0].thread_17 endToEndDelay:weightedHistogram:rangemax 49.6
scalar BulkTransfer.server.app[0].thread_17 endToEndDelay:weightedHistogram:underflows 0
scalar BulkTransfer.server.app[0].thread_17 endToEndDelay:weightedHistogram:overflows 0
scalar BulkTransfer.server.app[0].thread_18 endToEndDelay:histogram:count 2888
scalar BulkTransfer.server.app[0].thread_18 endToEndDelay:histogram:sumweights 2888
scalar BulkTransfer.server.app[0].thread_18 endToEndDelay:histogram:mean 27.505678537616
scalar BulkTransfer.server.app[0].thread_18 endToEndDelay:histogram:stddev 13.135353400485
scalar BulkTransfer.server.app[0].thread_18 endToEndDelay:histogram:min 0.0093282
scalar BulkTransfer.server.app[0].thread_18 endToEndDelay:histogram:max 48.874429857975
scalar BulkTransfer.server.app[0].thread_18 endToEndDelay:histogram:numbins 49
scalar BulkTransfer.server.app[0].thread_18 endToEndDelay:histogram:rangemin 0
scalar BulkTransfer.server.app[0].thread_18 endToEndDelay:histogram:rangemax 49
scalar BulkTransfer.server.app[0].thread_18 endToEndDelay:histogram:underflows 0
scalar BulkTransfer.server.app[0].thread_18 endToEndDelay:histogram:overflows 0
scalar BulkTransfer.server.app[0].thread_18 endToEndDelay:weightedHistogram:count 2888
scalar BulkTransfer.server.app[0].thread_18 endToEndDelay:weightedHistogram:sumweights 12383744
scalar BulkTransfer.server.app[0].thread_18 endToEndDelay:weightedHistogram:mean 27.505678537616
scalar BulkTransfer.server.app[0].thread_18 endToEndDelay:weightedHistogram:stddev 13.135353400486
scalar BulkTransfer.server.app[0].thread_18 endToEndDelay:weightedHistogram:min 0.0093282
scalar BulkTransfer.server.app[0].thread_18 endToEndDelay:weightedHistogram:max 48.874429857975
scalar BulkTransfer.server.app[0].thread_18 endToEndDelay:weightedHistogram:numbins 49
scalar BulkTransfer.server.app[0].thread_18 endToEndDelay:weightedHistogram:rangemin 0
scalar BulkTransfer.server.app[0].thread_18 endToEndDelay:weightedHistogram:rangemax 49
scalar BulkTransfer.server.app[0].thread_18 endToEndDelay:weightedHistogram:underflows 0
scalar BulkTransfer.server.app[0].thread_18 endToEndDelay:weightedHistogram:overflows 0
scalar BulkTransfer.server.app[0].thread_19 endToEndDelay:histogram:count 3471
scalar BulkTransfer.server.app[0].thread_19 endToEndDelay:histogram:sumweights 3471
scalar BulkTransfer.server.app[0].thread_19 endToEndDelay:histogram:mean 25.396996618311
scalar BulkTransfer.server.app[0].thread_19 endToEndDelay:histogram:stddev 14.408677654062
scalar BulkTransfer.server.app[0].thread_19 endToEndDelay:histogram:min 0.0139922
scalar BulkTransfer.server.app[0].thread_19 endToEndDelay:histogram:max 48.447901457975
scalar BulkTransfer.server.app[0].thread_19 endToEndDelay:histogram:numbins 61
scalar BulkTransfer.server.app[0].thread_19 endToEndDelay:histogram:rangemin 0
scalar BulkTransfer.server.app[0].thread_19 endToEndDelay:histogram:rangemax 48.8
scalar BulkTransfer.server.app[0].thread_19 endToEndDelay:histogram:underflows 0
scalar BulkTransfer.server.app[0].thread_19 endToEndDelay:histogram:overflows 0
scalar BulkTransfer.server.app[0].thread_19 endToEndDelay:weightedHistogram:count 3471
scalar BulkTransfer.server.app[0].thread_19 endToEndDelay:weightedHistogram:sumweights 14883648
scalar BulkTransfer.server.app[0].thread_19 endToEndDelay:weightedHistogram:mean 25.39699661831
scalar BulkTransfer.server.app[0].thread_19 endToEndDelay:weightedHistogram:stddev 14.408677654062
scalar BulkTransfer.server.app[0].thread_19 endToEndDelay:weightedHistogram:min 0.0139922
scalar BulkTransfer.server.app[0].thread_19 endToEndDelay:weightedHistogram:max 48.447901457975
scalar BulkTransfer.server.app[0].thread_19 endToEndDelay:weightedHistogram:numbins 61
scalar BulkTransfer.server.app[0].thread_19 endToEndDelay:weightedHistogram:rangemin 0
scalar BulkTransfer.server.app[0].thread_19 endToEndDelay:weightedHistogram:rangemax 48.8
scalar BulkTransfer.server.app[0].thread_19 endToEndDelay:weightedHistogram:underflows 0
scalar BulkTransfer.server.app[0].thread_19 endToEndDelay:weightedHistogram:overflows 0
scalar BulkTransfer.server.app[0] endToEndDelay:histogram:count 10112
scalar BulkTransfer.server.app[0] endToEndDelay:histogram:sumweights 10112
scalar BulkTransfer.server.app[0] endToEndDelay:histogram:mean 26.18350683574
scalar BulkTransfer.server.app[0] endToEndDelay:histogram:stddev 14.003465207211
scalar BulkTransfer.server.app[0] endToEndDelay:histogram:min 0.0046641
scalar BulkTransfer.server.app[0] endToEndDelay:histogram:max 48.874429857975
scalar BulkTransfer.server.app[0] endToEndDelay:histogram:numbins 62
scalar BulkTransfer.server.app[0] endToEndDelay:histogram:rangemin 0
scalar BulkTransfer.server.app[0] endToEndDelay:histogram:rangemax 49.6
scalar BulkTransfer.server.app[0] endToEndDelay:histogram:underflows 0
scalar BulkTransfer.server.app[0] endToEndDelay:histogram:overflows 0
scalar BulkTransfer.server.app[0] endToEndDelay:weightedHistogram:count 10112
scalar BulkTransfer.server.app[0] endToEndDelay:weightedHistogram:sumweights 43360256
scalar BulkTransfer.server.app[0] endToEndDelay:weightedHistogram:mean 26.183506835739
scalar BulkTransfer.server.app[0] endToEndDelay:weightedHistogram:stddev 14.003465207212
scalar BulkTransfer.server.app[0] endToEndDelay:weightedHistogram:min 0.0046641
scalar BulkTransfer.server.app[0] endToEndDelay:weightedHistogram:max 48.874429857975
scalar BulkTransfer.server.app[0] endToEndDelay:weightedHistogram:numbins 62
scalar BulkTransfer.server.app[0] endToEndDelay:weightedHistogram:rangemin 0
scalar BulkTransfer.server.app[0] endToEndDelay:weightedHistogram:rangemax 49.6
scalar BulkTransfer.server.app[0] endToEndDelay:weightedHistogram:underflows 0
scalar BulkTransfer.server.app[0] endToEndDelay:weightedHistogram:overflows 0
scalar BulkTransfer.router.ppp[0].queue queueingTime:histogram:count 0
scalar BulkTransfer.router.ppp[0].queue queueingTime:histogram:sumweights 0
scalar BulkTransfer.router.ppp[0].queue queueingTime:histogram:mean -nan
scalar BulkTransfer.router.ppp[0].queue queueingTime:histogram:stddev nan
scalar BulkTransfer.router.ppp[0].queue queueingTime:histogram:min nan
scalar BulkTransfer.router.ppp[0].queue queueingTime:histogram:max nan
scalar BulkTransfer.router.ppp[0].queue queueingTime:histogram:numbins 1
scalar BulkTransfer.router.ppp[0].queue queueingTime:histogram:rangemin 0
scalar BulkTransfer.router.ppp[0].queue queueingTime:histogram:rangemax 1
scalar BulkTransfer.router.ppp[0].queue queueingTime:histogram:underflows 0
scalar BulkTransfer.router.ppp[0].queue queueingTime:histogram:overflows 0
scalar BulkTransfer.router.ppp[0].queue outgoingPacketLengths:histogram:count 0
scalar BulkTransfer.router.ppp[0].queue outgoingPacketLengths:histogram:sumweights 0
scalar BulkTransfer.router.ppp[0].queue outgoingPacketLengths:histogram:mean -nan
scalar BulkTransfer.router.ppp[0].queue outgoingPacketLengths:histogram:stddev nan
scalar BulkTransfer.router.ppp[0].queue outgoingPacketLengths:histogram:min nan
scalar BulkTransfer.router.ppp[0].queue outgoingPacketLengths:histogram:max nan
scalar BulkTransfer.router.ppp[0].queue outgoingPacketLengths:histogram:numbins 1
scalar BulkTransfer.router.ppp[0].queue outgoingPacketLengths:histogram:rangemin 0
scalar BulkTransfer.router.ppp[0].queue outgoingPacketLengths:histogram:rangemax 1
scalar BulkTransfer.router.ppp[0].queue outgoingPacketLengths:histogram:underflows 0
scalar BulkTransfer.router.ppp[0].queue outgoingPacketLengths:histogram:overflows 0
scalar BulkTransfer.router.ppp[0].queue flowQueueingTime:histogram:count 0
scalar BulkTransfer.router.ppp[0].queue flowQueueingTime:histogram:sumweights 0
scalar BulkTransfer.router.ppp[0].queue flowQueueingTime:histogram:mean -nan
scalar BulkTransfer.router.ppp[0].queue flowQueueingTime:histogram:stddev nan
scalar BulkTransfer.router.ppp[0].queue flowQueueingTime:histogram:min nan
scalar BulkTransfer.router.ppp[0].queue flowQueueingTime:histogram:max nan
scalar BulkTransfer.router.ppp[0].queue flowQueueingTime:histogram:numbins 1
scalar BulkTransfer.router.ppp[0].queue flowQueueingTime:histogram:rangemin 0
scalar BulkTransfer.router.ppp[0].queue flowQueueingTime:histogram:rangemax 1
scalar BulkTransfer.router.ppp[0].queue flowQueueingTime:histogram:underflows 0
scalar BulkTransfer.router.ppp[0].queue flowQueueingTime:histogram:overflows 0
scalar BulkTransfer.router.ppp[0].queue incomingPacketLengths:histogram:count 0
scalar BulkTransfer.router.ppp[0].queue incomingPacketLengths:histogram:sumweights 0
scalar BulkTransfer.router.ppp[0].queue incomingPacketLengths:histogram:mean -nan
scalar BulkTransfer.router.ppp[0].queue incomingPacketLengths:histogram:stddev nan
scalar BulkTransfer.router.ppp[0].queue incomingPacketLengths:histogram:min nan
scalar BulkTransfer.router.ppp[0].queue incomingPacketLengths:histogram:max nan
scalar BulkTransfer.router.ppp[0].queue incomingPacketLengths:histogram:numbins 1
scalar BulkTransfer.router.ppp[0].queue incomingPacketLengths:histogram:rangemin 0
scalar BulkTransfer.router.ppp[0].queue incomingPacketLengths:histogram:rangemax 1
scalar BulkTransfer.router.ppp[0].queue incomingPacketLengths:histogram:underflows 0
scalar BulkTransfer.router.ppp[0].queue incomingPacketLengths:histogram:overflows 0
scalar BulkTransfer.router.ppp[1].queue queueingTime:histogram:count 4957
scalar BulkTransfer.router.ppp[1].queue queueingTime:histogram:sumweights 4957
scalar BulkTransfer.router.ppp[1].queue queueingTime:histogram:mean 0.00022040040346984
scalar BulkTransfer.router.ppp[1].queue queueingTime:histogram:stddev 0.00092228052675972
scalar BulkTransfer.router.ppp[1].queue queueingTime:histogram:min 0
scalar BulkTransfer.router.ppp[1].queue queueingTime:histogram:max 0.004288
scalar BulkTransfer.router.ppp[1].queue queueingTime:histogram:numbins 54
scalar BulkTransfer.router.ppp[1].queue queueingTime:histogram:rangemin 0
scalar BulkTransfer.router.ppp[1].queue queueingTime:histogram:rangemax 0.0054
scalar BulkTransfer.router.ppp[1].queue queueingTime:histogram:underflows 0
scalar BulkTransfer.router.ppp[1].queue queueingTime:histogram:overflows 0
scalar BulkTransfer.router.ppp[1].queue outgoingPacketLengths:histogram:count 4957
scalar BulkTransfer.router.ppp[1].queue outgoingPacketLengths:histogram:sumweights 4957
scalar BulkTransfer.router.ppp[1].queue outgoingPacketLengths:histogram:mean 2087.2818236837
scalar BulkTransfer.router.ppp[1].queue outgoingPacketLengths:histogram:stddev 2110.8507311937
scalar BulkTransfer.router.ppp[1].queue outgoingPacketLengths:histogram:min 320
scalar BulkTransfer.router.ppp[1].queue outgoingPacketLengths:histogram:max 4608
scalar BulkTransfer.router.ppp[1].queue outgoingPacketLengths:histogram:numbins 57
scalar BulkTransfer.router.ppp[1].queue outgoingPacketLengths:histogram:rangemin 0
scalar BulkTransfer.router.ppp[1].queue outgoingPacketLengths:histogram:rangemax 5700
scalar BulkTransfer.router.ppp[1].queue outgoingPacketLengths:histogram:underflows 0
scalar BulkTransfer.router.ppp[1].queue outgoingPacketLengths:histogram:overflows 0
scalar BulkTransfer.router.ppp[1].queue flowQueueingTime:histogram:count 0
scalar BulkTransfer.router.ppp[1].queue flowQueueingTime:histogram:sumweights 0
scalar BulkTransfer.router.ppp[1].queue flowQueueingTime:histogram:mean -nan
scalar BulkTransfer.router.ppp[1].queue flowQueueingTime:histogram:stddev nan
scalar BulkTransfer.router.ppp[1].queue flowQueueingTime:histogram:min nan
scalar BulkTransfer.router.ppp[1].queue flowQueueingTime:histogram:max nan
scalar BulkTransfer.router.ppp[1].queue flowQueueingTime:histogram:numbins 1
scalar BulkTransfer.router.ppp[1].queue flowQueueingTime:histogram:rangemin 0
scalar BulkTransfer.router.ppp[1].queue flowQueueingTime:histogram:rangemax 1
scalar BulkTransfer.router.ppp[1].queue flowQueueingTime:histogram:underflows 0
scalar BulkTransfer.router.ppp[1].queue flowQueueingTime:histogram:overflows 0
scalar BulkTransfer.router.ppp[1].queue incomingPacketLengths:histogram:count 4958
scalar BulkTransfer.router.ppp[1].queue incomingPacketLengths:histogram:sumweights 4958
scalar BulkTransfer.router.ppp[1].queue incomingPacketLengths:histogram:mean 2086.9253731343
scalar BulkTransfer.router.ppp[1].queue incomingPacketLengths:histogram:stddev 2110.7870308318
scalar BulkTransfer.router.ppp[1].queue incomingPacketLengths:histogram:min 320
scalar BulkTransfer.router.ppp[1].queue incomingPacketLengths:histogram:max 4608
scalar BulkTransfer.router.ppp[1].queue incomingPacketLengths:histogram:numbins 57
scalar BulkTransfer.router.ppp[1].queue incomingPacketLengths:histogram:rangemin 0
scalar BulkTransfer.router.ppp[1].queue incomingPacketLengths:histogram:rangemax 5700
scalar BulkTransfer.router.ppp[1].queue incomingPacketLengths:histogram:underflows 0
scalar BulkTransfer.router.ppp[1].queue incomingPacketLengths:histogram:overflows 0
scalar BulkTransfer.router.ppp[2].queue queueingTime:histogram:count 6706
scalar BulkTransfer.router.ppp[2].queue queueingTime:histogram:sumweights 6706
scalar BulkTransfer.router.ppp[2].queue queueingTime:histogram:mean 0.00024657441097525
scalar BulkTransfer.router.ppp[2].queue queueingTime:histogram:stddev 0.00097302907887299
scalar BulkTransfer.router.ppp[2].queue queueingTime:histogram:min 0
scalar BulkTransfer.router.ppp[2].queue queueingTime:histogram:max 0.004288
scalar BulkTransfer.router.ppp[2].queue queueingTime:histogram:numbins 54
scalar BulkTransfer.router.ppp[2].queue queueingTime:histogram:rangemin 0
scalar BulkTransfer.router.ppp[2].queue queueingTime:histogram:rangemax 0.0054
scalar BulkTransfer.router.ppp[2].queue queueingTime:histogram:underflows 0
scalar BulkTransfer.router.ppp[2].queue queueingTime:histogram:overflows 0
scalar BulkTransfer.router.ppp[2].queue outgoingPacketLengths:histogram:count 6706
scalar BulkTransfer.router.ppp[2].queue outgoingPacketLengths:histogram:sumweights 6706
scalar BulkTransfer.router.ppp[2].queue outgoingPacketLengths:histogram:mean 2328.4461676111
scalar BulkTransfer.router.ppp[2].queue outgoingPacketLengths:histogram:stddev 2139.8653402567
scalar BulkTransfer.router.ppp[2].queue outgoingPacketLengths:histogram:min 320
scalar BulkTransfer.router.ppp[2].queue outgoingPacketLengths:histogram:max 4608
scalar BulkTransfer.router.ppp[2].queue outgoingPacketLengths:histogram:numbins 57
scalar BulkTransfer.router.ppp[2].queue outgoingPacketLengths:histogram:rangemin 0
scalar BulkTransfer.router.ppp[2].queue outgoingPacketLengths:histogram:rangemax 5700
scalar BulkTransfer.router.ppp[2].queue outgoingPacketLengths:histogram:underflows 0
scalar BulkTransfer.router.ppp[2].queue outgoingPacketLengths:histogram:overflows 0
scalar BulkTransfer.router.ppp[2].queue flowQueueingTime:histogram:count 0
scalar BulkTransfer.router.ppp[2].queue flowQueueingTime:histogram:sumweights 0
scalar BulkTransfer.router.ppp[2].queue flowQueueingTime:histogram:mean -nan
scalar BulkTransfer.router.ppp[2].queue flowQueueingTime:histogram:stddev nan
scalar BulkTransfer.router.ppp[2].queue flowQueueingTime:histogram:min nan
scalar BulkTransfer.router.ppp[2].queue flowQueueingTime:histogram:max nan
scalar BulkTransfer.router.ppp[2].queue flowQueueingTime:histogram:numbins 1
scalar BulkTransfer.router.ppp[2].queue flowQueueingTime:histogram:rangemin 0
scalar BulkTransfer.router.ppp[2].queue flowQueueingTime:histogram:rangemax 1
[...]
scalar BulkTransfer.server.tcp.conn-19 sndNxt:vector:starttime 1.1139922
scalar BulkTransfer.server.tcp.conn-19 sndNxt:vector:endtime 49.178549057975
scalar BulkTransfer.server.tcp.conn-19 sndAck:vector:count 6841
scalar BulkTransfer.server.tcp.conn-19 sndAck:vector:sum 7856680865
scalar BulkTransfer.server.tcp.conn-19 sndAck:vector:sumweights 6841
scalar BulkTransfer.server.tcp.conn-19 sndAck:vector:mean 1148469.6484432
scalar BulkTransfer.server.tcp.conn-19 sndAck:vector:stddev 519572.12934703
scalar BulkTransfer.server.tcp.conn-19 sndAck:vector:min 250001
scalar BulkTransfer.server.tcp.conn-19 sndAck:vector:max 2110457
scalar BulkTransfer.server.tcp.conn-19 sndAck:vector:starttime 1.0012242
scalar BulkTransfer.server.tcp.conn-19 sndAck:vector:endtime 49.638245457975
scalar BulkTransfer.server.tcp.conn-19 rcvSeq:vector:count 6639
scalar BulkTransfer.server.tcp.conn-19 rcvSeq:vector:sum 7642294375
scalar BulkTransfer.server.tcp.conn-19 rcvSeq:vector:sumweights 6639
scalar BulkTransfer.server.tcp.conn-19 rcvSeq:vector:mean 1151121.3096852
scalar BulkTransfer.server.tcp.conn-19 rcvSeq:vector:stddev 519267.12132309
scalar BulkTransfer.server.tcp.conn-19 rcvSeq:vector:min 250001
scalar BulkTransfer.server.tcp.conn-19 rcvSeq:vector:max 2117425
scalar BulkTransfer.server.tcp.conn-19 rcvSeq:vector:starttime 1.0027926
scalar BulkTransfer.server.tcp.conn-19 rcvSeq:vector:endtime 49.638245457975
scalar BulkTransfer.server.tcp.conn-19 rcvAck:vector:count 6639
scalar BulkTransfer.server.tcp.conn-19 rcvAck:vector:sum 7366160669
scalar BulkTransfer.server.tcp.conn-19 rcvAck:vector:sumweights 6639
scalar BulkTransfer.server.tcp.conn-19 rcvAck:vector:mean 1109528.6442235
scalar BulkTransfer.server.tcp.conn-19 rcvAck:vector:stddev 502606.88447171
scalar BulkTransfer.server.tcp.conn-19 rcvAck:vector:min 250307
scalar BulkTransfer.server.tcp.conn-19 rcvAck:vector:max 1907083
scalar BulkTransfer.server.tcp.conn-19 rcvAck:vector:starttime 1.0027926
scalar BulkTransfer.server.tcp.conn-19 rcvAck:vector:endtime 49.638245457975
scalar BulkTransfer.server.tcp.conn-19 unacked:vector:count 5332
scalar BulkTransfer.server.tcp.conn-19 unacked:vector:sum 23557200
scalar BulkTransfer.server.tcp.conn-19 unacked:vector:sumweights 5332
scalar BulkTransfer.server.tcp.conn-19 unacked:vector:mean 4418.07951988
scalar BulkTransfer.server.tcp.conn-19 unacked:vector:stddev 1562.116747237
scalar BulkTransfer.server.tcp.conn-19 unacked:vector:min 0
scalar BulkTransfer.server.tcp.conn-19 unacked:vector:max 7504
scalar BulkTransfer.server.tcp.conn-19 unacked:vector:starttime 1.0027926
scalar BulkTransfer.server.tcp.conn-19 unacked:vector:endtime 49.179677057975
scalar BulkTransfer.server.tcp.conn-19 dupAcks:vector:count 6539
scalar BulkTransfer.server.tcp.conn-19 dupAcks:vector:sum 1720
scalar BulkTransfer.server.tcp.conn-19 dupAcks:vector:sumweights 6539
scalar BulkTransfer.server.tcp.conn-19 dupAcks:vector:mean 0.26303716164551
scalar BulkTransfer.server.tcp.conn-19 dupAcks:vector:stddev 1.2550038166011
scalar BulkTransfer.server.tcp.conn-19 dupAcks:vector:min 0
scalar BulkTransfer.server.tcp.conn-19 dupAcks:vector:max 12
scalar BulkTransfer.server.tcp.conn-19 dupAcks:vector:starttime 1.1139922
scalar BulkTransfer.server.tcp.conn-19 dupAcks:vector:endtime 49.638245457975
scalar BulkTransfer.server.tcp.conn-19 pipe:vector:count 0
scalar BulkTransfer.server.tcp.conn-19 pipe:vector:sum 0
scalar BulkTransfer.server.tcp.conn-19 pipe:vector:sumweights 0
scalar BulkTransfer.server.tcp.conn-19 pipe:vector:mean -nan
scalar BulkTransfer.server.tcp.conn-19 pipe:vector:stddev nan
scalar BulkTransfer.server.tcp.conn-19 pipe:vector:min inf
scalar BulkTransfer.server.tcp.conn-19 pipe:vector:max -inf
scalar BulkTransfer.server.tcp.conn-19 pipe:vector:starttime nan
scalar BulkTransfer.server.tcp.conn-19 pipe:vector:endtime nan
scalar BulkTransfer.server.tcp.conn-19 sndSacks:vector:count 0
scalar BulkTransfer.server.tcp.conn-19 sndSacks:vector:sum 0
scalar BulkTransfer.server.tcp.conn-19 sndSacks:vector:sumweights 0
scalar BulkTransfer.server.tcp.conn-19 sndSacks:vector:mean -nan
scalar BulkTransfer.server.tcp.conn-19 sndSacks:vector:stddev nan
scalar BulkTransfer.server.tcp.conn-19 sndSacks:vector:min inf
scalar BulkTransfer.server.tcp.conn-19 sndSacks:vector:max -inf
scalar BulkTransfer.server.tcp.conn-19 sndSacks:vector:starttime nan
scalar BulkTransfer.server.tcp.conn-19 sndSacks:vector:endtime nan
scalar BulkTransfer.server.tcp.conn-19 rcvSacks:vector:count 0
scalar BulkTransfer.server.tcp.conn-19 rcvSacks:vector:sum 0
scalar BulkTransfer.server.tcp.conn-19 rcvSacks:vector:sumweights 0
scalar BulkTransfer.server.tcp.conn-19 rcvSacks:vector:mean -nan
scalar BulkTransfer.server.tcp.conn-19 rcvSacks:vector:stddev nan
scalar BulkTransfer.server.tcp.conn-19 rcvSacks:vector:min inf
scalar BulkTransfer.server.tcp.conn-19 rcvSacks:vector:max -inf
scalar BulkTransfer.server.tcp.conn-19 rcvSacks:vector:starttime nan
scalar BulkTransfer.server.tcp.conn-19 rcvSacks:vector:endtime nan
scalar BulkTransfer.server.tcp.conn-19 rcvOooSeg:vector:count 478
scalar BulkTransfer.server.tcp.conn-19 rcvOooSeg:vector:sum 114481
scalar BulkTransfer.server.tcp.conn-19 rcvOooSeg:vector:sumweights 478
scalar BulkTransfer.server.tcp.conn-19 rcvOooSeg:vector:mean 239.5
scalar BulkTransfer.server.tcp.conn-19 rcvOooSeg:vector:stddev 138.13097649212
scalar BulkTransfer.server.tcp.conn-19 rcvOooSeg:vector:min 1
scalar BulkTransfer.server.tcp.conn-19 rcvOooSeg:vector:max 478
scalar BulkTransfer.server.tcp.conn-19 rcvOooSeg:vector:starttime 1.2386406
scalar BulkTransfer.server.tcp.conn-19 rcvOooSeg:vector:endtime 49.638245457975
scalar BulkTransfer.server.tcp.conn-19 rcvNASeg:vector:count 99
scalar BulkTransfer.server.tcp.conn-19 rcvNASeg:vector:sum 4950
scalar BulkTransfer.server.tcp.conn-19 rcvNASeg:vector:sumweights 99
scalar BulkTransfer.server.tcp.conn-19 rcvNASeg:vector:mean 50
scalar BulkTransfer.server.tcp.conn-19 rcvNASeg:vector:stddev 28.72281323269
scalar BulkTransfer.server.tcp.conn-19 rcvNASeg:vector:min 1
scalar BulkTransfer.server.tcp.conn-19 rcvNASeg:vector:max 99
scalar BulkTransfer.server.tcp.conn-19 rcvNASeg:vector:starttime 3.118209457975
scalar BulkTransfer.server.tcp.conn-19 rcvNASeg:vector:endtime 47.579188257975
scalar BulkTransfer.server.tcp.conn-19 sackedBytes:vector:count 0
scalar BulkTransfer.server.tcp.conn-19 sackedBytes:vector:sum 0
scalar BulkTransfer.server.tcp.conn-19 sackedBytes:vector:sumweights 0
scalar BulkTransfer.server.tcp.conn-19 sackedBytes:vector:mean -nan
scalar BulkTransfer.server.tcp.conn-19 sackedBytes:vector:stddev nan
scalar BulkTransfer.server.tcp.conn-19 sackedBytes:vector:min inf
scalar BulkTransfer.server.tcp.conn-19 sackedBytes:vector:max -inf
scalar BulkTransfer.server.tcp.conn-19 sackedBytes:vector:starttime nan
scalar BulkTransfer.server.tcp.conn-19 sackedBytes:vector:endtime nan
scalar BulkTransfer.server.tcp.conn-19 tcpRcvQueueBytes:vector:count 10323
scalar BulkTransfer.server.tcp.conn-19 tcpRcvQueueBytes:vector:sum 13320672
scalar BulkTransfer.server.tcp.conn-19 tcpRcvQueueBytes:vector:sumweights 10323
scalar BulkTransfer.server.tcp.conn-19 tcpRcvQueueBytes:vector:mean 1290.3876780006
scalar BulkTransfer.server.tcp.conn-19 tcpRcvQueueBytes:vector:stddev 1989.8841300557
scalar BulkTransfer.server.tcp.conn-19 tcpRcvQueueBytes:vector:min 0
scalar BulkTransfer.server.tcp.conn-19 tcpRcvQueueBytes:vector:max 6968
scalar BulkTransfer.server.tcp.conn-19 tcpRcvQueueBytes:vector:starttime 1.0012242
scalar BulkTransfer.server.tcp.conn-19 tcpRcvQueueBytes:vector:endtime 49.638245457975
scalar BulkTransfer.server.tcp.conn-19 tcpRcvQueueDrops:vector:count 0
scalar BulkTransfer.server.tcp.conn-19 tcpRcvQueueDrops:vector:sum 0
scalar BulkTransfer.server.tcp.conn-19 tcpRcvQueueDrops:vector:sumweights 0
scalar BulkTransfer.server.tcp.conn-19 tcpRcvQueueDrops:vector:mean -nan
scalar BulkTransfer.server.tcp.conn-19 tcpRcvQueueDrops:vector:stddev nan
scalar BulkTransfer.server.tcp.conn-19 tcpRcvQueueDrops:vector:min inf
scalar BulkTransfer.server.tcp.conn-19 tcpRcvQueueDrops:vector:max -inf
scalar BulkTransfer.server.tcp.conn-19 tcpRcvQueueDrops:vector:starttime nan
scalar BulkTransfer.server.tcp.conn-19 tcpRcvQueueDrops:vector:endtime nan
scalar BulkTransfer.server.tcp.conn-19 tcpRcvPayloadBytes:vector:count 6639
scalar BulkTransfer.server.tcp.conn-19 tcpRcvPayloadBytes:vector:sum 1889400
scalar BulkTransfer.server.tcp.conn-19 tcpRcvPayloadBytes:vector:sumweights 6639
scalar BulkTransfer.server.tcp.conn-19 tcpRcvPayloadBytes:vector:mean 284.59105286941
scalar BulkTransfer.server.tcp.conn-19 tcpRcvPayloadBytes:vector:stddev 267.50610389945
scalar BulkTransfer.server.tcp.conn-19 tcpRcvPayloadBytes:vector:min 0
scalar BulkTransfer.server.tcp.conn-19 tcpRcvPayloadBytes:vector:max 536
scalar BulkTransfer.server.tcp.conn-19 tcpRcvPayloadBytes:vector:starttime 1.0027926
scalar BulkTransfer.server.tcp.conn-19 tcpRcvPayloadBytes:vector:endtime 49.638245457975
scalar BulkTransfer.server.tcp.conn-19 cwnd:vector:count 2941
scalar BulkTransfer.server.tcp.conn-19 cwnd:vector:sum 15179810
scalar BulkTransfer.server.tcp.conn-19 cwnd:vector:sumweights 2941
scalar BulkTransfer.server.tcp.conn-19 cwnd:vector:mean 5161.4450867052
scalar BulkTransfer.server.tcp.conn-19 cwnd:vector:stddev 1980.6320966223
scalar BulkTransfer.server.tcp.conn-19 cwnd:vector:min 536
scalar BulkTransfer.server.tcp.conn-19 cwnd:vector:max 11731
scalar BulkTransfer.server.tcp.conn-19 cwnd:vector:starttime 1.1341526
scalar BulkTransfer.server.tcp.conn-19 cwnd:vector:endtime 49.179677057975
scalar BulkTransfer.server.tcp.conn-19 ssthresh:vector:count 2703
scalar BulkTransfer.server.tcp.conn-19 ssthresh:vector:sum 77314804266
scalar BulkTransfer.server.tcp.conn-19 ssthresh:vector:sumweights 2703
scalar BulkTransfer.server.tcp.conn-19 ssthresh:vector:mean 28603331.211987
scalar BulkTransfer.server.tcp.conn-19 ssthresh:vector:stddev 349383475.30611
scalar BulkTransfer.server.tcp.conn-19 ssthresh:vector:min 1072
scalar BulkTransfer.server.tcp.conn-19 ssthresh:vector:max 4294967295
scalar BulkTransfer.server.tcp.conn-19 ssthresh:vector:starttime 1.1341526
scalar BulkTransfer.server.tcp.conn-19 ssthresh:vector:endtime 49.179677057975
scalar BulkTransfer.server.tcp.conn-19 rtt:vector:count 428
scalar BulkTransfer.server.tcp.conn-19 rtt:vector:sum 17.5671332
scalar BulkTransfer.server.tcp.conn-19 rtt:vector:sumweights 428
scalar BulkTransfer.server.tcp.conn-19 rtt:vector:mean 0.041044703738318
scalar BulkTransfer.server.tcp.conn-19 rtt:vector:stddev 0.020079300497144
scalar BulkTransfer.server.tcp.conn-19 rtt:vector:min 0.00504
scalar BulkTransfer.server.tcp.conn-19 rtt:vector:max 0.165344
scalar BulkTransfer.server.tcp.conn-19 rtt:vector:starttime 1.1341526
scalar BulkTransfer.server.tcp.conn-19 rtt:vector:endtime 49.179301057975
scalar BulkTransfer.server.tcp.conn-19 srtt:vector:count 428
scalar BulkTransfer.server.tcp.conn-19 srtt:vector:sum 17.244369875317
scalar BulkTransfer.server.tcp.conn-19 srtt:vector:sumweights 428
scalar BulkTransfer.server.tcp.conn-19 srtt:vector:mean 0.040290583820834
scalar BulkTransfer.server.tcp.conn-19 srtt:vector:stddev 0.0075438439212307
scalar BulkTransfer.server.tcp.conn-19 srtt:vector:min 0.00252005
scalar BulkTransfer.server.tcp.conn-19 srtt:vector:max 0.062760508095
scalar BulkTransfer.server.tcp.conn-19 srtt:vector:starttime 1.1341526
scalar BulkTransfer.server.tcp.conn-19 srtt:vector:endtime 49.179301057975
scalar BulkTransfer.server.tcp.conn-19 rttvar:vector:count 428
scalar BulkTransfer.server.tcp.conn-19 rttvar:vector:sum 11.410893916828
scalar BulkTransfer.server.tcp.conn-19 rttvar:vector:sumweights 428
scalar BulkTransfer.server.tcp.conn-19 rttvar:vector:mean 0.026660967095393
scalar BulkTransfer.server.tcp.conn-19 rttvar:vector:stddev 0.064532466726651
scalar BulkTransfer.server.tcp.conn-19 rttvar:vector:min 0.006903793548
scalar BulkTransfer.server.tcp.conn-19 rttvar:vector:max 0.65877005
scalar BulkTransfer.server.tcp.conn-19 rttvar:vector:starttime 1.1341526
scalar BulkTransfer.server.tcp.conn-19 rttvar:vector:endtime 49.179301057975
scalar BulkTransfer.server.tcp.conn-19 rto:vector:count 428
scalar BulkTransfer.server.tcp.conn-19 rto:vector:sum 434.31012774501
scalar BulkTransfer.server.tcp.conn-19 rto:vector:sumweights 428
scalar BulkTransfer.server.tcp.conn-19 rto:vector:mean 1.0147432891239
scalar BulkTransfer.server.tcp.conn-19 rto:vector:stddev 0.127099855775
scalar BulkTransfer.server.tcp.conn-19 rto:vector:min 1
scalar BulkTransfer.server.tcp.conn-19 rto:vector:max 2.63760025
scalar BulkTransfer.server.tcp.conn-19 rto:vector:starttime 1.1341526
scalar BulkTransfer.server.tcp.conn-19 rto:vector:endtime 49.179301057975
scalar BulkTransfer.server.tcp.conn-19 numRtos:vector:count 27
scalar BulkTransfer.server.tcp.conn-19 numRtos:vector:sum 378
scalar BulkTransfer.server.tcp.conn-19 numRtos:vector:sumweights 27
scalar BulkTransfer.server.tcp.conn-19 numRtos:vector:mean 14
scalar BulkTransfer.server.tcp.conn-19 numRtos:vector:stddev 7.9372539331938
scalar BulkTransfer.server.tcp.conn-19 numRtos:vector:min 1
scalar BulkTransfer.server.tcp.conn-19 numRtos:vector:max 27
scalar BulkTransfer.server.tcp.conn-19 numRtos:vector:starttime 3.040576657975
scalar BulkTransfer.server.tcp.conn-19 numRtos:vector:endtime 49.085156257975
scalar BulkTransfer.server.tcp.conn-19 load:vector:count 0
scalar BulkTransfer.server.tcp.conn-19 load:vector:sum 0
scalar BulkTransfer.server.tcp.conn-19 load:vector:sumweights 0
scalar BulkTransfer.server.tcp.conn-19 load:vector:mean -nan
scalar BulkTransfer.server.tcp.conn-19 load:vector:stddev nan
scalar BulkTransfer.server.tcp.conn-19 load:vector:min inf
scalar BulkTransfer.server.tcp.conn-19 load:vector:max -inf
scalar BulkTransfer.server.tcp.conn-19 load:vector:starttime nan
scalar BulkTransfer.server.tcp.conn-19 load:vector:endtime nan
scalar BulkTransfer.server.tcp.conn-19 calcLoad:vector:count 0
scalar BulkTransfer.server.tcp.conn-19 calcLoad:vector:sum 0
scalar BulkTransfer.server.tcp.conn-19 calcLoad:vector:sumweights 0
scalar BulkTransfer.server.tcp.conn-19 calcLoad:vector:mean -nan
scalar BulkTransfer.server.tcp.conn-19 calcLoad:vector:stddev nan
scalar BulkTransfer.server.tcp.conn-19 calcLoad:vector:min inf
scalar BulkTransfer.server.tcp.conn-19 calcLoad:vector:max -inf
scalar BulkTransfer.server.tcp.conn-19 calcLoad:vector:starttime nan
scalar BulkTransfer.server.tcp.conn-19 calcLoad:vector:endtime nan
scalar BulkTransfer.server.tcp.conn-19 markingProb:vector:count 0
scalar BulkTransfer.server.tcp.conn-19 markingProb:vector:sum 0
scalar BulkTransfer.server.tcp.conn-19 markingProb:vector:sumweights 0
scalar BulkTransfer.server.tcp.conn-19 markingProb:vector:mean -nan
scalar BulkTransfer.server.tcp.conn-19 markingProb:vector:stddev nan
scalar BulkTransfer.server.tcp.conn-19 markingProb:vector:min inf
scalar BulkTransfer.server.tcp.conn-19 markingProb:vector:max -inf
scalar BulkTransfer.server.tcp.conn-19 markingProb:vector:starttime nan
scalar BulkTransfer.server.tcp.conn-19 markingProb:vector:endtime nan
scalar BulkTransfer.server.app[0].thread_18 packetReceived:vector(packetBytes):count 2515
scalar BulkTransfer.server.app[0].thread_18 packetReceived:vector(packetBytes):sum 1547968
scalar BulkTransfer.server.app[0].thread_18 packetReceived:vector(packetBytes):sumweights 2515
scalar BulkTransfer.server.app[0].thread_18 packetReceived:vector(packetBytes):mean 615.49423459245
scalar BulkTransfer.server.app[0].thread_18 packetReceived:vector(packetBytes):stddev 588.99305030876
scalar BulkTransfer.server.app[0].thread_18 packetReceived:vector(packetBytes):min 536
scalar BulkTransfer.server.app[0].thread_18 packetReceived:vector(packetBytes):max 7504
scalar BulkTransfer.server.app[0].thread_18 packetReceived:vector(packetBytes):starttime 1.1093282
scalar BulkTransfer.server.app[0].thread_18 packetReceived:vector(packetBytes):endtime 49.974429857975
scalar BulkTransfer.server.app[0].thread_18 packetSent:vector(packetBytes):count 2515
scalar BulkTransfer.server.app[0].thread_18 packetSent:vector(packetBytes):sum 3095936
scalar BulkTransfer.server.app[0].thread_18 packetSent:vector(packetBytes):sumweights 2515
scalar BulkTransfer.server.app[0].thread_18 packetSent:vector(packetBytes):mean 1230.9884691849
scalar BulkTransfer.server.app[0].thread_18 packetSent:vector(packetBytes):stddev 1177.9861006175
scalar BulkTransfer.server.app[0].thread_18 packetSent:vector(packetBytes):min 1072
scalar BulkTransfer.server.app[0].thread_18 packetSent:vector(packetBytes):max 15008
scalar BulkTransfer.server.app[0].thread_18 packetSent:vector(packetBytes):starttime 1.1093282
scalar BulkTransfer.server.app[0].thread_18 packetSent:vector(packetBytes):endtime 49.974429857975
scalar BulkTransfer.server.app[0].thread_18 endToEndDelay:vector:count 2888
scalar BulkTransfer.server.app[0].thread_18 endToEndDelay:vector:sum 79436.399616635
scalar BulkTransfer.server.app[0].thread_18 endToEndDelay:vector:sumweights 2888
scalar BulkTransfer.server.app[0].thread_18 endToEndDelay:vector:mean 27.505678537616
scalar BulkTransfer.server.app[0].thread_18 endToEndDelay:vector:stddev 13.135353400484
scalar BulkTransfer.server.app[0].thread_18 endToEndDelay:vector:min 0.0093282
scalar BulkTransfer.server.app[0].thread_18 endToEndDelay:vector:max 48.874429857975
scalar BulkTransfer.server.app[0].thread_18 endToEndDelay:vector:starttime 1.1093282
scalar BulkTransfer.server.app[0].thread_18 endToEndDelay:vector:endtime 49.974429857975
scalar BulkTransfer.server.app[0].thread_19 packetReceived:vector(packetBytes):count 3004
scalar BulkTransfer.server.app[0].thread_19 packetReceived:vector(packetBytes):sum 1860456
scalar BulkTransfer.server.app[0].thread_19 packetReceived:vector(packetBytes):sumweights 3004
scalar BulkTransfer.server.app[0].thread_19 packetReceived:vector(packetBytes):mean 619.32623169108
scalar BulkTransfer.server.app[0].thread_19 packetReceived:vector(packetBytes):stddev 599.95632105774
scalar BulkTransfer.server.app[0].thread_19 packetReceived:vector(packetBytes):min 536
scalar BulkTransfer.server.app[0].thread_19 packetReceived:vector(packetBytes):max 7504
scalar BulkTransfer.server.app[0].thread_19 packetReceived:vector(packetBytes):starttime 1.1139922
scalar BulkTransfer.server.app[0].thread_19 packetReceived:vector(packetBytes):endtime 49.547901457975
scalar BulkTransfer.server.app[0].thread_19 packetSent:vector(packetBytes):count 3004
scalar BulkTransfer.server.app[0].thread_19 packetSent:vector(packetBytes):sum 3720912
scalar BulkTransfer.server.app[0].thread_19 packetSent:vector(packetBytes):sumweights 3004
scalar BulkTransfer.server.app[0].thread_19 packetSent:vector(packetBytes):mean 1238.6524633822
scalar BulkTransfer.server.app[0].thread_19 packetSent:vector(packetBytes):stddev 1199.9126421155
scalar BulkTransfer.server.app[0].thread_19 packetSent:vector(packetBytes):min 1072
scalar BulkTransfer.server.app[0].thread_19 packetSent:vector(packetBytes):max 15008
scalar BulkTransfer.server.app[0].thread_19 packetSent:vector(packetBytes):starttime 1.1139922
scalar BulkTransfer.server.app[0].thread_19 packetSent:vector(packetBytes):endtime 49.547901457975
scalar BulkTransfer.server.app[0].thread_19 endToEndDelay:vector:count 3471
scalar BulkTransfer.server.app[0].thread_19 endToEndDelay:vector:sum 88152.975262155
scalar BulkTransfer.server.app[0].thread_19 endToEndDelay:vector:sumweights 3471
scalar BulkTransfer.server.app[0].thread_19 endToEndDelay:vector:mean 25.39699661831
scalar BulkTransfer.server.app[0].thread_19 endToEndDelay:vector:stddev 14.408677654063
scalar BulkTransfer.server.app[0].thread_19 endToEndDelay:vector:min 0.0139922
scalar BulkTransfer.server.app[0].thread_19 endToEndDelay:vector:max 48.447901457975
scalar BulkTransfer.server.app[0].thread_19 endToEndDelay:vector:starttime 1.1139922
scalar BulkTransfer.server.app[0].thread_19 endToEndDelay:vector:endtime 49.547901457975

