version 3
run lwip__lwip-0-20250108-11:20:02-9916
attr configname lwip__lwip
attr datetime 20250108-11:20:02
attr datetimef 20250108-112002
attr experiment lwip__lwip
attr inifile omnetpp.ini
attr iterationvars ""
attr iterationvarsd ""
attr iterationvarsf ""
attr measurement ""
attr network BulkTransfer
attr processid 9916
attr repetition 0
attr replication #0
attr resultdir results
attr runnumber 0
attr seedset 0
config **.param-recording false
config image-path /home/levy/workspace/inet/images
config output-scalar-file results/omnetpp.ini-lwip__lwip-#0.sca
config output-vector-file results/omnetpp.ini-lwip__lwip-#0.vec
config sim-time-limit 50s
config sim-time-limit 50s
config description "TcpLwip <---> TcpLwip"
config **.server*.tcp.typename TcpLwip
config **.client*.tcp.typename TcpLwip
config network BulkTransfer
config total-stack 7MiB
config **.client*.numApps 1
config **.client*.app[*].typename TcpSessionApp
config **.client*.app[0].active true
config **.client*.app[0].localAddress "\"\""
config **.client*.app[0].localPort -1
config **.client1.app[0].connectAddress "\"server>client1\""
config **.client*.app[0].connectAddress "\"server>router\""
config **.client*.app[0].connectPort 1000
config **.client*.app[0].tOpen 1.0s
config **.client*.app[0].tSend 1.1s
config **.client*.app[0].sendBytes 10000000B
config **.client*.app[0].sendScript "\"\""
config **.client*.app[0].tClose 0s
config **.server*.numApps 1
config **.server*.app[*].typename TcpEchoApp
config **.server*.app[0].localAddress "\"\""
config **.server*.app[0].localPort 1000
config **.server*.app[0].echoFactor 2.0
config **.server*.app[0].echoDelay 0s
config **.app[0].dataTransferMode "\"bytecount\""
config **.ppp[*].queue.typename DropTailQueue
config **.ppp[*].queue.packetCapacity 10

scalar BulkTransfer.client1.lo[0].lo rcvdPkFromHl:count 0
scalar BulkTransfer.client1.lo[0].lo rcvdPkFromHl:sum(packetBytes) 0
scalar BulkTransfer.client1.lo[0].lo passedUpPk:count 0
scalar BulkTransfer.client1.lo[0].lo passedUpPk:sum(packetBytes) 0
scalar BulkTransfer.client1.lo[0] packetDropInterfaceDown:count 0
scalar BulkTransfer.client1.lo[0] packetDropInterfaceDown:sum(packetBytes) 0
scalar BulkTransfer.client1.lo[0] packetDropNoCarrier:count 0
scalar BulkTransfer.client1.lo[0] packetDropNoCarrier:sum(packetBytes) 0
scalar BulkTransfer.client1.ppp[0].queue queueLength:last 0
scalar BulkTransfer.client1.ppp[0].queue queueLength:max 0
scalar BulkTransfer.client1.ppp[0].queue queueLength:timeavg 0
scalar BulkTransfer.client1.ppp[0].queue queueBitLength:last 0
scalar BulkTransfer.client1.ppp[0].queue queueBitLength:max 0
scalar BulkTransfer.client1.ppp[0].queue queueBitLength:timeavg 0
scalar BulkTransfer.client1.ppp[0].queue outgoingPackets:count 0
scalar BulkTransfer.client1.ppp[0].queue outgoingPacketLengths:sum 0
scalar BulkTransfer.client1.ppp[0].queue incomingPackets:count 0
scalar BulkTransfer.client1.ppp[0].queue incomingPacketLengths:sum 0
scalar BulkTransfer.client1.ppp[0].queue droppedPacketsQueueOverflow:count 0
scalar BulkTransfer.client1.ppp[0].queue droppedPacketLengthsQueueOverflow:sum 0
scalar BulkTransfer.client1.ppp[0].ppp transmissionState:timeavg 0
scalar BulkTransfer.client1.ppp[0].ppp rxPkOk:count 0
scalar BulkTransfer.client1.ppp[0].ppp rxPkOk:sum(packetBytes) 0
scalar BulkTransfer.client1.ppp[0].ppp txPk:count 0
scalar BulkTransfer.client1.ppp[0].ppp txPk:sum(packetBytes) 0
scalar BulkTransfer.client1.ppp[0].ppp rcvdPkFromHl:count 0
scalar BulkTransfer.client1.ppp[0].ppp rcvdPkFromHl:sum(packetBytes) 0
scalar BulkTransfer.client1.ppp[0].ppp passedUpPk:count 0
scalar BulkTransfer.client1.ppp[0].ppp passedUpPk:sum(packetBytes) 0
scalar BulkTransfer.client1.ppp[0].ppp packetDropIncorrectlyReceived:count 0
scalar BulkTransfer.client1.ppp[0].ppp packetDropIncorrectlyReceived:sum(packetBytes) 0
scalar BulkTransfer.client1.ppp[0].ppp packetDropInterfaceDown:count 0
scalar BulkTransfer.client1.ppp[0].ppp packetDropInterfaceDown:sum(packetBytes) 0
scalar BulkTransfer.client1.ppp[0] packetDropInterfaceDown:count 0
scalar BulkTransfer.client1.ppp[0] packetDropInterfaceDown:sum(packetBytes) 0
scalar BulkTransfer.client1.ppp[0] packetDropNoCarrier:count 0
scalar BulkTransfer.client1.ppp[0] packetDropNoCarrier:sum(packetBytes) 0
scalar BulkTransfer.client1.ppp[1].queue queueLength:last 3
scalar BulkTransfer.client1.ppp[1].queue queueLength:max 6
scalar BulkTransfer.client1.ppp[1].queue queueLength:timeavg 2.6062441840001
scalar BulkTransfer.client1.ppp[1].queue queueBitLength:last 5248
scalar BulkTransfer.client1.ppp[1].queue queueBitLength:max 17536
scalar BulkTransfer.client1.ppp[1].queue queueBitLength:timeavg 6501.1802943994
scalar BulkTransfer.client1.ppp[1].queue outgoingPackets:count 18964
scalar BulkTransfer.client1.ppp[1].queue outgoingPacketLengths:sum 47441440
scalar BulkTransfer.client1.ppp[1].queue incomingPackets:count 18967
scalar BulkTransfer.client1.ppp[1].queue incomingPacketLengths:sum 47446688
scalar BulkTransfer.client1.ppp[1].queue droppedPacketsQueueOverflow:count 0
scalar BulkTransfer.client1.ppp[1].queue droppedPacketLengthsQueueOverflow:sum 0
scalar BulkTransfer.client1.ppp[1].ppp transmissionState:timeavg 0.97001567999987
scalar BulkTransfer.client1.ppp[1].ppp rxPkOk:count 18960
scalar BulkTransfer.client1.ppp[1].ppp rxPkOk:sum(packetBytes) 6060788
scalar BulkTransfer.client1.ppp[1].ppp txPk:count 18964
scalar BulkTransfer.client1.ppp[1].ppp txPk:sum(packetBytes) 6062928
scalar BulkTransfer.client1.ppp[1].ppp rcvdPkFromHl:count 18964
scalar BulkTransfer.client1.ppp[1].ppp rcvdPkFromHl:sum(packetBytes) 5930180
scalar BulkTransfer.client1.ppp[1].ppp passedUpPk:count 18960
scalar BulkTransfer.client1.ppp[1].ppp passedUpPk:sum(packetBytes) 5928068
scalar BulkTransfer.client1.ppp[1].ppp packetDropIncorrectlyReceived:count 0
scalar BulkTransfer.client1.ppp[1].ppp packetDropIncorrectlyReceived:sum(packetBytes) 0
scalar BulkTransfer.client1.ppp[1].ppp packetDropInterfaceDown:count 0
scalar BulkTransfer.client1.ppp[1].ppp packetDropInterfaceDown:sum(packetBytes) 0
scalar BulkTransfer.client1.ppp[1] packetDropInterfaceDown:count 0
scalar BulkTransfer.client1.ppp[1] packetDropInterfaceDown:sum(packetBytes) 0
scalar BulkTransfer.client1.ppp[1] packetDropNoCarrier:count 0
scalar BulkTransfer.client1.ppp[1] packetDropNoCarrier:sum(packetBytes) 0
scalar BulkTransfer.client1.ipv4.ip packetDropAddressResolutionFailed:count 0
scalar BulkTransfer.client1.ipv4.ip packetDropAddressResolutionFailed:sum(packetBytes) 0
scalar BulkTransfer.client1.ipv4.ip packetDropHopLimitReached:count 0
scalar BulkTransfer.client1.ipv4.ip packetDropHopLimitReached:sum(packetBytes) 0
scalar BulkTransfer.client1.ipv4.ip packetDropForwardingDisabled:count 0
scalar BulkTransfer.client1.ipv4.ip packetDropForwardingDisabled:sum(packetBytes) 0
scalar BulkTransfer.client1.ipv4.ip packetDropLifetimeExpired:count 0
scalar BulkTransfer.client1.ipv4.ip packetDropLifetimeExpired:sum(packetBytes) 0
scalar BulkTransfer.client1.ipv4.ip packetDropNoInterfaceFound:count 0
scalar BulkTransfer.client1.ipv4.ip packetDropNoInterfaceFound:sum(packetBytes) 0
scalar BulkTransfer.client1.ipv4.ip packetDropNoRouteFound:count 0
scalar BulkTransfer.client1.ipv4.ip packetDropNoRouteFound:sum(packetBytes) 0
scalar BulkTransfer.client1.ipv4.ip packetDropUndefined:count 0
scalar BulkTransfer.client1.ipv4.ip packetDropUndefined:sum(packetBytes) 0
scalar BulkTransfer.client1.ipv4.arp arpResolutionFailed:count 0
scalar BulkTransfer.client1.ipv4.arp arpResolutionCompleted:count 0
scalar BulkTransfer.client1.ipv4.arp arpResolutionInitiated:count 0
scalar BulkTransfer.client1.ipv4.arp arpReplySent:count 0
scalar BulkTransfer.client1.ipv4.arp arpReplySent:sum(packetBytes) 0
scalar BulkTransfer.client1.ipv4.arp arpRequestSent:count 0
scalar BulkTransfer.client1.ipv4.arp arpRequestSent:sum(packetBytes) 0
scalar BulkTransfer.client1.udp packetReceived:count 0
scalar BulkTransfer.client1.udp packetReceived:sum(packetBytes) 0
scalar BulkTransfer.client1.udp packetSent:count 0
scalar BulkTransfer.client1.udp packetSent:sum(packetBytes) 0
scalar BulkTransfer.client1.udp passedUpPk:count 0
scalar BulkTransfer.client1.udp droppedPkWrongPort:count 0
scalar BulkTransfer.client1.udp droppedPkBadChecksum:count 0
scalar BulkTransfer.client1.app[0] bytesRcvd 5169664
scalar BulkTransfer.client1.app[0] bytesSent 10000000
scalar BulkTransfer.client1.app[0] packetReceived:count 10064
scalar BulkTransfer.client1.app[0] packetReceived:sum(packetBytes) 5169664
scalar BulkTransfer.client1.app[0] packetSent:count 1
scalar BulkTransfer.client1.app[0] packetSent:sum(packetBytes) 10000000
scalar BulkTransfer.client2.lo[0].lo rcvdPkFromHl:count 0
scalar BulkTransfer.client2.lo[0].lo rcvdPkFromHl:sum(packetBytes) 0
scalar BulkTransfer.client2.lo[0].lo passedUpPk:count 0
scalar BulkTransfer.client2.lo[0].lo passedUpPk:sum(packetBytes) 0
scalar BulkTransfer.client2.lo[0] packetDropInterfaceDown:count 0
scalar BulkTransfer.client2.lo[0] packetDropInterfaceDown:sum(packetBytes) 0
scalar BulkTransfer.client2.lo[0] packetDropNoCarrier:count 0
scalar BulkTransfer.client2.lo[0] packetDropNoCarrier:sum(packetBytes) 0
scalar BulkTransfer.client2.ppp[0].queue queueLength:last 0
scalar BulkTransfer.client2.ppp[0].queue queueLength:max 3
scalar BulkTransfer.client2.ppp[0].queue queueLength:timeavg 0.214994164
scalar BulkTransfer.client2.ppp[0].queue queueBitLength:last 0
scalar BulkTransfer.client2.ppp[0].queue queueBitLength:max 9216
scalar BulkTransfer.client2.ppp[0].queue queueBitLength:timeavg 832.38303411201
scalar BulkTransfer.client2.ppp[0].queue outgoingPackets:count 9512
scalar BulkTransfer.client2.ppp[0].queue outgoingPacketLengths:sum 23796640
scalar BulkTransfer.client2.ppp[0].queue incomingPackets:count 9512
scalar BulkTransfer.client2.ppp[0].queue incomingPacketLengths:sum 23796640
scalar BulkTransfer.client2.ppp[0].queue droppedPacketsQueueOverflow:count 0
scalar BulkTransfer.client2.ppp[0].queue droppedPacketLengthsQueueOverflow:sum 0
scalar BulkTransfer.client2.ppp[0].ppp transmissionState:timeavg 0.48656350399991
scalar BulkTransfer.client2.ppp[0].ppp rxPkOk:count 9507
scalar BulkTransfer.client2.ppp[0].ppp rxPkOk:sum(packetBytes) 3038249
scalar BulkTransfer.client2.ppp[0].ppp txPk:count 9512
scalar BulkTransfer.client2.ppp[0].ppp txPk:sum(packetBytes) 3041164
scalar BulkTransfer.client2.ppp[0].ppp rcvdPkFromHl:count 9512
scalar BulkTransfer.client2.ppp[0].ppp rcvdPkFromHl:sum(packetBytes) 2974580
scalar BulkTransfer.client2.ppp[0].ppp passedUpPk:count 9507
scalar BulkTransfer.client2.ppp[0].ppp passedUpPk:sum(packetBytes) 2971700
scalar BulkTransfer.client2.ppp[0].ppp packetDropIncorrectlyReceived:count 0
scalar BulkTransfer.client2.ppp[0].ppp packetDropIncorrectlyReceived:sum(packetBytes) 0
scalar BulkTransfer.client2.ppp[0].ppp packetDropInterfaceDown:count 0
scalar BulkTransfer.client2.ppp[0].ppp packetDropInterfaceDown:sum(packetBytes) 0
scalar BulkTransfer.client2.ppp[0] packetDropInterfaceDown:count 0
scalar BulkTransfer.client2.ppp[0] packetDropInterfaceDown:sum(packetBytes) 0
scalar BulkTransfer.client2.ppp[0] packetDropNoCarrier:count 0
scalar BulkTransfer.client2.ppp[0] packetDropNoCarrier:sum(packetBytes) 0
scalar BulkTransfer.client2.ipv4.ip packetDropAddressResolutionFailed:count 0
scalar BulkTransfer.client2.ipv4.ip packetDropAddressResolutionFailed:sum(packetBytes) 0
scalar BulkTransfer.client2.ipv4.ip packetDropHopLimitReached:count 0
scalar BulkTransfer.client2.ipv4.ip packetDropHopLimitReached:sum(packetBytes) 0
scalar BulkTransfer.client2.ipv4.ip packetDropForwardingDisabled:count 0
scalar BulkTransfer.client2.ipv4.ip packetDropForwardingDisabled:sum(packetBytes) 0
scalar BulkTransfer.client2.ipv4.ip packetDropLifetimeExpired:count 0
scalar BulkTransfer.client2.ipv4.ip packetDropLifetimeExpired:sum(packetBytes) 0
scalar BulkTransfer.client2.ipv4.ip packetDropNoInterfaceFound:count 0
scalar BulkTransfer.client2.ipv4.ip packetDropNoInterfaceFound:sum(packetBytes) 0
scalar BulkTransfer.client2.ipv4.ip packetDropNoRouteFound:count 0
scalar BulkTransfer.client2.ipv4.ip packetDropNoRouteFound:sum(packetBytes) 0
scalar BulkTransfer.client2.ipv4.ip packetDropUndefined:count 0
scalar BulkTransfer.client2.ipv4.ip packetDropUndefined:sum(packetBytes) 0
scalar BulkTransfer.client2.ipv4.arp arpResolutionFailed:count 0
scalar BulkTransfer.client2.ipv4.arp arpResolutionCompleted:count 0
scalar BulkTransfer.client2.ipv4.arp arpResolutionInitiated:count 0
scalar BulkTransfer.client2.ipv4.arp arpReplySent:count 0
scalar BulkTransfer.client2.ipv4.arp arpReplySent:sum(packetBytes) 0
scalar BulkTransfer.client2.ipv4.arp arpRequestSent:count 0
scalar BulkTransfer.client2.ipv4.arp arpRequestSent:sum(packetBytes) 0
scalar BulkTransfer.client2.udp packetReceived:count 0
scalar BulkTransfer.client2.udp packetReceived:sum(packetBytes) 0
scalar BulkTransfer.client2.udp packetSent:count 0
scalar BulkTransfer.client2.udp packetSent:sum(packetBytes) 0
scalar BulkTransfer.client2.udp passedUpPk:count 0
scalar BulkTransfer.client2.udp droppedPkWrongPort:count 0
scalar BulkTransfer.client2.udp droppedPkBadChecksum:count 0
scalar BulkTransfer.client2.app[0] bytesRcvd 2591416
scalar BulkTransfer.client2.app[0] bytesSent 10000000
scalar BulkTransfer.client2.app[0] packetReceived:count 5045
scalar BulkTransfer.client2.app[0] packetReceived:sum(packetBytes) 2591416
scalar BulkTransfer.client2.app[0] packetSent:count 1
scalar BulkTransfer.client2.app[0] packetSent:sum(packetBytes) 10000000
scalar BulkTransfer.client3.lo[0].lo rcvdPkFromHl:count 0
scalar BulkTransfer.client3.lo[0].lo rcvdPkFromHl:sum(packetBytes) 0
scalar BulkTransfer.client3.lo[0].lo passedUpPk:count 0
scalar BulkTransfer.client3.lo[0].lo passedUpPk:sum(packetBytes) 0
scalar BulkTransfer.client3.lo[0] packetDropInterfaceDown:count 0
scalar BulkTransfer.client3.lo[0] packetDropInterfaceDown:sum(packetBytes) 0
scalar BulkTransfer.client3.lo[0] packetDropNoCarrier:count 0
scalar BulkTransfer.client3.lo[0] packetDropNoCarrier:sum(packetBytes) 0
scalar BulkTransfer.client3.ppp[0].queue queueLength:last 0
scalar BulkTransfer.client3.ppp[0].queue queueLength:max 3
scalar BulkTransfer.client3.ppp[0].queue queueLength:timeavg 0.289393764
scalar BulkTransfer.client3.ppp[0].queue queueBitLength:last 0
scalar BulkTransfer.client3.ppp[0].queue queueBitLength:max 13824
scalar BulkTransfer.client3.ppp[0].queue queueBitLength:timeavg 1009.98702848
scalar BulkTransfer.client3.ppp[0].queue outgoingPackets:count 9214
scalar BulkTransfer.client3.ppp[0].queue outgoingPacketLengths:sum 22579808
scalar BulkTransfer.client3.ppp[0].queue incomingPackets:count 9214
scalar BulkTransfer.client3.ppp[0].queue incomingPacketLengths:sum 22579808
scalar BulkTransfer.client3.ppp[0].queue droppedPacketsQueueOverflow:count 0
scalar BulkTransfer.client3.ppp[0].queue droppedPacketLengthsQueueOverflow:sum 0
scalar BulkTransfer.client3.ppp[0].ppp transmissionState:timeavg 0.46191583999992
scalar BulkTransfer.client3.ppp[0].ppp rxPkOk:count 9239
scalar BulkTransfer.client3.ppp[0].ppp rxPkOk:sum(packetBytes) 3017309
scalar BulkTransfer.client3.ppp[0].ppp txPk:count 9214
scalar BulkTransfer.client3.ppp[0].ppp txPk:sum(packetBytes) 2886974
scalar BulkTransfer.client3.ppp[0].ppp rcvdPkFromHl:count 9214
scalar BulkTransfer.client3.ppp[0].ppp rcvdPkFromHl:sum(packetBytes) 2822476
scalar BulkTransfer.client3.ppp[0].ppp passedUpPk:count 9239
scalar BulkTransfer.client3.ppp[0].ppp passedUpPk:sum(packetBytes) 2952636
scalar BulkTransfer.client3.ppp[0].ppp packetDropIncorrectlyReceived:count 0
scalar BulkTransfer.client3.ppp[0].ppp packetDropIncorrectlyReceived:sum(packetBytes) 0
scalar BulkTransfer.client3.ppp[0].ppp packetDropInterfaceDown:count 0
scalar BulkTransfer.client3.ppp[0].ppp packetDropInterfaceDown:sum(packetBytes) 0
scalar BulkTransfer.client3.ppp[0] packetDropInterfaceDown:count 0
scalar BulkTransfer.client3.ppp[0] packetDropInterfaceDown:sum(packetBytes) 0
scalar BulkTransfer.client3.ppp[0] packetDropNoCarrier:count 0
scalar BulkTransfer.client3.ppp[0] packetDropNoCarrier:sum(packetBytes) 0
scalar BulkTransfer.client3.ipv4.ip packetDropAddressResolutionFailed:count 0
scalar BulkTransfer.client3.ipv4.ip packetDropAddressResolutionFailed:sum(packetBytes) 0
scalar BulkTransfer.client3.ipv4.ip packetDropHopLimitReached:count 0
scalar BulkTransfer.client3.ipv4.ip packetDropHopLimitReached:sum(packetBytes) 0
scalar BulkTransfer.client3.ipv4.ip packetDropForwardingDisabled:count 0
scalar BulkTransfer.client3.ipv4.ip packetDropForwardingDisabled:sum(packetBytes) 0
scalar BulkTransfer.client3.ipv4.ip packetDropLifetimeExpired:count 0
scalar BulkTransfer.client3.ipv4.ip packetDropLifetimeExpired:sum(packetBytes) 0
scalar BulkTransfer.client3.ipv4.ip packetDropNoInterfaceFound:count 0
scalar BulkTransfer.client3.ipv4.ip packetDropNoInterfaceFound:sum(packetBytes) 0
scalar BulkTransfer.client3.ipv4.ip packetDropNoRouteFound:count 0
scalar BulkTransfer.client3.ipv4.ip packetDropNoRouteFound:sum(packetBytes) 0
scalar BulkTransfer.client3.ipv4.ip packetDropUndefined:count 0
scalar BulkTransfer.client3.ipv4.ip packetDropUndefined:sum(packetBytes) 0
scalar BulkTransfer.client3.ipv4.arp arpResolutionFailed:count 0
scalar BulkTransfer.client3.ipv4.arp arpResolutionCompleted:count 0
scalar BulkTransfer.client3.ipv4.arp arpResolutionInitiated:count 0
scalar BulkTransfer.client3.ipv4.arp arpReplySent:count 0
scalar BulkTransfer.client3.ipv4.arp arpReplySent:sum(packetBytes) 0
scalar BulkTransfer.client3.ipv4.arp arpRequestSent:count 0
scalar BulkTransfer.client3.ipv4.arp arpRequestSent:sum(packetBytes) 0
scalar BulkTransfer.client3.udp packetReceived:count 0
scalar BulkTransfer.client3.udp packetReceived:sum(packetBytes) 0
scalar BulkTransfer.client3.udp packetSent:count 0
scalar BulkTransfer.client3.udp packetSent:sum(packetBytes) 0
scalar BulkTransfer.client3.udp passedUpPk:count 0
scalar BulkTransfer.client3.udp droppedPkWrongPort:count 0
scalar BulkTransfer.client3.udp droppedPkBadChecksum:count 0
scalar BulkTransfer.client3.app[0] bytesRcvd 2583072
scalar BulkTransfer.client3.app[0] bytesSent 10000000
scalar BulkTransfer.client3.app[0] packetReceived:count 5025
scalar BulkTransfer.client3.app[0] packetReceived:sum(packetBytes) 2583072
scalar BulkTransfer.client3.app[0] packetSent:count 1
scalar BulkTransfer.client3.app[0] packetSent:sum(packetBytes) 10000000
scalar BulkTransfer.server.lo[0].lo rcvdPkFromHl:count 0
scalar BulkTransfer.server.lo[0].lo rcvdPkFromHl:sum(packetBytes) 0
scalar BulkTransfer.server.lo[0].lo passedUpPk:count 0
scalar BulkTransfer.server.lo[0].lo passedUpPk:sum(packetBytes) 0
scalar BulkTransfer.server.lo[0] packetDropInterfaceDown:count 0
scalar BulkTransfer.server.lo[0] packetDropInterfaceDown:sum(packetBytes) 0
scalar BulkTransfer.server.lo[0] packetDropNoCarrier:count 0
scalar BulkTransfer.server.lo[0] packetDropNoCarrier:sum(packetBytes) 0
scalar BulkTransfer.server.ppp[0].queue queueLength:last 2
scalar BulkTransfer.server.ppp[0].queue queueLength:max 6
scalar BulkTransfer.server.ppp[0].queue queueLength:timeavg 2.6619852919999
scalar BulkTransfer.server.ppp[0].queue queueBitLength:last 4928
scalar BulkTransfer.server.ppp[0].queue queueBitLength:max 14464
scalar BulkTransfer.server.ppp[0].queue queueBitLength:timeavg 6674.9095786237
scalar BulkTransfer.server.ppp[0].queue outgoingPackets:count 18961
scalar BulkTransfer.server.ppp[0].queue outgoingPacketLengths:sum 47427616
scalar BulkTransfer.server.ppp[0].queue incomingPackets:count 18963
scalar BulkTransfer.server.ppp[0].queue incomingPacketLengths:sum 47432544
scalar BulkTransfer.server.ppp[0].queue droppedPacketsQueueOverflow:count 0
scalar BulkTransfer.server.ppp[0].queue droppedPacketLengthsQueueOverflow:sum 0
scalar BulkTransfer.server.ppp[0].ppp transmissionState:timeavg 0.96974335799987
scalar BulkTransfer.server.ppp[0].ppp rxPkOk:count 18963
scalar BulkTransfer.server.ppp[0].ppp rxPkOk:sum(packetBytes) 6062345
scalar BulkTransfer.server.ppp[0].ppp txPk:count 18961
scalar BulkTransfer.server.ppp[0].ppp txPk:sum(packetBytes) 6061179
scalar BulkTransfer.server.ppp[0].ppp rcvdPkFromHl:count 18961
scalar BulkTransfer.server.ppp[0].ppp rcvdPkFromHl:sum(packetBytes) 5928452
scalar BulkTransfer.server.ppp[0].ppp passedUpPk:count 18963
scalar BulkTransfer.server.ppp[0].ppp passedUpPk:sum(packetBytes) 5929604
scalar BulkTransfer.server.ppp[0].ppp packetDropIncorrectlyReceived:count 0
scalar BulkTransfer.server.ppp[0].ppp packetDropIncorrectlyReceived:sum(packetBytes) 0
scalar BulkTransfer.server.ppp[0].ppp packetDropInterfaceDown:count 0
scalar BulkTransfer.server.ppp[0].ppp packetDropInterfaceDown:sum(packetBytes) 0
scalar BulkTransfer.server.ppp[0] packetDropInterfaceDown:count 0
scalar BulkTransfer.server.ppp[0] packetDropInterfaceDown:sum(packetBytes) 0
scalar BulkTransfer.server.ppp[0] packetDropNoCarrier:count 0
scalar BulkTransfer.server.ppp[0] packetDropNoCarrier:sum(packetBytes) 0
scalar BulkTransfer.server.ppp[1].queue queueLength:last 5
scalar BulkTransfer.server.ppp[1].queue queueLength:max 10
scalar BulkTransfer.server.ppp[1].queue queueLength:timeavg 4.012053384
scalar BulkTransfer.server.ppp[1].queue queueBitLength:last 12928
scalar BulkTransfer.server.ppp[1].queue queueBitLength:max 32576
scalar BulkTransfer.server.ppp[1].queue queueBitLength:timeavg 10257.424786176
scalar BulkTransfer.server.ppp[1].queue outgoingPackets:count 18750
scalar BulkTransfer.server.ppp[1].queue outgoingPacketLengths:sum 47404544
scalar BulkTransfer.server.ppp[1].queue incomingPackets:count 18756
scalar BulkTransfer.server.ppp[1].queue incomingPacketLengths:sum 47422080
scalar BulkTransfer.server.ppp[1].queue droppedPacketsQueueOverflow:count 1
scalar BulkTransfer.server.ppp[1].queue droppedPacketLengthsQueueOverflow:sum 4608
scalar BulkTransfer.server.ppp[1].ppp transmissionState:timeavg 0.96906062799988
scalar BulkTransfer.server.ppp[1].ppp rxPkOk:count 18719
scalar BulkTransfer.server.ppp[1].ppp rxPkOk:sum(packetBytes) 5925129
scalar BulkTransfer.server.ppp[1].ppp txPk:count 18750
scalar BulkTransfer.server.ppp[1].ppp txPk:sum(packetBytes) 6056818
scalar BulkTransfer.server.ppp[1].ppp rcvdPkFromHl:count 18750
scalar BulkTransfer.server.ppp[1].ppp rcvdPkFromHl:sum(packetBytes) 5925568
scalar BulkTransfer.server.ppp[1].ppp passedUpPk:count 18719
scalar BulkTransfer.server.ppp[1].ppp passedUpPk:sum(packetBytes) 5794096
scalar BulkTransfer.server.ppp[1].ppp packetDropIncorrectlyReceived:count 0
scalar BulkTransfer.server.ppp[1].ppp packetDropIncorrectlyReceived:sum(packetBytes) 0
scalar BulkTransfer.server.ppp[1].ppp packetDropInterfaceDown:count 0
scalar BulkTransfer.server.ppp[1].ppp packetDropInterfaceDown:sum(packetBytes) 0
scalar BulkTransfer.server.ppp[1] packetDropInterfaceDown:count 0
scalar BulkTransfer.server.ppp[1] packetDropInterfaceDown:sum(packetBytes) 0
scalar BulkTransfer.server.ppp[1] packetDropNoCarrier:count 0
scalar BulkTransfer.server.ppp[1] packetDropNoCarrier:sum(packetBytes) 0
scalar BulkTransfer.server.ipv4.ip packetDropAddressResolutionFailed:count 0
scalar BulkTransfer.server.ipv4.ip packetDropAddressResolutionFailed:sum(packetBytes) 0
scalar BulkTransfer.server.ipv4.ip packetDropHopLimitReached:count 0
scalar BulkTransfer.server.ipv4.ip packetDropHopLimitReached:sum(packetBytes) 0
scalar BulkTransfer.server.ipv4.ip packetDropForwardingDisabled:count 0
scalar BulkTransfer.server.ipv4.ip packetDropForwardingDisabled:sum(packetBytes) 0
scalar BulkTransfer.server.ipv4.ip packetDropLifetimeExpired:count 0
scalar BulkTransfer.server.ipv4.ip packetDropLifetimeExpired:sum(packetBytes) 0
scalar BulkTransfer.server.ipv4.ip packetDropNoInterfaceFound:count 0
scalar BulkTransfer.server.ipv4.ip packetDropNoInterfaceFound:sum(packetBytes) 0
scalar BulkTransfer.server.ipv4.ip packetDropNoRouteFound:count 0
scalar BulkTransfer.server.ipv4.ip packetDropNoRouteFound:sum(packetBytes) 0
scalar BulkTransfer.server.ipv4.ip packetDropUndefined:count 0
scalar BulkTransfer.server.ipv4.ip packetDropUndefined:sum(packetBytes) 0
scalar BulkTransfer.server.ipv4.arp arpResolutionFailed:count 0
scalar BulkTransfer.server.ipv4.arp arpResolutionCompleted:count 0
scalar BulkTransfer.server.ipv4.arp arpResolutionInitiated:count 0
scalar BulkTransfer.server.ipv4.arp arpReplySent:count 0
scalar BulkTransfer.server.ipv4.arp arpReplySent:sum(packetBytes) 0
scalar BulkTransfer.server.ipv4.arp arpRequestSent:count 0
scalar BulkTransfer.server.ipv4.arp arpRequestSent:sum(packetBytes) 0
scalar BulkTransfer.server.udp packetReceived:count 0
scalar BulkTransfer.server.udp packetReceived:sum(packetBytes) 0
scalar BulkTransfer.server.udp packetSent:count 0
scalar BulkTransfer.server.udp packetSent:sum(packetBytes) 0
scalar BulkTransfer.server.udp passedUpPk:count 0
scalar BulkTransfer.server.udp droppedPkWrongPort:count 0
scalar BulkTransfer.server.udp droppedPkBadChecksum:count 0
scalar BulkTransfer.server.app[0].thread_17 packetReceived:count 10067
scalar BulkTransfer.server.app[0].thread_17 packetReceived:sum(packetBytes) 5171080
scalar BulkTransfer.server.app[0].thread_17 packetSent:count 10067
scalar BulkTransfer.server.app[0].thread_17 packetSent:sum(packetBytes) 10342160
scalar BulkTransfer.server.app[0].thread_18 packetReceived:count 5046
scalar BulkTransfer.server.app[0].thread_18 packetReceived:sum(packetBytes) 2591952
scalar BulkTransfer.server.app[0].thread_18 packetSent:count 5046
scalar BulkTransfer.server.app[0].thread_18 packetSent:sum(packetBytes) 5183904
scalar BulkTransfer.server.app[0].thread_19 packetReceived:count 4773
scalar BulkTransfer.server.app[0].thread_19 packetReceived:sum(packetBytes) 2453376
scalar BulkTransfer.server.app[0].thread_19 packetSent:count 4773
scalar BulkTransfer.server.app[0].thread_19 packetSent:sum(packetBytes) 4906752
scalar BulkTransfer.server.app[0] bytesRcvd 10216408
scalar BulkTransfer.server.app[0] bytesSent 20432816
scalar BulkTransfer.server.app[0] packetReceived:count 19886
scalar BulkTransfer.server.app[0] packetReceived:sum(packetBytes) 10216408
scalar BulkTransfer.server.app[0] packetSent:count 19886
scalar BulkTransfer.server.app[0] packetSent:sum(packetBytes) 20432816
scalar BulkTransfer.router.lo[0].lo rcvdPkFromHl:count 0
scalar BulkTransfer.router.lo[0].lo rcvdPkFromHl:sum(packetBytes) 0
scalar BulkTransfer.router.lo[0].lo passedUpPk:count 0
scalar BulkTransfer.router.lo[0].lo passedUpPk:sum(packetBytes) 0
scalar BulkTransfer.router.lo[0] packetDropInterfaceDown:count 0
scalar BulkTransfer.router.lo[0] packetDropInterfaceDown:sum(packetBytes) 0
scalar BulkTransfer.router.lo[0] packetDropNoCarrier:count 0
scalar BulkTransfer.router.lo[0] packetDropNoCarrier:sum(packetBytes) 0
scalar BulkTransfer.router.ppp[0].queue queueLength:last 0
scalar BulkTransfer.router.ppp[0].queue queueLength:max 0
scalar BulkTransfer.router.ppp[0].queue queueLength:timeavg 0
scalar BulkTransfer.router.ppp[0].queue queueBitLength:last 0
scalar BulkTransfer.router.ppp[0].queue queueBitLength:max 0
scalar BulkTransfer.router.ppp[0].queue queueBitLength:timeavg 0
scalar BulkTransfer.router.ppp[0].queue outgoingPackets:count 0
scalar BulkTransfer.router.ppp[0].queue outgoingPacketLengths:sum 0
scalar BulkTransfer.router.ppp[0].queue incomingPackets:count 0
scalar BulkTransfer.router.ppp[0].queue incomingPacketLengths:sum 0
scalar BulkTransfer.router.ppp[0].queue droppedPacketsQueueOverflow:count 0
scalar BulkTransfer.router.ppp[0].queue droppedPacketLengthsQueueOverflow:sum 0
scalar BulkTransfer.router.ppp[0].ppp transmissionState:timeavg 0
scalar BulkTransfer.router.ppp[0].ppp rxPkOk:count 0
scalar BulkTransfer.router.ppp[0].ppp rxPkOk:sum(packetBytes) 0
scalar BulkTransfer.router.ppp[0].ppp txPk:count 0
scalar BulkTransfer.router.ppp[0].ppp txPk:sum(packetBytes) 0
scalar BulkTransfer.router.ppp[0].ppp rcvdPkFromHl:count 0
scalar BulkTransfer.router.ppp[0].ppp rcvdPkFromHl:sum(packetBytes) 0
scalar BulkTransfer.router.ppp[0].ppp passedUpPk:count 0
scalar BulkTransfer.router.ppp[0].ppp passedUpPk:sum(packetBytes) 0
scalar BulkTransfer.router.ppp[0].ppp packetDropIncorrectlyReceived:count 0
scalar BulkTransfer.router.ppp[0].ppp packetDropIncorrectlyReceived:sum(packetBytes) 0
scalar BulkTransfer.router.ppp[0].ppp packetDropInterfaceDown:count 0
scalar BulkTransfer.router.ppp[0].ppp packetDropInterfaceDown:sum(packetBytes) 0
scalar BulkTransfer.router.ppp[0] packetDropInterfaceDown:count 0
scalar BulkTransfer.router.ppp[0] packetDropInterfaceDown:sum(packetBytes) 0
scalar BulkTransfer.router.ppp[0] packetDropNoCarrier:count 0
scalar BulkTransfer.router.ppp[0] packetDropNoCarrier:sum(packetBytes) 0
scalar BulkTransfer.router.ppp[1].queue queueLength:last 0
scalar BulkTransfer.router.ppp[1].queue queueLength:max 3
scalar BulkTransfer.router.ppp[1].queue queueLength:timeavg 0.12522272
scalar BulkTransfer.router.ppp[1].queue queueBitLength:last 0
scalar BulkTransfer.router.ppp[1].queue queueBitLength:max 3712
scalar BulkTransfer.router.ppp[1].queue queueBitLength:timeavg 72.297410559999
scalar BulkTransfer.router.ppp[1].queue outgoingPackets:count 9507
scalar BulkTransfer.router.ppp[1].queue outgoingPacketLengths:sum 23773600
scalar BulkTransfer.router.ppp[1].queue incomingPackets:count 9507
scalar BulkTransfer.router.ppp[1].queue incomingPacketLengths:sum 23773600
scalar BulkTransfer.router.ppp[1].queue droppedPacketsQueueOverflow:count 0
scalar BulkTransfer.router.ppp[1].queue droppedPacketLengthsQueueOverflow:sum 0
scalar BulkTransfer.router.ppp[1].ppp transmissionState:timeavg 0.48611983999991
scalar BulkTransfer.router.ppp[1].ppp rxPkOk:count 9511
scalar BulkTransfer.router.ppp[1].ppp rxPkOk:sum(packetBytes) 3040581
scalar BulkTransfer.router.ppp[1].ppp txPk:count 9507
scalar BulkTransfer.router.ppp[1].ppp txPk:sum(packetBytes) 3038249
scalar BulkTransfer.router.ppp[1].ppp rcvdPkFromHl:count 9507
scalar BulkTransfer.router.ppp[1].ppp rcvdPkFromHl:sum(packetBytes) 2971700
scalar BulkTransfer.router.ppp[1].ppp passedUpPk:count 9511
scalar BulkTransfer.router.ppp[1].ppp passedUpPk:sum(packetBytes) 2974004
scalar BulkTransfer.router.ppp[1].ppp packetDropIncorrectlyReceived:count 0
scalar BulkTransfer.router.ppp[1].ppp packetDropIncorrectlyReceived:sum(packetBytes) 0
scalar BulkTransfer.router.ppp[1].ppp packetDropInterfaceDown:count 0
scalar BulkTransfer.router.ppp[1].ppp packetDropInterfaceDown:sum(packetBytes) 0
scalar BulkTransfer.router.ppp[1] packetDropInterfaceDown:count 0
scalar BulkTransfer.router.ppp[1] packetDropInterfaceDown:sum(packetBytes) 0
scalar BulkTransfer.router.ppp[1] packetDropNoCarrier:count 0
scalar BulkTransfer.router.ppp[1] packetDropNoCarrier:sum(packetBytes) 0
scalar BulkTransfer.router.ppp[2].queue queueLength:last 2
scalar BulkTransfer.router.ppp[2].queue queueLength:max 3
scalar BulkTransfer.router.ppp[2].queue queueLength:timeavg 0.125569892
scalar BulkTransfer.router.ppp[2].queue queueBitLength:last 640
scalar BulkTransfer.router.ppp[2].queue queueBitLength:max 3712
scalar BulkTransfer.router.ppp[2].queue queueBitLength:timeavg 75.608751359999
scalar BulkTransfer.router.ppp[2].queue outgoingPackets:count 9240
scalar BulkTransfer.router.ppp[2].queue outgoingPacketLengths:sum 23625696
scalar BulkTransfer.router.ppp[2].queue incomingPackets:count 9242
scalar BulkTransfer.router.ppp[2].queue incomingPacketLengths:sum 23626336
scalar BulkTransfer.router.ppp[2].queue droppedPacketsQueueOverflow:count 0
scalar BulkTransfer.router.ppp[2].queue droppedPacketLengthsQueueOverflow:sum 0
scalar BulkTransfer.router.ppp[2].ppp transmissionState:timeavg 0.48285502599991
scalar BulkTransfer.router.ppp[2].ppp rxPkOk:count 9214
scalar BulkTransfer.router.ppp[2].ppp rxPkOk:sum(packetBytes) 2886974
scalar BulkTransfer.router.ppp[2].ppp txPk:count 9240
scalar BulkTransfer.router.ppp[2].ppp txPk:sum(packetBytes) 3017892
scalar BulkTransfer.router.ppp[2].ppp rcvdPkFromHl:count 9240
scalar BulkTransfer.router.ppp[2].ppp rcvdPkFromHl:sum(packetBytes) 2953212
scalar BulkTransfer.router.ppp[2].ppp passedUpPk:count 9214
scalar BulkTransfer.router.ppp[2].ppp passedUpPk:sum(packetBytes) 2822476
scalar BulkTransfer.router.ppp[2].ppp packetDropIncorrectlyReceived:count 0
scalar BulkTransfer.router.ppp[2].ppp packetDropIncorrectlyReceived:sum(packetBytes) 0
scalar BulkTransfer.router.ppp[2].ppp packetDropInterfaceDown:count 0
scalar BulkTransfer.router.ppp[2].ppp packetDropInterfaceDown:sum(packetBytes) 0
scalar BulkTransfer.router.ppp[2] packetDropInterfaceDown:count 0
scalar BulkTransfer.router.ppp[2] packetDropInterfaceDown:sum(packetBytes) 0
scalar BulkTransfer.router.ppp[2] packetDropNoCarrier:count 0
scalar BulkTransfer.router.ppp[2] packetDropNoCarrier:sum(packetBytes) 0
scalar BulkTransfer.router.ppp[3].queue queueLength:last 4
scalar BulkTransfer.router.ppp[3].queue queueLength:max 10
scalar BulkTransfer.router.ppp[3].queue queueLength:timeavg 5.6136389959998
scalar BulkTransfer.router.ppp[3].queue queueBitLength:last 9856
scalar BulkTransfer.router.ppp[3].queue queueBitLength:max 27072
scalar BulkTransfer.router.ppp[3].queue queueBitLength:timeavg 12979.826889216
scalar BulkTransfer.router.ppp[3].queue outgoingPackets:count 18720
scalar BulkTransfer.router.ppp[3].queue outgoingPacketLengths:sum 46357376
scalar BulkTransfer.router.ppp[3].queue incomingPackets:count 18725
scalar BulkTransfer.router.ppp[3].queue incomingPacketLengths:sum 46371840
scalar BulkTransfer.router.ppp[3].queue droppedPacketsQueueOverflow:count 1
scalar BulkTransfer.router.ppp[3].queue droppedPacketLengthsQueueOverflow:sum 4608
scalar BulkTransfer.router.ppp[3].ppp transmissionState:timeavg 0.94810862999987
scalar BulkTransfer.router.ppp[3].ppp rxPkOk:count 18749
scalar BulkTransfer.router.ppp[3].ppp rxPkOk:sum(packetBytes) 6056235
scalar BulkTransfer.router.ppp[3].ppp txPk:count 18720
scalar BulkTransfer.router.ppp[3].ppp txPk:sum(packetBytes) 5925712
scalar BulkTransfer.router.ppp[3].ppp rcvdPkFromHl:count 18720
scalar BulkTransfer.router.ppp[3].ppp rcvdPkFromHl:sum(packetBytes) 5794672
scalar BulkTransfer.router.ppp[3].ppp passedUpPk:count 18749
scalar BulkTransfer.router.ppp[3].ppp passedUpPk:sum(packetBytes) 5924992
scalar BulkTransfer.router.ppp[3].ppp packetDropIncorrectlyReceived:count 0
scalar BulkTransfer.router.ppp[3].ppp packetDropIncorrectlyReceived:sum(packetBytes) 0
scalar BulkTransfer.router.ppp[3].ppp packetDropInterfaceDown:count 0
scalar BulkTransfer.router.ppp[3].ppp packetDropInterfaceDown:sum(packetBytes) 0
scalar BulkTransfer.router.ppp[3] packetDropInterfaceDown:count 0
scalar BulkTransfer.router.ppp[3] packetDropInterfaceDown:sum(packetBytes) 0
scalar BulkTransfer.router.ppp[3] packetDropNoCarrier:count 0
scalar BulkTransfer.router.ppp[3] packetDropNoCarrier:sum(packetBytes) 0
scalar BulkTransfer.router.ipv4.ip packetDropAddressResolutionFailed:count 0
scalar BulkTransfer.router.ipv4.ip packetDropAddressResolutionFailed:sum(packetBytes) 0
scalar BulkTransfer.router.ipv4.ip packetDropHopLimitReached:count 0
scalar BulkTransfer.router.ipv4.ip packetDropHopLimitReached:sum(packetBytes) 0
scalar BulkTransfer.router.ipv4.ip packetDropForwardingDisabled:count 0
scalar BulkTransfer.router.ipv4.ip packetDropForwardingDisabled:sum(packetBytes) 0
scalar BulkTransfer.router.ipv4.ip packetDropLifetimeExpired:count 0
scalar BulkTransfer.router.ipv4.ip packetDropLifetimeExpired:sum(packetBytes) 0
scalar BulkTransfer.router.ipv4.ip packetDropNoInterfaceFound:count 0
scalar BulkTransfer.router.ipv4.ip packetDropNoInterfaceFound:sum(packetBytes) 0
scalar BulkTransfer.router.ipv4.ip packetDropNoRouteFound:count 0
scalar BulkTransfer.router.ipv4.ip packetDropNoRouteFound:sum(packetBytes) 0
scalar BulkTransfer.router.ipv4.ip packetDropUndefined:count 0
scalar BulkTransfer.router.ipv4.ip packetDropUndefined:sum(packetBytes) 0
scalar BulkTransfer.router.ipv4.arp arpResolutionFailed:count 0
scalar BulkTransfer.router.ipv4.arp arpResolutionCompleted:count 0
scalar BulkTransfer.router.ipv4.arp arpResolutionInitiated:count 0
scalar BulkTransfer.router.ipv4.arp arpReplySent:count 0
scalar BulkTransfer.router.ipv4.arp arpReplySent:sum(packetBytes) 0
scalar BulkTransfer.router.ipv4.arp arpRequestSent:count 0
scalar BulkTransfer.router.ipv4.arp arpRequestSent:sum(packetBytes) 0
scalar BulkTransfer.client1.ppp[0].queue queueingTime:histogram:count 0
scalar BulkTransfer.client1.ppp[0].queue queueingTime:histogram:sumweights 0
scalar BulkTransfer.client1.ppp[0].queue queueingTime:histogram:mean -nan
scalar BulkTransfer.client1.ppp[0].queue queueingTime:histogram:stddev nan
scalar BulkTransfer.client1.ppp[0].queue queueingTime:histogram:min nan
scalar BulkTransfer.client1.ppp[0].queue queueingTime:histogram:max nan
scalar BulkTransfer.client1.ppp[0].queue queueingTime:histogram:numbins 1
scalar BulkTransfer.client1.ppp[0].queue queueingTime:histogram:rangemin 0
scalar BulkTransfer.client1.ppp[0].queue queueingTime:histogram:rangemax 1
scalar BulkTransfer.client1.ppp[0].queue queueingTime:histogram:underflows 0
scalar BulkTransfer.client1.ppp[0].queue queueingTime:histogram:overflows 0
scalar BulkTransfer.client1.ppp[0].queue outgoingPacketLengths:histogram:count 0
scalar BulkTransfer.client1.ppp[0].queue outgoingPacketLengths:histogram:sumweights 0
scalar BulkTransfer.client1.ppp[0].queue outgoingPacketLengths:histogram:mean -nan
scalar BulkTransfer.client1.ppp[0].queue outgoingPacketLengths:histogram:stddev nan
scalar BulkTransfer.client1.ppp[0].queue outgoingPacketLengths:histogram:min nan
scalar BulkTransfer.client1.ppp[0].queue outgoingPacketLengths:histogram:max nan
scalar BulkTransfer.client1.ppp[0].queue outgoingPacketLengths:histogram:numbins 1
scalar BulkTransfer.client1.ppp[0].queue outgoingPacketLengths:histogram:rangemin 0
scalar BulkTransfer.client1.ppp[0].queue outgoingPacketLengths:histogram:rangemax 1
scalar BulkTransfer.client1.ppp[0].queue outgoingPacketLengths:histogram:underflows 0
scalar BulkTransfer.client1.ppp[0].queue outgoingPacketLengths:histogram:overflows 0
scalar BulkTransfer.client1.ppp[0].queue flowQueueingTime:histogram:count 0
scalar BulkTransfer.client1.ppp[0].queue flowQueueingTime:histogram:sumweights 0
scalar BulkTransfer.client1.ppp[0].queue flowQueueingTime:histogram:mean -nan
scalar BulkTransfer.client1.ppp[0].queue flowQueueingTime:histogram:stddev nan
scalar BulkTransfer.client1.ppp[0].queue flowQueueingTime:histogram:min nan
scalar BulkTransfer.client1.ppp[0].queue flowQueueingTime:histogram:max nan
scalar BulkTransfer.client1.ppp[0].queue flowQueueingTime:histogram:numbins 1
scalar BulkTransfer.client1.ppp[0].queue flowQueueingTime:histogram:rangemin 0
scalar BulkTransfer.client1.ppp[0].queue flowQueueingTime:histogram:rangemax 1
scalar BulkTransfer.client1.ppp[0].queue flowQueueingTime:histogram:underflows 0
scalar BulkTransfer.client1.ppp[0].queue flowQueueingTime:histogram:overflows 0
scalar BulkTransfer.client1.ppp[0].queue incomingPacketLengths:histogram:count 0
scalar BulkTransfer.client1.ppp[0].queue incomingPacketLengths:histogram:sumweights 0
scalar BulkTransfer.client1.ppp[0].queue incomingPacketLengths:histogram:mean -nan
scalar BulkTransfer.client1.ppp[0].queue incomingPacketLengths:histogram:stddev nan
scalar BulkTransfer.client1.ppp[0].queue incomingPacketLengths:histogram:min nan
scalar BulkTransfer.client1.ppp[0].queue incomingPacketLengths:histogram:max nan
scalar BulkTransfer.client1.ppp[0].queue incomingPacketLengths:histogram:numbins 1
scalar BulkTransfer.client1.ppp[0].queue incomingPacketLengths:histogram:rangemin 0
scalar BulkTransfer.client1.ppp[0].queue incomingPacketLengths:histogram:rangemax 1
scalar BulkTransfer.client1.ppp[0].queue incomingPacketLengths:histogram:underflows 0
scalar BulkTransfer.client1.ppp[0].queue incomingPacketLengths:histogram:overflows 0
scalar BulkTransfer.client1.ppp[1].queue queueingTime:histogram:count 18964
scalar BulkTransfer.client1.ppp[1].queue queueingTime:histogram:sumweights 18964
scalar BulkTransfer.client1.ppp[1].queue queueingTime:histogram:mean 0.0068711348766078
scalar BulkTransfer.client1.ppp[1].queue queueingTime:histogram:stddev 0.0031842338423227
scalar BulkTransfer.client1.ppp[1].queue queueingTime:histogram:min 0
scalar BulkTransfer.client1.ppp[1].queue queueingTime:histogram:max 0.0151198
scalar BulkTransfer.client1.ppp[1].queue queueingTime:histogram:numbins 86
scalar BulkTransfer.client1.ppp[1].queue queueingTime:histogram:rangemin 0
scalar BulkTransfer.client1.ppp[1].queue queueingTime:histogram:rangemax 0.0172
scalar BulkTransfer.client1.ppp[1].queue queueingTime:histogram:underflows 0
scalar BulkTransfer.client1.ppp[1].queue queueingTime:histogram:overflows 0
scalar BulkTransfer.client1.ppp[1].queue outgoingPacketLengths:histogram:count 18964
scalar BulkTransfer.client1.ppp[1].queue outgoingPacketLengths:histogram:sumweights 18964
scalar BulkTransfer.client1.ppp[1].queue outgoingPacketLengths:histogram:mean 2501.6578780848
scalar BulkTransfer.client1.ppp[1].queue outgoingPacketLengths:histogram:stddev 2081.9518704328
scalar BulkTransfer.client1.ppp[1].queue outgoingPacketLengths:histogram:min 320
scalar BulkTransfer.client1.ppp[1].queue outgoingPacketLengths:histogram:max 4608
scalar BulkTransfer.client1.ppp[1].queue outgoingPacketLengths:histogram:numbins 57
scalar BulkTransfer.client1.ppp[1].queue outgoingPacketLengths:histogram:rangemin 0
scalar BulkTransfer.client1.ppp[1].queue outgoingPacketLengths:histogram:rangemax 5700
scalar BulkTransfer.client1.ppp[1].queue outgoingPacketLengths:histogram:underflows 0
scalar BulkTransfer.client1.ppp[1].queue outgoingPacketLengths:histogram:overflows 0
scalar BulkTransfer.client1.ppp[1].queue flowQueueingTime:histogram:count 0
scalar BulkTransfer.client1.ppp[1].queue flowQueueingTime:histogram:sumweights 0
scalar BulkTransfer.client1.ppp[1].queue flowQueueingTime:histogram:mean -nan
scalar BulkTransfer.client1.ppp[1].queue flowQueueingTime:histogram:stddev nan
scalar BulkTransfer.client1.ppp[1].queue flowQueueingTime:histogram:min nan
scalar BulkTransfer.client1.ppp[1].queue flowQueueingTime:histogram:max nan
scalar BulkTransfer.client1.ppp[1].queue flowQueueingTime:histogram:numbins 1
scalar BulkTransfer.client1.ppp[1].queue flowQueueingTime:histogram:rangemin 0
scalar BulkTransfer.client1.ppp[1].queue flowQueueingTime:histogram:rangemax 1
scalar BulkTransfer.client1.ppp[1].queue flowQueueingTime:histogram:underflows 0
scalar BulkTransfer.client1.ppp[1].queue flowQueueingTime:histogram:overflows 0
scalar BulkTransfer.client1.ppp[1].queue incomingPacketLengths:histogram:count 18967
scalar BulkTransfer.client1.ppp[1].queue incomingPacketLengths:histogram:sumweights 18967
scalar BulkTransfer.client1.ppp[1].queue incomingPacketLengths:histogram:mean 2501.5388833237
scalar BulkTransfer.client1.ppp[1].queue incomingPacketLengths:histogram:stddev 2081.9639264782
scalar BulkTransfer.client1.ppp[1].queue incomingPacketLengths:histogram:min 320
scalar BulkTransfer.client1.ppp[1].queue incomingPacketLengths:histogram:max 4608
scalar BulkTransfer.client1.ppp[1].queue incomingPacketLengths:histogram:numbins 57
scalar BulkTransfer.client1.ppp[1].queue incomingPacketLengths:histogram:rangemin 0
scalar BulkTransfer.client1.ppp[1].queue incomingPacketLengths:histogram:rangemax 5700
scalar BulkTransfer.client1.ppp[1].queue incomingPacketLengths:histogram:underflows 0
scalar BulkTransfer.client1.ppp[1].queue incomingPacketLengths:histogram:overflows 0
scalar BulkTransfer.client1.app[0] endToEndDelay:histogram:count 0
scalar BulkTransfer.client1.app[0] endToEndDelay:histogram:sumweights 0
scalar BulkTransfer.client1.app[0] endToEndDelay:histogram:mean -nan
scalar BulkTransfer.client1.app[0] endToEndDelay:histogram:stddev nan
scalar BulkTransfer.client1.app[0] endToEndDelay:histogram:min nan
scalar BulkTransfer.client1.app[0] endToEndDelay:histogram:max nan
scalar BulkTransfer.client1.app[0] endToEndDelay:histogram:numbins 1
scalar BulkTransfer.client1.app[0] endToEndDelay:histogram:rangemin 0
scalar BulkTransfer.client1.app[0] endToEndDelay:histogram:rangemax 1
scalar BulkTransfer.client1.app[0] endToEndDelay:histogram:underflows 0
scalar BulkTransfer.client1.app[0] endToEndDelay:histogram:overflows 0
scalar BulkTransfer.client1.app[0] endToEndDelay:weightedHistogram:count 0
scalar BulkTransfer.client1.app[0] endToEndDelay:weightedHistogram:sumweights 0
scalar BulkTransfer.client1.app[0] endToEndDelay:weightedHistogram:mean -nan
scalar BulkTransfer.client1.app[0] endToEndDelay:weightedHistogram:stddev nan
scalar BulkTransfer.client1.app[0] endToEndDelay:weightedHistogram:min nan
scalar BulkTransfer.client1.app[0] endToEndDelay:weightedHistogram:max nan
scalar BulkTransfer.client1.app[0] endToEndDelay:weightedHistogram:numbins 1
scalar BulkTransfer.client1.app[0] endToEndDelay:weightedHistogram:rangemin 0
scalar BulkTransfer.client1.app[0] endToEndDelay:weightedHistogram:rangemax 1
scalar BulkTransfer.client1.app[0] endToEndDelay:weightedHistogram:underflows 0
scalar BulkTransfer.client1.app[0] endToEndDelay:weightedHistogram:overflows 0
scalar BulkTransfer.client2.ppp[0].queue queueingTime:histogram:count 9512
scalar BulkTransfer.client2.ppp[0].queue queueingTime:histogram:sumweights 9512
scalar BulkTransfer.client2.ppp[0].queue queueingTime:histogram:mean 0.0011301207106812
scalar BulkTransfer.client2.ppp[0].queue queueingTime:histogram:stddev 0.0019794016049044
scalar BulkTransfer.client2.ppp[0].queue queueingTime:histogram:min 0
scalar BulkTransfer.client2.ppp[0].queue queueingTime:histogram:max 0.008952
scalar BulkTransfer.client2.ppp[0].queue queueingTime:histogram:numbins 90
scalar BulkTransfer.client2.ppp[0].queue queueingTime:histogram:rangemin 0
scalar BulkTransfer.client2.ppp[0].queue queueingTime:histogram:rangemax 0.009
scalar BulkTransfer.client2.ppp[0].queue queueingTime:histogram:underflows 0
scalar BulkTransfer.client2.ppp[0].queue queueingTime:histogram:overflows 0
scalar BulkTransfer.client2.ppp[0].queue outgoingPacketLengths:histogram:count 9512
scalar BulkTransfer.client2.ppp[0].queue outgoingPacketLengths:histogram:sumweights 9512
scalar BulkTransfer.client2.ppp[0].queue outgoingPacketLengths:histogram:mean 2501.7493692178
scalar BulkTransfer.client2.ppp[0].queue outgoingPacketLengths:histogram:stddev 2082.0406691934
scalar BulkTransfer.client2.ppp[0].queue outgoingPacketLengths:histogram:min 320
scalar BulkTransfer.client2.ppp[0].queue outgoingPacketLengths:histogram:max 4608
scalar BulkTransfer.client2.ppp[0].queue outgoingPacketLengths:histogram:numbins 57
scalar BulkTransfer.client2.ppp[0].queue outgoingPacketLengths:histogram:rangemin 0
scalar BulkTransfer.client2.ppp[0].queue outgoingPacketLengths:histogram:rangemax 5700
scalar BulkTransfer.client2.ppp[0].queue outgoingPacketLengths:histogram:underflows 0
scalar BulkTransfer.client2.ppp[0].queue outgoingPacketLengths:histogram:overflows 0
scalar BulkTransfer.client2.ppp[0].queue flowQueueingTime:histogram:count 0
scalar BulkTransfer.client2.ppp[0].queue flowQueueingTime:histogram:sumweights 0
scalar BulkTransfer.client2.ppp[0].queue flowQueueingTime:histogram:mean -nan
scalar BulkTransfer.client2.ppp[0].queue flowQueueingTime:histogram:stddev nan
scalar BulkTransfer.client2.ppp[0].queue flowQueueingTime:histogram:min nan
scalar BulkTransfer.client2.ppp[0].queue flowQueueingTime:histogram:max nan
scalar BulkTransfer.client2.ppp[0].queue flowQueueingTime:histogram:numbins 1
scalar BulkTransfer.client2.ppp[0].queue flowQueueingTime:histogram:rangemin 0
scalar BulkTransfer.client2.ppp[0].queue flowQueueingTime:histogram:rangemax 1
scalar BulkTransfer.client2.ppp[0].queue flowQueueingTime:histogram:underflows 0
scalar BulkTransfer.client2.ppp[0].queue flowQueueingTime:histogram:overflows 0
scalar BulkTransfer.client2.ppp[0].queue incomingPacketLengths:histogram:count 9512
scalar BulkTransfer.client2.ppp[0].queue incomingPacketLengths:histogram:sumweights 9512
scalar BulkTransfer.client2.ppp[0].queue incomingPacketLengths:histogram:mean 2501.7493692178
scalar BulkTransfer.client2.ppp[0].queue incomingPacketLengths:histogram:stddev 2082.0406691934
scalar BulkTransfer.client2.ppp[0].queue incomingPacketLengths:histogram:min 320
scalar BulkTransfer.client2.ppp[0].queue incomingPacketLengths:histogram:max 4608
scalar BulkTransfer.client2.ppp[0].queue incomingPacketLengths:histogram:numbins 57
scalar BulkTransfer.client2.ppp[0].queue incomingPacketLengths:histogram:rangemin 0
scalar BulkTransfer.client2.ppp[0].queue incomingPacketLengths:histogram:rangemax 5700
scalar BulkTransfer.client2.ppp[0].queue incomingPacketLengths:histogram:underflows 0
scalar BulkTransfer.client2.ppp[0].queue incomingPacketLengths:histogram:overflows 0
scalar BulkTransfer.client2.app[0] endToEndDelay:histogram:count 0
scalar BulkTransfer.client2.app[0] endToEndDelay:histogram:sumweights 0
scalar BulkTransfer.client2.app[0] endToEndDelay:histogram:mean -nan
scalar BulkTransfer.client2.app[0] endToEndDelay:histogram:stddev nan
scalar BulkTransfer.client2.app[0] endToEndDelay:histogram:min nan
scalar BulkTransfer.client2.app[0] endToEndDelay:histogram:max nan
scalar BulkTransfer.client2.app[0] endToEndDelay:histogram:numbins 1
scalar BulkTransfer.client2.app[0] endToEndDelay:histogram:rangemin 0
scalar BulkTransfer.client2.app[0] endToEndDelay:histogram:rangemax 1
scalar BulkTransfer.client2.app[0] endToEndDelay:histogram:underflows 0
scalar BulkTransfer.client2.app[0] endToEndDelay:histogram:overflows 0
scalar BulkTransfer.client2.app[0] endToEndDelay:weightedHistogram:count 0
scalar BulkTransfer.client2.app[0] endToEndDelay:weightedHistogram:sumweights 0
scalar BulkTransfer.client2.app[0] endToEndDelay:weightedHistogram:mean -nan
scalar BulkTransfer.client2.app[0] endToEndDelay:weightedHistogram:stddev nan
scalar BulkTransfer.client2.app[0] endToEndDelay:weightedHistogram:min nan
scalar BulkTransfer.client2.app[0] endToEndDelay:weightedHistogram:max nan
scalar BulkTransfer.client2.app[0] endToEndDelay:weightedHistogram:numbins 1
scalar BulkTransfer.client2.app[0] endToEndDelay:weightedHistogram:rangemin 0
scalar BulkTransfer.client2.app[0] endToEndDelay:weightedHistogram:rangemax 1
scalar BulkTransfer.client2.app[0] endToEndDelay:weightedHistogram:underflows 0
scalar BulkTransfer.client2.app[0] endToEndDelay:weightedHistogram:overflows 0
scalar BulkTransfer.client3.ppp[0].queue queueingTime:histogram:count 9214
scalar BulkTransfer.client3.ppp[0].queue queueingTime:histogram:sumweights 9214
scalar BulkTransfer.client3.ppp[0].queue queueingTime:histogram:mean 0.0015704024527892
scalar BulkTransfer.client3.ppp[0].queue queueingTime:histogram:stddev 0.0023477129846574
scalar BulkTransfer.client3.ppp[0].queue queueingTime:histogram:min 0
scalar BulkTransfer.client3.ppp[0].queue queueingTime:histogram:max 0.012488
scalar BulkTransfer.client3.ppp[0].queue queueingTime:histogram:numbins 63
scalar BulkTransfer.client3.ppp[0].queue queueingTime:histogram:rangemin 0
scalar BulkTransfer.client3.ppp[0].queue queueingTime:histogram:rangemax 0.0126
scalar BulkTransfer.client3.ppp[0].queue queueingTime:histogram:underflows 0
scalar BulkTransfer.client3.ppp[0].queue queueingTime:histogram:overflows 0
scalar BulkTransfer.client3.ppp[0].queue outgoingPacketLengths:histogram:count 9214
scalar BulkTransfer.client3.ppp[0].queue outgoingPacketLengths:histogram:sumweights 9214
scalar BulkTransfer.client3.ppp[0].queue outgoingPacketLengths:histogram:mean 2450.5977859779
scalar BulkTransfer.client3.ppp[0].queue outgoingPacketLengths:histogram:stddev 2083.8420350881
scalar BulkTransfer.client3.ppp[0].queue outgoingPacketLengths:histogram:min 320
scalar BulkTransfer.client3.ppp[0].queue outgoingPacketLengths:histogram:max 4608
scalar BulkTransfer.client3.ppp[0].queue outgoingPacketLengths:histogram:numbins 57
scalar BulkTransfer.client3.ppp[0].queue outgoingPacketLengths:histogram:rangemin 0
scalar BulkTransfer.client3.ppp[0].queue outgoingPacketLengths:histogram:rangemax 5700
scalar BulkTransfer.client3.ppp[0].queue outgoingPacketLengths:histogram:underflows 0
scalar BulkTransfer.client3.ppp[0].queue outgoingPacketLengths:histogram:overflows 0
scalar BulkTransfer.client3.ppp[0].queue flowQueueingTime:histogram:count 0
scalar BulkTransfer.client3.ppp[0].queue flowQueueingTime:histogram:sumweights 0
scalar BulkTransfer.client3.ppp[0].queue flowQueueingTime:histogram:mean -nan
scalar BulkTransfer.client3.ppp[0].queue flowQueueingTime:histogram:stddev nan
scalar BulkTransfer.client3.ppp[0].queue flowQueueingTime:histogram:min nan
scalar BulkTransfer.client3.ppp[0].queue flowQueueingTime:histogram:max nan
scalar BulkTransfer.client3.ppp[0].queue flowQueueingTime:histogram:numbins 1
scalar BulkTransfer.client3.ppp[0].queue flowQueueingTime:histogram:rangemin 0
scalar BulkTransfer.client3.ppp[0].queue flowQueueingTime:histogram:rangemax 1
scalar BulkTransfer.client3.ppp[0].queue flowQueueingTime:histogram:underflows 0
scalar BulkTransfer.client3.ppp[0].queue flowQueueingTime:histogram:overflows 0
scalar BulkTransfer.client3.ppp[0].queue incomingPacketLengths:histogram:count 9214
scalar BulkTransfer.client3.ppp[0].queue incomingPacketLengths:histogram:sumweights 9214
scalar BulkTransfer.client3.ppp[0].queue incomingPacketLengths:histogram:mean 2450.5977859779
scalar BulkTransfer.client3.ppp[0].queue incomingPacketLengths:histogram:stddev 2083.8420350881
scalar BulkTransfer.client3.ppp[0].queue incomingPacketLengths:histogram:min 320
scalar BulkTransfer.client3.ppp[0].queue incomingPacketLengths:histogram:max 4608
scalar BulkTransfer.client3.ppp[0].queue incomingPacketLengths:histogram:numbins 57
scalar BulkTransfer.client3.ppp[0].queue incomingPacketLengths:histogram:rangemin 0
scalar BulkTransfer.client3.ppp[0].queue incomingPacketLengths:histogram:rangemax 5700
scalar BulkTransfer.client3.ppp[0].queue incomingPacketLengths:histogram:underflows 0
scalar BulkTransfer.client3.ppp[0].queue incomingPacketLengths:histogram:overflows 0
scalar BulkTransfer.client3.app[0] endToEndDelay:histogram:count 0
scalar BulkTransfer.client3.app[0] endToEndDelay:histogram:sumweights 0
scalar BulkTransfer.client3.app[0] endToEndDelay:histogram:mean -nan
scalar BulkTransfer.client3.app[0] endToEndDelay:histogram:stddev nan
scalar BulkTransfer.client3.app[0] endToEndDelay:histogram:min nan
scalar BulkTransfer.client3.app[0] endToEndDelay:histogram:max nan
scalar BulkTransfer.client3.app[0] endToEndDelay:histogram:numbins 1
scalar BulkTransfer.client3.app[0] endToEndDelay:histogram:rangemin 0
scalar BulkTransfer.client3.app[0] endToEndDelay:histogram:rangemax 1
scalar BulkTransfer.client3.app[0] endToEndDelay:histogram:underflows 0
scalar BulkTransfer.client3.app[0] endToEndDelay:histogram:overflows 0
scalar BulkTransfer.client3.app[0] endToEndDelay:weightedHistogram:count 0
scalar BulkTransfer.client3.app[0] endToEndDelay:weightedHistogram:sumweights 0
scalar BulkTransfer.client3.app[0] endToEndDelay:weightedHistogram:mean -nan
scalar BulkTransfer.client3.app[0] endToEndDelay:weightedHistogram:stddev nan
scalar BulkTransfer.client3.app[0] endToEndDelay:weightedHistogram:min nan
scalar BulkTransfer.client3.app[0] endToEndDelay:weightedHistogram:max nan
scalar BulkTransfer.client3.app[0] endToEndDelay:weightedHistogram:numbins 1
scalar BulkTransfer.client3.app[0] endToEndDelay:weightedHistogram:rangemin 0
scalar BulkTransfer.client3.app[0] endToEndDelay:weightedHistogram:rangemax 1
scalar BulkTransfer.client3.app[0] endToEndDelay:weightedHistogram:underflows 0
scalar BulkTransfer.client3.app[0] endToEndDelay:weightedHistogram:overflows 0
scalar BulkTransfer.server.ppp[0].queue queueingTime:histogram:count 18961
scalar BulkTransfer.server.ppp[0].queue queueingTime:histogram:sumweights 18961
scalar BulkTransfer.server.ppp[0].queue queueingTime:histogram:mean 0.007019173714466
scalar BulkTransfer.server.ppp[0].queue queueingTime:histogram:stddev 0.0031705081669017
scalar BulkTransfer.server.ppp[0].queue queueingTime:histogram:min 0
scalar BulkTransfer.server.ppp[0].queue queueingTime:histogram:max 0.013616
scalar BulkTransfer.server.ppp[0].queue queueingTime:histogram:numbins 69
scalar BulkTransfer.server.ppp[0].queue queueingTime:histogram:rangemin 0
scalar BulkTransfer.server.ppp[0].queue queueingTime:histogram:rangemax 0.0138
scalar BulkTransfer.server.ppp[0].queue queueingTime:histogram:underflows 0
scalar BulkTransfer.server.ppp[0].queue queueingTime:histogram:overflows 0
scalar BulkTransfer.server.ppp[0].queue outgoingPacketLengths:histogram:count 18961
scalar BulkTransfer.server.ppp[0].queue outgoingPacketLengths:histogram:sumweights 18961
scalar BulkTransfer.server.ppp[0].queue outgoingPacketLengths:histogram:mean 2501.3246136807
scalar BulkTransfer.server.ppp[0].queue outgoingPacketLengths:histogram:stddev 2081.9479619318
scalar BulkTransfer.server.ppp[0].queue outgoingPacketLengths:histogram:min 320
scalar BulkTransfer.server.ppp[0].queue outgoingPacketLengths:histogram:max 4608
scalar BulkTransfer.server.ppp[0].queue outgoingPacketLengths:histogram:numbins 57
scalar BulkTransfer.server.ppp[0].queue outgoingPacketLengths:histogram:rangemin 0
scalar BulkTransfer.server.ppp[0].queue outgoingPacketLengths:histogram:rangemax 5700
scalar BulkTransfer.server.ppp[0].queue outgoingPacketLengths:histogram:underflows 0
scalar BulkTransfer.server.ppp[0].queue outgoingPacketLengths:histogram:overflows 0
scalar BulkTransfer.server.ppp[0].queue flowQueueingTime:histogram:count 0
scalar BulkTransfer.server.ppp[0].queue flowQueueingTime:histogram:sumweights 0
scalar BulkTransfer.server.ppp[0].queue flowQueueingTime:histogram:mean -nan
scalar BulkTransfer.server.ppp[0].queue flowQueueingTime:histogram:stddev nan
scalar BulkTransfer.server.ppp[0].queue flowQueueingTime:histogram:min nan
scalar BulkTransfer.server.ppp[0].queue flowQueueingTime:histogram:max nan
scalar BulkTransfer.server.ppp[0].queue flowQueueingTime:histogram:numbins 1
scalar BulkTransfer.server.ppp[0].queue flowQueueingTime:histogram:rangemin 0
scalar BulkTransfer.server.ppp[0].queue flowQueueingTime:histogram:rangemax 1
scalar BulkTransfer.server.ppp[0].queue flowQueueingTime:histogram:underflows 0
scalar BulkTransfer.server.ppp[0].queue flowQueueingTime:histogram:overflows 0
scalar BulkTransfer.server.ppp[0].queue incomingPacketLengths:histogram:count 18963
scalar BulkTransfer.server.ppp[0].queue incomingPacketLengths:histogram:sumweights 18963
scalar BulkTransfer.server.ppp[0].queue incomingPacketLengths:histogram:mean 2501.3206771081
scalar BulkTransfer.server.ppp[0].queue incomingPacketLengths:histogram:stddev 2081.9546396239
scalar BulkTransfer.server.ppp[0].queue incomingPacketLengths:histogram:min 320
scalar BulkTransfer.server.ppp[0].queue incomingPacketLengths:histogram:max 4608
scalar BulkTransfer.server.ppp[0].queue incomingPacketLengths:histogram:numbins 57
scalar BulkTransfer.server.ppp[0].queue incomingPacketLengths:histogram:rangemin 0
scalar BulkTransfer.server.ppp[0].queue incomingPacketLengths:histogram:rangemax 5700
scalar BulkTransfer.server.ppp[0].queue incomingPacketLengths:histogram:underflows 0
scalar BulkTransfer.server.ppp[0].queue incomingPacketLengths:histogram:overflows 0
scalar BulkTransfer.server.ppp[1].queue queueingTime:histogram:count 18750
scalar BulkTransfer.server.ppp[1].queue queueingTime:histogram:sumweights 18750
scalar BulkTransfer.server.ppp[1].queue queueingTime:histogram:mean 0.010696749237334
scalar BulkTransfer.server.ppp[1].queue queueingTime:histogram:stddev 0.0054215474201881
scalar BulkTransfer.server.ppp[1].queue queueingTime:histogram:min 0
scalar BulkTransfer.server.ppp[1].queue queueingTime:histogram:max 0.0291116
scalar BulkTransfer.server.ppp[1].queue queueingTime:histogram:numbins 73
scalar BulkTransfer.server.ppp[1].queue queueingTime:histogram:rangemin 0
scalar BulkTransfer.server.ppp[1].queue queueingTime:histogram:rangemax 0.0292
scalar BulkTransfer.server.ppp[1].queue queueingTime:histogram:underflows 0
scalar BulkTransfer.server.ppp[1].queue queueingTime:histogram:overflows 0
scalar BulkTransfer.server.ppp[1].queue outgoingPacketLengths:histogram:count 18750
scalar BulkTransfer.server.ppp[1].queue outgoingPacketLengths:histogram:sumweights 18750
scalar BulkTransfer.server.ppp[1].queue outgoingPacketLengths:histogram:mean 2528.2423466667
scalar BulkTransfer.server.ppp[1].queue outgoingPacketLengths:histogram:stddev 2080.6383597189
scalar BulkTransfer.server.ppp[1].queue outgoingPacketLengths:histogram:min 320
scalar BulkTransfer.server.ppp[1].queue outgoingPacketLengths:histogram:max 4608
scalar BulkTransfer.server.ppp[1].queue outgoingPacketLengths:histogram:numbins 57
scalar BulkTransfer.server.ppp[1].queue outgoingPacketLengths:histogram:rangemin 0
scalar BulkTransfer.server.ppp[1].queue outgoingPacketLengths:histogram:rangemax 5700
scalar BulkTransfer.server.ppp[1].queue outgoingPacketLengths:histogram:underflows 0
scalar BulkTransfer.server.ppp[1].queue outgoingPacketLengths:histogram:overflows 0
scalar BulkTransfer.server.ppp[1].queue flowQueueingTime:histogram:count 0
scalar BulkTransfer.server.ppp[1].queue flowQueueingTime:histogram:sumweights 0
scalar BulkTransfer.server.ppp[1].queue flowQueueingTime:histogram:mean -nan
scalar BulkTransfer.server.ppp[1].queue flowQueueingTime:histogram:stddev nan
scalar BulkTransfer.server.ppp[1].queue flowQueueingTime:histogram:min nan
scalar BulkTransfer.server.ppp[1].queue flowQueueingTime:histogram:max nan
scalar BulkTransfer.server.ppp[1].queue flowQueueingTime:histogram:numbins 1
scalar BulkTransfer.server.ppp[1].queue flowQueueingTime:histogram:rangemin 0
scalar BulkTransfer.server.ppp[1].queue flowQueueingTime:histogram:rangemax 1
scalar BulkTransfer.server.ppp[1].queue flowQueueingTime:histogram:underflows 0
scalar BulkTransfer.server.ppp[1].queue flowQueueingTime:histogram:overflows 0
scalar BulkTransfer.server.ppp[1].queue incomingPacketLengths:histogram:count 18756
scalar BulkTransfer.server.ppp[1].queue incomingPacketLengths:histogram:sumweights 18756
scalar BulkTransfer.server.ppp[1].queue incomingPacketLengths:histogram:mean 2528.3685220729
scalar BulkTransfer.server.ppp[1].queue incomingPacketLengths:histogram:stddev 2080.6005590354
scalar BulkTransfer.server.ppp[1].queue incomingPacketLengths:histogram:min 320
scalar BulkTransfer.server.ppp[1].queue incomingPacketLengths:histogram:max 4608
scalar BulkTransfer.server.ppp[1].queue incomingPacketLengths:histogram:numbins 57
scalar BulkTransfer.server.ppp[1].queue incomingPacketLengths:histogram:rangemin 0
scalar BulkTransfer.server.ppp[1].queue incomingPacketLengths:histogram:rangemax 5700
scalar BulkTransfer.server.ppp[1].queue incomingPacketLengths:histogram:underflows 0
scalar BulkTransfer.server.ppp[1].queue incomingPacketLengths:histogram:overflows 0
scalar BulkTransfer.server.app[0].thread_17 endToEndDelay:histogram:count 0
scalar BulkTransfer.server.app[0].thread_17 endToEndDelay:histogram:sumweights 0
scalar BulkTransfer.server.app[0].thread_17 endToEndDelay:histogram:mean -nan
scalar BulkTransfer.server.app[0].thread_17 endToEndDelay:histogram:stddev nan
scalar BulkTransfer.server.app[0].thread_17 endToEndDelay:histogram:min nan
scalar BulkTransfer.server.app[0].thread_17 endToEndDelay:histogram:max nan
scalar BulkTransfer.server.app[0].thread_17 endToEndDelay:histogram:numbins 1
scalar BulkTransfer.server.app[0].thread_17 endToEndDelay:histogram:rangemin 0
scalar BulkTransfer.server.app[0].thread_17 endToEndDelay:histogram:rangemax 1
scalar BulkTransfer.server.app[0].thread_17 endToEndDelay:histogram:underflows 0
scalar BulkTransfer.server.app[0].thread_17 endToEndDelay:histogram:overflows 0
scalar BulkTransfer.server.app[0].thread_17 endToEndDelay:weightedHistogram:count 0
scalar BulkTransfer.server.app[0].thread_17 endToEndDelay:weightedHistogram:sumweights 0
scalar BulkTransfer.server.app[0].thread_17 endToEndDelay:weightedHistogram:mean -nan
scalar BulkTransfer.server.app[0].thread_17 endToEndDelay:weightedHistogram:stddev nan
scalar BulkTransfer.server.app[0].thread_17 endToEndDelay:weightedHistogram:min nan
scalar BulkTransfer.server.app[0].thread_17 endToEndDelay:weightedHistogram:max nan
scalar BulkTransfer.server.app[0].thread_17 endToEndDelay:weightedHistogram:numbins 1
scalar BulkTransfer.server.app[0].thread_17 endToEndDelay:weightedHistogram:rangemin 0
scalar BulkTransfer.server.app[0].thread_17 endToEndDelay:weightedHistogram:rangemax 1
scalar BulkTransfer.server.app[0].thread_17 endToEndDelay:weightedHistogram:underflows 0
scalar BulkTransfer.server.app[0].thread_17 endToEndDelay:weightedHistogram:overflows 0
scalar BulkTransfer.server.app[0].thread_18 endToEndDelay:histogram:count 0
scalar BulkTransfer.server.app[0].thread_18 endToEndDelay:histogram:sumweights 0
scalar BulkTransfer.server.app[0].thread_18 endToEndDelay:histogram:mean -nan
scalar BulkTransfer.server.app[0].thread_18 endToEndDelay:histogram:stddev nan
scalar BulkTransfer.server.app[0].thread_18 endToEndDelay:histogram:min nan
scalar BulkTransfer.server.app[0].thread_18 endToEndDelay:histogram:max nan
scalar BulkTransfer.server.app[0].thread_18 endToEndDelay:histogram:numbins 1
scalar BulkTransfer.server.app[0].thread_18 endToEndDelay:histogram:rangemin 0
scalar BulkTransfer.server.app[0].thread_18 endToEndDelay:histogram:rangemax 1
scalar BulkTransfer.server.app[0].thread_18 endToEndDelay:histogram:underflows 0
scalar BulkTransfer.server.app[0].thread_18 endToEndDelay:histogram:overflows 0
scalar BulkTransfer.server.app[0].thread_18 endToEndDelay:weightedHistogram:count 0
scalar BulkTransfer.server.app[0].thread_18 endToEndDelay:weightedHistogram:sumweights 0
scalar BulkTransfer.server.app[0].thread_18 endToEndDelay:weightedHistogram:mean -nan
scalar BulkTransfer.server.app[0].thread_18 endToEndDelay:weightedHistogram:stddev nan
scalar BulkTransfer.server.app[0].thread_18 endToEndDelay:weightedHistogram:min nan
scalar BulkTransfer.server.app[0].thread_18 endToEndDelay:weightedHistogram:max nan
scalar BulkTransfer.server.app[0].thread_18 endToEndDelay:weightedHistogram:numbins 1
scalar BulkTransfer.server.app[0].thread_18 endToEndDelay:weightedHistogram:rangemin 0
scalar BulkTransfer.server.app[0].thread_18 endToEndDelay:weightedHistogram:rangemax 1
scalar BulkTransfer.server.app[0].thread_18 endToEndDelay:weightedHistogram:underflows 0
scalar BulkTransfer.server.app[0].thread_18 endToEndDelay:weightedHistogram:overflows 0
scalar BulkTransfer.server.app[0].thread_19 endToEndDelay:histogram:count 0
scalar BulkTransfer.server.app[0].thread_19 endToEndDelay:histogram:sumweights 0
scalar BulkTransfer.server.app[0].thread_19 endToEndDelay:histogram:mean -nan
scalar BulkTransfer.server.app[0].thread_19 endToEndDelay:histogram:stddev nan
scalar BulkTransfer.server.app[0].thread_19 endToEndDelay:histogram:min nan
scalar BulkTransfer.server.app[0].thread_19 endToEndDelay:histogram:max nan
scalar BulkTransfer.server.app[0].thread_19 endToEndDelay:histogram:numbins 1
scalar BulkTransfer.server.app[0].thread_19 endToEndDelay:histogram:rangemin 0
scalar BulkTransfer.server.app[0].thread_19 endToEndDelay:histogram:rangemax 1
scalar BulkTransfer.server.app[0].thread_19 endToEndDelay:histogram:underflows 0
scalar BulkTransfer.server.app[0].thread_19 endToEndDelay:histogram:overflows 0
scalar BulkTransfer.server.app[0].thread_19 endToEndDelay:weightedHistogram:count 0
scalar BulkTransfer.server.app[0].thread_19 endToEndDelay:weightedHistogram:sumweights 0
scalar BulkTransfer.server.app[0].thread_19 endToEndDelay:weightedHistogram:mean -nan
scalar BulkTransfer.server.app[0].thread_19 endToEndDelay:weightedHistogram:stddev nan
scalar BulkTransfer.server.app[0].thread_19 endToEndDelay:weightedHistogram:min nan
scalar BulkTransfer.server.app[0].thread_19 endToEndDelay:weightedHistogram:max nan
scalar BulkTransfer.server.app[0].thread_19 endToEndDelay:weightedHistogram:numbins 1
scalar BulkTransfer.server.app[0].thread_19 endToEndDelay:weightedHistogram:rangemin 0
scalar BulkTransfer.server.app[0].thread_19 endToEndDelay:weightedHistogram:rangemax 1
scalar BulkTransfer.server.app[0].thread_19 endToEndDelay:weightedHistogram:underflows 0
scalar BulkTransfer.server.app[0].thread_19 endToEndDelay:weightedHistogram:overflows 0
scalar BulkTransfer.server.app[0] endToEndDelay:histogram:count 0
scalar BulkTransfer.server.app[0] endToEndDelay:histogram:sumweights 0
scalar BulkTransfer.server.app[0] endToEndDelay:histogram:mean -nan
scalar BulkTransfer.server.app[0] endToEndDelay:histogram:stddev nan
scalar BulkTransfer.server.app[0] endToEndDelay:histogram:min nan
scalar BulkTransfer.server.app[0] endToEndDelay:histogram:max nan
scalar BulkTransfer.server.app[0] endToEndDelay:histogram:numbins 1
scalar BulkTransfer.server.app[0] endToEndDelay:histogram:rangemin 0
scalar BulkTransfer.server.app[0] endToEndDelay:histogram:rangemax 1
scalar BulkTransfer.server.app[0] endToEndDelay:histogram:underflows 0
scalar BulkTransfer.server.app[0] endToEndDelay:histogram:overflows 0
scalar BulkTransfer.server.app[0] endToEndDelay:weightedHistogram:count 0
scalar BulkTransfer.server.app[0] endToEndDelay:weightedHistogram:sumweights 0
scalar BulkTransfer.server.app[0] endToEndDelay:weightedHistogram:mean -nan
scalar BulkTransfer.server.app[0] endToEndDelay:weightedHistogram:stddev nan
scalar BulkTransfer.server.app[0] endToEndDelay:weightedHistogram:min nan
scalar BulkTransfer.server.app[0] endToEndDelay:weightedHistogram:max nan
scalar BulkTransfer.server.app[0] endToEndDelay:weightedHistogram:numbins 1
scalar BulkTransfer.server.app[0] endToEndDelay:weightedHistogram:rangemin 0
scalar BulkTransfer.server.app[0] endToEndDelay:weightedHistogram:rangemax 1
scalar BulkTransfer.server.app[0] endToEndDelay:weightedHistogram:underflows 0
scalar BulkTransfer.server.app[0] endToEndDelay:weightedHistogram:overflows 0
scalar BulkTransfer.router.ppp[0].queue queueingTime:histogram:count 0
scalar BulkTransfer.router.ppp[0].queue queueingTime:histogram:sumweights 0
scalar BulkTransfer.router.ppp[0].queue queueingTime:histogram:mean -nan
scalar BulkTransfer.router.ppp[0].queue queueingTime:histogram:stddev nan
scalar BulkTransfer.router.ppp[0].queue queueingTime:histogram:min nan
scalar BulkTransfer.router.ppp[0].queue queueingTime:histogram:max nan
scalar BulkTransfer.router.ppp[0].queue queueingTime:histogram:numbins 1
scalar BulkTransfer.router.ppp[0].queue queueingTime:histogram:rangemin 0
scalar BulkTransfer.router.ppp[0].queue queueingTime:histogram:rangemax 1
scalar BulkTransfer.router.ppp[0].queue queueingTime:histogram:underflows 0
scalar BulkTransfer.router.ppp[0].queue queueingTime:histogram:overflows 0
scalar BulkTransfer.router.ppp[0].queue outgoingPacketLengths:histogram:count 0
scalar BulkTransfer.router.ppp[0].queue outgoingPacketLengths:histogram:sumweights 0
scalar BulkTransfer.router.ppp[0].queue outgoingPacketLengths:histogram:mean -nan
scalar BulkTransfer.router.ppp[0].queue outgoingPacketLengths:histogram:stddev nan
scalar BulkTransfer.router.ppp[0].queue outgoingPacketLengths:histogram:min nan
scalar BulkTransfer.router.ppp[0].queue outgoingPacketLengths:histogram:max nan
scalar BulkTransfer.router.ppp[0].queue outgoingPacketLengths:histogram:numbins 1
scalar BulkTransfer.router.ppp[0].queue outgoingPacketLengths:histogram:rangemin 0
scalar BulkTransfer.router.ppp[0].queue outgoingPacketLengths:histogram:rangemax 1
scalar BulkTransfer.router.ppp[0].queue outgoingPacketLengths:histogram:underflows 0
scalar BulkTransfer.router.ppp[0].queue outgoingPacketLengths:histogram:overflows 0
scalar BulkTransfer.router.ppp[0].queue flowQueueingTime:histogram:count 0
scalar BulkTransfer.router.ppp[0].queue flowQueueingTime:histogram:sumweights 0
scalar BulkTransfer.router.ppp[0].queue flowQueueingTime:histogram:mean -nan
scalar BulkTransfer.router.ppp[0].queue flowQueueingTime:histogram:stddev nan
scalar BulkTransfer.router.ppp[0].queue flowQueueingTime:histogram:min nan
scalar BulkTransfer.router.ppp[0].queue flowQueueingTime:histogram:max nan
scalar BulkTransfer.router.ppp[0].queue flowQueueingTime:histogram:numbins 1
scalar BulkTransfer.router.ppp[0].queue flowQueueingTime:histogram:rangemin 0
scalar BulkTransfer.router.ppp[0].queue flowQueueingTime:histogram:rangemax 1
scalar BulkTransfer.router.ppp[0].queue flowQueueingTime:histogram:underflows 0
scalar BulkTransfer.router.ppp[0].queue flowQueueingTime:histogram:overflows 0
scalar BulkTransfer.router.ppp[0].queue incomingPacketLengths:histogram:count 0
scalar BulkTransfer.router.ppp[0].queue incomingPacketLengths:histogram:sumweights 0
scalar BulkTransfer.router.ppp[0].queue incomingPacketLengths:histogram:mean -nan
scalar BulkTransfer.router.ppp[0].queue incomingPacketLengths:histogram:stddev nan
scalar BulkTransfer.router.ppp[0].queue incomingPacketLengths:histogram:min nan
scalar BulkTransfer.router.ppp[0].queue incomingPacketLengths:histogram:max nan
scalar BulkTransfer.router.ppp[0].queue incomingPacketLengths:histogram:numbins 1
scalar BulkTransfer.router.ppp[0].queue incomingPacketLengths:histogram:rangemin 0
scalar BulkTransfer.router.ppp[0].queue incomingPacketLengths:histogram:rangemax 1
scalar BulkTransfer.router.ppp[0].queue incomingPacketLengths:histogram:underflows 0
scalar BulkTransfer.router.ppp[0].queue incomingPacketLengths:histogram:overflows 0
scalar BulkTransfer.router.ppp[1].queue queueingTime:histogram:count 9507
scalar BulkTransfer.router.ppp[1].queue queueingTime:histogram:sumweights 9507
scalar BulkTransfer.router.ppp[1].queue queueingTime:histogram:mean 0.00065858167665929
scalar BulkTransfer.router.ppp[1].queue queueingTime:histogram:stddev 0.0014043609130466
scalar BulkTransfer.router.ppp[1].queue queueingTime:histogram:min 0
scalar BulkTransfer.router.ppp[1].queue queueingTime:histogram:max 0.004288
scalar BulkTransfer.router.ppp[1].queue queueingTime:histogram:numbins 54
scalar BulkTransfer.router.ppp[1].queue queueingTime:histogram:rangemin 0
scalar BulkTransfer.router.ppp[1].queue queueingTime:histogram:rangemax 0.0054
scalar BulkTransfer.router.ppp[1].queue queueingTime:histogram:underflows 0
scalar BulkTransfer.router.ppp[1].queue queueingTime:histogram:overflows 0
scalar BulkTransfer.router.ppp[1].queue outgoingPacketLengths:histogram:count 9507
scalar BulkTransfer.router.ppp[1].queue outgoingPacketLengths:histogram:sumweights 9507
scalar BulkTransfer.router.ppp[1].queue outgoingPacketLengths:histogram:mean 2500.6416324813
scalar BulkTransfer.router.ppp[1].queue outgoingPacketLengths:histogram:stddev 2082.0275663608
scalar BulkTransfer.router.ppp[1].queue outgoingPacketLengths:histogram:min 320
scalar BulkTransfer.router.ppp[1].queue outgoingPacketLengths:histogram:max 4608
scalar BulkTransfer.router.ppp[1].queue outgoingPacketLengths:histogram:numbins 57
scalar BulkTransfer.router.ppp[1].queue outgoingPacketLengths:histogram:rangemin 0
scalar BulkTransfer.router.ppp[1].queue outgoingPacketLengths:histogram:rangemax 5700
scalar BulkTransfer.router.ppp[1].queue outgoingPacketLengths:histogram:underflows 0
scalar BulkTransfer.router.ppp[1].queue outgoingPacketLengths:histogram:overflows 0
scalar BulkTransfer.router.ppp[1].queue flowQueueingTime:histogram:count 0
scalar BulkTransfer.router.ppp[1].queue flowQueueingTime:histogram:sumweights 0
scalar BulkTransfer.router.ppp[1].queue flowQueueingTime:histogram:mean -nan
scalar BulkTransfer.router.ppp[1].queue flowQueueingTime:histogram:stddev nan
scalar BulkTransfer.router.ppp[1].queue flowQueueingTime:histogram:min nan
scalar BulkTransfer.router.ppp[1].queue flowQueueingTime:histogram:max nan
scalar BulkTransfer.router.ppp[1].queue flowQueueingTime:histogram:numbins 1
scalar BulkTransfer.router.ppp[1].queue flowQueueingTime:histogram:rangemin 0
scalar BulkTransfer.router.ppp[1].queue flowQueueingTime:histogram:rangemax 1
scalar BulkTransfer.router.ppp[1].queue flowQueueingTime:histogram:underflows 0
scalar BulkTransfer.router.ppp[1].queue flowQueueingTime:histogram:overflows 0
scalar BulkTransfer.router.ppp[1].queue incomingPacketLengths:histogram:count 9507
scalar BulkTransfer.router.ppp[1].queue incomingPacketLengths:histogram:sumweights 9507
scalar BulkTransfer.router.ppp[1].queue incomingPacketLengths:histogram:mean 2500.6416324813
scalar BulkTransfer.router.ppp[1].queue incomingPacketLengths:histogram:stddev 2082.0275663608
scalar BulkTransfer.router.ppp[1].queue incomingPacketLengths:histogram:min 320
scalar BulkTransfer.router.ppp[1].queue incomingPacketLengths:histogram:max 4608
scalar BulkTransfer.router.ppp[1].queue incomingPacketLengths:histogram:numbins 57
scalar BulkTransfer.router.ppp[1].queue incomingPacketLengths:histogram:rangemin 0
scalar BulkTransfer.router.ppp[1].queue incomingPacketLengths:histogram:rangemax 5700
scalar BulkTransfer.router.ppp[1].queue incomingPacketLengths:histogram:underflows 0
scalar BulkTransfer.router.ppp[1].queue incomingPacketLengths:histogram:overflows 0
scalar BulkTransfer.router.ppp[2].queue queueingTime:histogram:count 9240
scalar BulkTransfer.router.ppp[2].queue queueingTime:histogram:sumweights 9240
scalar BulkTransfer.router.ppp[2].queue queueingTime:histogram:mean 0.00067876796536795
scalar BulkTransfer.router.ppp[2].queue queueingTime:histogram:stddev 0.001420936662434
scalar BulkTransfer.router.ppp[2].queue queueingTime:histogram:min 0
scalar BulkTransfer.router.ppp[2].queue queueingTime:histogram:max 0.004288
scalar BulkTransfer.router.ppp[2].queue queueingTime:histogram:numbins 54
scalar BulkTransfer.router.ppp[2].queue queueingTime:histogram:rangemin 0
scalar BulkTransfer.router.ppp[2].queue queueingTime:histogram:rangemax 0.0054
scalar BulkTransfer.router.ppp[2].queue queueingTime:histogram:underflows 0
scalar BulkTransfer.router.ppp[2].queue queueingTime:histogram:overflows 0
scalar BulkTransfer.router.ppp[2].queue outgoingPacketLengths:histogram:count 9240
scalar BulkTransfer.router.ppp[2].queue outgoingPacketLengths:histogram:sumweights 9240
scalar BulkTransfer.router.ppp[2].queue outgoingPacketLengths:histogram:mean 2556.8935064935
scalar BulkTransfer.router.ppp[2].queue outgoingPacketLengths:histogram:stddev 2078.9063652885
scalar BulkTransfer.router.ppp[2].queue outgoingPacketLengths:histogram:min 320
scalar BulkTransfer.router.ppp[2].queue outgoingPacketLengths:histogram:max 4608
scalar BulkTransfer.router.ppp[2].queue outgoingPacketLengths:histogram:numbins 57
scalar BulkTransfer.router.ppp[2].queue outgoingPacketLengths:histogram:rangemin 0
scalar BulkTransfer.router.ppp[2].queue outgoingPacketLengths:histogram:rangemax 5700
scalar BulkTransfer.router.ppp[2].queue outgoingPacketLengths:histogram:underflows 0
scalar BulkTransfer.router.ppp[2].queue outgoingPacketLengths:histogram:overflows 0
scalar BulkTransfer.router.ppp[2].queue flowQueueingTime:histogram:count 0
scalar BulkTransfer.router.ppp[2].queue flowQueueingTime:histogram:sumweights 0
scalar BulkTransfer.router.ppp[2].queue flowQueueingTime:histogram:mean -nan
scalar BulkTransfer.router.ppp[2].queue flowQueueingTime:histogram:stddev nan
scalar BulkTransfer.router.ppp[2].queue flowQueueingTime:histogram:min nan
scalar BulkTransfer.router.ppp[2].queue flowQueueingTime:histogram:max nan
scalar BulkTransfer.router.ppp[2].queue flowQueueingTime:histogram:numbins 1
scalar BulkTransfer.router.ppp[2].queue flowQueueingTime:histogram:rangemin 0
scalar BulkTransfer.router.ppp[2].queue flowQueueingTime:histogram:rangemax 1
scalar BulkTransfer.router.ppp[2].queue flowQueueingTime:histogram:underflows 0
scalar BulkTransfer.router.ppp[2].queue flowQueueingTime:histogram:overflows 0
scalar BulkTransfer.router.ppp[2].queue incomingPacketLengths:histogram:count 9242
scalar BulkTransfer.router.ppp[2].queue incomingPacketLengths:histogram:sumweights 9242
scalar BulkTransfer.router.ppp[2].queue incomingPacketLengths:histogram:mean 2556.4094351872
scalar BulkTransfer.router.ppp[2].queue incomingPacketLengths:histogram:stddev 2078.9418005136
scalar BulkTransfer.router.ppp[2].queue incomingPacketLengths:histogram:min 320
scalar BulkTransfer.router.ppp[2].queue incomingPacketLengths:histogram:max 4608
[...]
scalar BulkTransfer.client3.tcp.conn-16 sndAck:vector:sumweights 9213
scalar BulkTransfer.client3.tcp.conn-16 sndAck:vector:mean 1311957.1547813
scalar BulkTransfer.client3.tcp.conn-16 sndAck:vector:stddev 751701.32558278
scalar BulkTransfer.client3.tcp.conn-16 sndAck:vector:min 6511
scalar BulkTransfer.client3.tcp.conn-16 sndAck:vector:max 2589583
scalar BulkTransfer.client3.tcp.conn-16 sndAck:vector:starttime 1.0020404
scalar BulkTransfer.client3.tcp.conn-16 sndAck:vector:endtime 49.9825128
scalar BulkTransfer.client3.tcp.conn-16 rcvWnd:vector:count 0
scalar BulkTransfer.client3.tcp.conn-16 rcvWnd:vector:sum 0
scalar BulkTransfer.client3.tcp.conn-16 rcvWnd:vector:sumweights 0
scalar BulkTransfer.client3.tcp.conn-16 rcvWnd:vector:mean -nan
scalar BulkTransfer.client3.tcp.conn-16 rcvWnd:vector:stddev nan
scalar BulkTransfer.client3.tcp.conn-16 rcvWnd:vector:min inf
scalar BulkTransfer.client3.tcp.conn-16 rcvWnd:vector:max -inf
scalar BulkTransfer.client3.tcp.conn-16 rcvWnd:vector:starttime nan
scalar BulkTransfer.client3.tcp.conn-16 rcvWnd:vector:endtime nan
scalar BulkTransfer.client3.tcp.conn-16 rcvSeq:vector:count 0
scalar BulkTransfer.client3.tcp.conn-16 rcvSeq:vector:sum 0
scalar BulkTransfer.client3.tcp.conn-16 rcvSeq:vector:sumweights 0
scalar BulkTransfer.client3.tcp.conn-16 rcvSeq:vector:mean -nan
scalar BulkTransfer.client3.tcp.conn-16 rcvSeq:vector:stddev nan
scalar BulkTransfer.client3.tcp.conn-16 rcvSeq:vector:min inf
scalar BulkTransfer.client3.tcp.conn-16 rcvSeq:vector:max -inf
scalar BulkTransfer.client3.tcp.conn-16 rcvSeq:vector:starttime nan
scalar BulkTransfer.client3.tcp.conn-16 rcvSeq:vector:endtime nan
scalar BulkTransfer.client3.tcp.conn-16 rcvAck:vector:count 0
scalar BulkTransfer.client3.tcp.conn-16 rcvAck:vector:sum 0
scalar BulkTransfer.client3.tcp.conn-16 rcvAck:vector:sumweights 0
scalar BulkTransfer.client3.tcp.conn-16 rcvAck:vector:mean -nan
scalar BulkTransfer.client3.tcp.conn-16 rcvAck:vector:stddev nan
scalar BulkTransfer.client3.tcp.conn-16 rcvAck:vector:min inf
scalar BulkTransfer.client3.tcp.conn-16 rcvAck:vector:max -inf
scalar BulkTransfer.client3.tcp.conn-16 rcvAck:vector:starttime nan
scalar BulkTransfer.client3.tcp.conn-16 rcvAck:vector:endtime nan
scalar BulkTransfer.server.tcp.conn-17 sndWnd:vector:count 18962
scalar BulkTransfer.server.tcp.conn-17 sndWnd:vector:sum 40309152
scalar BulkTransfer.server.tcp.conn-17 sndWnd:vector:sumweights 18962
scalar BulkTransfer.server.tcp.conn-17 sndWnd:vector:mean 2125.7858875646
scalar BulkTransfer.server.tcp.conn-17 sndWnd:vector:stddev 77.033848007949
scalar BulkTransfer.server.tcp.conn-17 sndWnd:vector:min 1800
scalar BulkTransfer.server.tcp.conn-17 sndWnd:vector:max 2144
scalar BulkTransfer.server.tcp.conn-17 sndWnd:vector:starttime 1.5046641
scalar BulkTransfer.server.tcp.conn-17 sndWnd:vector:endtime 49.9979761
scalar BulkTransfer.server.tcp.conn-17 sndNxt:vector:count 18962
scalar BulkTransfer.server.tcp.conn-17 sndNxt:vector:sum 49163178662
scalar BulkTransfer.server.tcp.conn-17 sndNxt:vector:sumweights 18962
scalar BulkTransfer.server.tcp.conn-17 sndNxt:vector:mean 2592721.1613754
scalar BulkTransfer.server.tcp.conn-17 sndNxt:vector:stddev 1492107.7241783
scalar BulkTransfer.server.tcp.conn-17 sndNxt:vector:min 6511
scalar BulkTransfer.server.tcp.conn-17 sndNxt:vector:max 5177055
scalar BulkTransfer.server.tcp.conn-17 sndNxt:vector:starttime 1.5046641
scalar BulkTransfer.server.tcp.conn-17 sndNxt:vector:endtime 49.9979761
scalar BulkTransfer.server.tcp.conn-17 sndAck:vector:count 18962
scalar BulkTransfer.server.tcp.conn-17 sndAck:vector:sum 49177649236
scalar BulkTransfer.server.tcp.conn-17 sndAck:vector:sumweights 18962
scalar BulkTransfer.server.tcp.conn-17 sndAck:vector:mean 2593484.2968041
scalar BulkTransfer.server.tcp.conn-17 sndAck:vector:stddev 1492018.8947475
scalar BulkTransfer.server.tcp.conn-17 sndAck:vector:min 7046
scalar BulkTransfer.server.tcp.conn-17 sndAck:vector:max 5177590
scalar BulkTransfer.server.tcp.conn-17 sndAck:vector:starttime 1.5046641
scalar BulkTransfer.server.tcp.conn-17 sndAck:vector:endtime 49.9979761
scalar BulkTransfer.server.tcp.conn-17 rcvWnd:vector:count 0
scalar BulkTransfer.server.tcp.conn-17 rcvWnd:vector:sum 0
scalar BulkTransfer.server.tcp.conn-17 rcvWnd:vector:sumweights 0
scalar BulkTransfer.server.tcp.conn-17 rcvWnd:vector:mean -nan
scalar BulkTransfer.server.tcp.conn-17 rcvWnd:vector:stddev nan
scalar BulkTransfer.server.tcp.conn-17 rcvWnd:vector:min inf
scalar BulkTransfer.server.tcp.conn-17 rcvWnd:vector:max -inf
scalar BulkTransfer.server.tcp.conn-17 rcvWnd:vector:starttime nan
scalar BulkTransfer.server.tcp.conn-17 rcvWnd:vector:endtime nan
scalar BulkTransfer.server.tcp.conn-17 rcvSeq:vector:count 0
scalar BulkTransfer.server.tcp.conn-17 rcvSeq:vector:sum 0
scalar BulkTransfer.server.tcp.conn-17 rcvSeq:vector:sumweights 0
scalar BulkTransfer.server.tcp.conn-17 rcvSeq:vector:mean -nan
scalar BulkTransfer.server.tcp.conn-17 rcvSeq:vector:stddev nan
scalar BulkTransfer.server.tcp.conn-17 rcvSeq:vector:min inf
scalar BulkTransfer.server.tcp.conn-17 rcvSeq:vector:max -inf
scalar BulkTransfer.server.tcp.conn-17 rcvSeq:vector:starttime nan
scalar BulkTransfer.server.tcp.conn-17 rcvSeq:vector:endtime nan
scalar BulkTransfer.server.tcp.conn-17 rcvAck:vector:count 0
scalar BulkTransfer.server.tcp.conn-17 rcvAck:vector:sum 0
scalar BulkTransfer.server.tcp.conn-17 rcvAck:vector:sumweights 0
scalar BulkTransfer.server.tcp.conn-17 rcvAck:vector:mean -nan
scalar BulkTransfer.server.tcp.conn-17 rcvAck:vector:stddev nan
scalar BulkTransfer.server.tcp.conn-17 rcvAck:vector:min inf
scalar BulkTransfer.server.tcp.conn-17 rcvAck:vector:max -inf
scalar BulkTransfer.server.tcp.conn-17 rcvAck:vector:starttime nan
scalar BulkTransfer.server.tcp.conn-17 rcvAck:vector:endtime nan
scalar BulkTransfer.server.app[0].thread_17 packetReceived:vector(packetBytes):count 10067
scalar BulkTransfer.server.app[0].thread_17 packetReceived:vector(packetBytes):sum 5171080
scalar BulkTransfer.server.app[0].thread_17 packetReceived:vector(packetBytes):sumweights 10067
scalar BulkTransfer.server.app[0].thread_17 packetReceived:vector(packetBytes):mean 513.66643488626
scalar BulkTransfer.server.app[0].thread_17 packetReceived:vector(packetBytes):stddev 61.559993601964
scalar BulkTransfer.server.app[0].thread_17 packetReceived:vector(packetBytes):min 344
scalar BulkTransfer.server.app[0].thread_17 packetReceived:vector(packetBytes):max 536
scalar BulkTransfer.server.app[0].thread_17 packetReceived:vector(packetBytes):starttime 1.5046641
scalar BulkTransfer.server.app[0].thread_17 packetReceived:vector(packetBytes):endtime 49.9979761
scalar BulkTransfer.server.app[0].thread_17 packetSent:vector(packetBytes):count 10067
scalar BulkTransfer.server.app[0].thread_17 packetSent:vector(packetBytes):sum 10342160
scalar BulkTransfer.server.app[0].thread_17 packetSent:vector(packetBytes):sumweights 10067
scalar BulkTransfer.server.app[0].thread_17 packetSent:vector(packetBytes):mean 1027.3328697725
scalar BulkTransfer.server.app[0].thread_17 packetSent:vector(packetBytes):stddev 123.11998720393
scalar BulkTransfer.server.app[0].thread_17 packetSent:vector(packetBytes):min 688
scalar BulkTransfer.server.app[0].thread_17 packetSent:vector(packetBytes):max 1072
scalar BulkTransfer.server.app[0].thread_17 packetSent:vector(packetBytes):starttime 1.5046641
scalar BulkTransfer.server.app[0].thread_17 packetSent:vector(packetBytes):endtime 49.9979761
scalar BulkTransfer.server.app[0].thread_17 endToEndDelay:vector:count 0
scalar BulkTransfer.server.app[0].thread_17 endToEndDelay:vector:sum 0
scalar BulkTransfer.server.app[0].thread_17 endToEndDelay:vector:sumweights 0
scalar BulkTransfer.server.app[0].thread_17 endToEndDelay:vector:mean -nan
scalar BulkTransfer.server.app[0].thread_17 endToEndDelay:vector:stddev nan
scalar BulkTransfer.server.app[0].thread_17 endToEndDelay:vector:min inf
scalar BulkTransfer.server.app[0].thread_17 endToEndDelay:vector:max -inf
scalar BulkTransfer.server.app[0].thread_17 endToEndDelay:vector:starttime nan
scalar BulkTransfer.server.app[0].thread_17 endToEndDelay:vector:endtime nan
scalar BulkTransfer.server.tcp.conn-18 sndWnd:vector:count 9507
scalar BulkTransfer.server.tcp.conn-18 sndWnd:vector:sum 20226144
scalar BulkTransfer.server.tcp.conn-18 sndWnd:vector:sumweights 9507
scalar BulkTransfer.server.tcp.conn-18 sndWnd:vector:mean 2127.5001577785
scalar BulkTransfer.server.tcp.conn-18 sndWnd:vector:stddev 73.513736012193
scalar BulkTransfer.server.tcp.conn-18 sndWnd:vector:min 1800
scalar BulkTransfer.server.tcp.conn-18 sndWnd:vector:max 2144
scalar BulkTransfer.server.tcp.conn-18 sndWnd:vector:starttime 1.5093282
scalar BulkTransfer.server.tcp.conn-18 sndWnd:vector:endtime 49.9855206
scalar BulkTransfer.server.tcp.conn-18 sndNxt:vector:count 9507
scalar BulkTransfer.server.tcp.conn-18 sndNxt:vector:sum 12388482021
scalar BulkTransfer.server.tcp.conn-18 sndNxt:vector:sumweights 9507
scalar BulkTransfer.server.tcp.conn-18 sndNxt:vector:mean 1303090.5670559
scalar BulkTransfer.server.tcp.conn-18 sndNxt:vector:stddev 747508.55627844
scalar BulkTransfer.server.tcp.conn-18 sndNxt:vector:min 6511
scalar BulkTransfer.server.tcp.conn-18 sndNxt:vector:max 2597927
scalar BulkTransfer.server.tcp.conn-18 sndNxt:vector:starttime 1.5093282
scalar BulkTransfer.server.tcp.conn-18 sndNxt:vector:endtime 49.9855206
scalar BulkTransfer.server.tcp.conn-18 sndAck:vector:count 9507
scalar BulkTransfer.server.tcp.conn-18 sndAck:vector:sum 12396726666
scalar BulkTransfer.server.tcp.conn-18 sndAck:vector:sumweights 9507
scalar BulkTransfer.server.tcp.conn-18 sndAck:vector:mean 1303957.7854213
scalar BulkTransfer.server.tcp.conn-18 sndAck:vector:stddev 747564.75191103
scalar BulkTransfer.server.tcp.conn-18 sndAck:vector:min 7046
scalar BulkTransfer.server.tcp.conn-18 sndAck:vector:max 2598462
scalar BulkTransfer.server.tcp.conn-18 sndAck:vector:starttime 1.5093282
scalar BulkTransfer.server.tcp.conn-18 sndAck:vector:endtime 49.9855206
scalar BulkTransfer.server.tcp.conn-18 rcvWnd:vector:count 0
scalar BulkTransfer.server.tcp.conn-18 rcvWnd:vector:sum 0
scalar BulkTransfer.server.tcp.conn-18 rcvWnd:vector:sumweights 0
scalar BulkTransfer.server.tcp.conn-18 rcvWnd:vector:mean -nan
scalar BulkTransfer.server.tcp.conn-18 rcvWnd:vector:stddev nan
scalar BulkTransfer.server.tcp.conn-18 rcvWnd:vector:min inf
scalar BulkTransfer.server.tcp.conn-18 rcvWnd:vector:max -inf
scalar BulkTransfer.server.tcp.conn-18 rcvWnd:vector:starttime nan
scalar BulkTransfer.server.tcp.conn-18 rcvWnd:vector:endtime nan
scalar BulkTransfer.server.tcp.conn-18 rcvSeq:vector:count 0
scalar BulkTransfer.server.tcp.conn-18 rcvSeq:vector:sum 0
scalar BulkTransfer.server.tcp.conn-18 rcvSeq:vector:sumweights 0
scalar BulkTransfer.server.tcp.conn-18 rcvSeq:vector:mean -nan
scalar BulkTransfer.server.tcp.conn-18 rcvSeq:vector:stddev nan
scalar BulkTransfer.server.tcp.conn-18 rcvSeq:vector:min inf
scalar BulkTransfer.server.tcp.conn-18 rcvSeq:vector:max -inf
scalar BulkTransfer.server.tcp.conn-18 rcvSeq:vector:starttime nan
scalar BulkTransfer.server.tcp.conn-18 rcvSeq:vector:endtime nan
scalar BulkTransfer.server.tcp.conn-18 rcvAck:vector:count 0
scalar BulkTransfer.server.tcp.conn-18 rcvAck:vector:sum 0
scalar BulkTransfer.server.tcp.conn-18 rcvAck:vector:sumweights 0
scalar BulkTransfer.server.tcp.conn-18 rcvAck:vector:mean -nan
scalar BulkTransfer.server.tcp.conn-18 rcvAck:vector:stddev nan
scalar BulkTransfer.server.tcp.conn-18 rcvAck:vector:min inf
scalar BulkTransfer.server.tcp.conn-18 rcvAck:vector:max -inf
scalar BulkTransfer.server.tcp.conn-18 rcvAck:vector:starttime nan
scalar BulkTransfer.server.tcp.conn-18 rcvAck:vector:endtime nan
scalar BulkTransfer.server.app[0].thread_18 packetReceived:vector(packetBytes):count 5046
scalar BulkTransfer.server.app[0].thread_18 packetReceived:vector(packetBytes):sum 2591952
scalar BulkTransfer.server.app[0].thread_18 packetReceived:vector(packetBytes):sumweights 5046
scalar BulkTransfer.server.app[0].thread_18 packetReceived:vector(packetBytes):mean 513.66468489893
scalar BulkTransfer.server.app[0].thread_18 packetReceived:vector(packetBytes):stddev 61.565130888337
scalar BulkTransfer.server.app[0].thread_18 packetReceived:vector(packetBytes):min 344
scalar BulkTransfer.server.app[0].thread_18 packetReceived:vector(packetBytes):max 536
scalar BulkTransfer.server.app[0].thread_18 packetReceived:vector(packetBytes):starttime 1.5093282
scalar BulkTransfer.server.app[0].thread_18 packetReceived:vector(packetBytes):endtime 49.9754406
scalar BulkTransfer.server.app[0].thread_18 packetSent:vector(packetBytes):count 5046
scalar BulkTransfer.server.app[0].thread_18 packetSent:vector(packetBytes):sum 5183904
scalar BulkTransfer.server.app[0].thread_18 packetSent:vector(packetBytes):sumweights 5046
scalar BulkTransfer.server.app[0].thread_18 packetSent:vector(packetBytes):mean 1027.3293697979
scalar BulkTransfer.server.app[0].thread_18 packetSent:vector(packetBytes):stddev 123.13026177667
scalar BulkTransfer.server.app[0].thread_18 packetSent:vector(packetBytes):min 688
scalar BulkTransfer.server.app[0].thread_18 packetSent:vector(packetBytes):max 1072
scalar BulkTransfer.server.app[0].thread_18 packetSent:vector(packetBytes):starttime 1.5093282
scalar BulkTransfer.server.app[0].thread_18 packetSent:vector(packetBytes):endtime 49.9754406
scalar BulkTransfer.server.app[0].thread_18 endToEndDelay:vector:count 0
scalar BulkTransfer.server.app[0].thread_18 endToEndDelay:vector:sum 0
scalar BulkTransfer.server.app[0].thread_18 endToEndDelay:vector:sumweights 0
scalar BulkTransfer.server.app[0].thread_18 endToEndDelay:vector:mean -nan
scalar BulkTransfer.server.app[0].thread_18 endToEndDelay:vector:stddev nan
scalar BulkTransfer.server.app[0].thread_18 endToEndDelay:vector:min inf
scalar BulkTransfer.server.app[0].thread_18 endToEndDelay:vector:max -inf
scalar BulkTransfer.server.app[0].thread_18 endToEndDelay:vector:starttime nan
scalar BulkTransfer.server.app[0].thread_18 endToEndDelay:vector:endtime nan
scalar BulkTransfer.server.tcp.conn-19 sndWnd:vector:count 9247
scalar BulkTransfer.server.tcp.conn-19 sndWnd:vector:sum 19709984
scalar BulkTransfer.server.tcp.conn-19 sndWnd:vector:sumweights 9247
scalar BulkTransfer.server.tcp.conn-19 sndWnd:vector:mean 2131.5003785011
scalar BulkTransfer.server.tcp.conn-19 sndWnd:vector:stddev 64.37450902112
scalar BulkTransfer.server.tcp.conn-19 sndWnd:vector:min 1800
scalar BulkTransfer.server.tcp.conn-19 sndWnd:vector:max 2144
scalar BulkTransfer.server.tcp.conn-19 sndWnd:vector:starttime 1.5139922
scalar BulkTransfer.server.tcp.conn-19 sndWnd:vector:endtime 49.9956006
scalar BulkTransfer.server.tcp.conn-19 sndNxt:vector:count 9247
scalar BulkTransfer.server.tcp.conn-19 sndNxt:vector:sum 12129905401
scalar BulkTransfer.server.tcp.conn-19 sndNxt:vector:sumweights 9247
scalar BulkTransfer.server.tcp.conn-19 sndNxt:vector:mean 1311766.5622364
scalar BulkTransfer.server.tcp.conn-19 sndNxt:vector:stddev 751190.78925049
scalar BulkTransfer.server.tcp.conn-19 sndNxt:vector:min 6511
scalar BulkTransfer.server.tcp.conn-19 sndNxt:vector:max 2590999
scalar BulkTransfer.server.tcp.conn-19 sndNxt:vector:starttime 1.5139922
scalar BulkTransfer.server.tcp.conn-19 sndNxt:vector:endtime 49.9956006
scalar BulkTransfer.server.tcp.conn-19 sndAck:vector:count 9247
scalar BulkTransfer.server.tcp.conn-19 sndAck:vector:sum 11294977738
scalar BulkTransfer.server.tcp.conn-19 sndAck:vector:sumweights 9247
scalar BulkTransfer.server.tcp.conn-19 sndAck:vector:mean 1221474.8283768
scalar BulkTransfer.server.tcp.conn-19 sndAck:vector:stddev 702200.21940603
scalar BulkTransfer.server.tcp.conn-19 sndAck:vector:min 7046
scalar BulkTransfer.server.tcp.conn-19 sndAck:vector:max 2459886
scalar BulkTransfer.server.tcp.conn-19 sndAck:vector:starttime 1.5139922
scalar BulkTransfer.server.tcp.conn-19 sndAck:vector:endtime 49.9956006
scalar BulkTransfer.server.tcp.conn-19 rcvWnd:vector:count 0
scalar BulkTransfer.server.tcp.conn-19 rcvWnd:vector:sum 0
scalar BulkTransfer.server.tcp.conn-19 rcvWnd:vector:sumweights 0
scalar BulkTransfer.server.tcp.conn-19 rcvWnd:vector:mean -nan
scalar BulkTransfer.server.tcp.conn-19 rcvWnd:vector:stddev nan
scalar BulkTransfer.server.tcp.conn-19 rcvWnd:vector:min inf
scalar BulkTransfer.server.tcp.conn-19 rcvWnd:vector:max -inf
scalar BulkTransfer.server.tcp.conn-19 rcvWnd:vector:starttime nan
scalar BulkTransfer.server.tcp.conn-19 rcvWnd:vector:endtime nan
scalar BulkTransfer.server.tcp.conn-19 rcvSeq:vector:count 0
scalar BulkTransfer.server.tcp.conn-19 rcvSeq:vector:sum 0
scalar BulkTransfer.server.tcp.conn-19 rcvSeq:vector:sumweights 0
scalar BulkTransfer.server.tcp.conn-19 rcvSeq:vector:mean -nan
scalar BulkTransfer.server.tcp.conn-19 rcvSeq:vector:stddev nan
scalar BulkTransfer.server.tcp.conn-19 rcvSeq:vector:min inf
scalar BulkTransfer.server.tcp.conn-19 rcvSeq:vector:max -inf
scalar BulkTransfer.server.tcp.conn-19 rcvSeq:vector:starttime nan
scalar BulkTransfer.server.tcp.conn-19 rcvSeq:vector:endtime nan
scalar BulkTransfer.server.tcp.conn-19 rcvAck:vector:count 0
scalar BulkTransfer.server.tcp.conn-19 rcvAck:vector:sum 0
scalar BulkTransfer.server.tcp.conn-19 rcvAck:vector:sumweights 0
scalar BulkTransfer.server.tcp.conn-19 rcvAck:vector:mean -nan
scalar BulkTransfer.server.tcp.conn-19 rcvAck:vector:stddev nan
scalar BulkTransfer.server.tcp.conn-19 rcvAck:vector:min inf
scalar BulkTransfer.server.tcp.conn-19 rcvAck:vector:max -inf
scalar BulkTransfer.server.tcp.conn-19 rcvAck:vector:starttime nan
scalar BulkTransfer.server.tcp.conn-19 rcvAck:vector:endtime nan
scalar BulkTransfer.server.app[0].thread_19 packetReceived:vector(packetBytes):count 4773
scalar BulkTransfer.server.app[0].thread_19 packetReceived:vector(packetBytes):sum 2453376
scalar BulkTransfer.server.app[0].thread_19 packetReceived:vector(packetBytes):sumweights 4773
scalar BulkTransfer.server.app[0].thread_19 packetReceived:vector(packetBytes):mean 514.01131363922
scalar BulkTransfer.server.app[0].thread_19 packetReceived:vector(packetBytes):stddev 64.932674187099
scalar BulkTransfer.server.app[0].thread_19 packetReceived:vector(packetBytes):min 344
scalar BulkTransfer.server.app[0].thread_19 packetReceived:vector(packetBytes):max 1952
scalar BulkTransfer.server.app[0].thread_19 packetReceived:vector(packetBytes):starttime 1.5139922
scalar BulkTransfer.server.app[0].thread_19 packetReceived:vector(packetBytes):endtime 49.9948486
scalar BulkTransfer.server.app[0].thread_19 packetSent:vector(packetBytes):count 4773
scalar BulkTransfer.server.app[0].thread_19 packetSent:vector(packetBytes):sum 4906752
scalar BulkTransfer.server.app[0].thread_19 packetSent:vector(packetBytes):sumweights 4773
scalar BulkTransfer.server.app[0].thread_19 packetSent:vector(packetBytes):mean 1028.0226272784
scalar BulkTransfer.server.app[0].thread_19 packetSent:vector(packetBytes):stddev 129.8653483742
scalar BulkTransfer.server.app[0].thread_19 packetSent:vector(packetBytes):min 688
scalar BulkTransfer.server.app[0].thread_19 packetSent:vector(packetBytes):max 3904
scalar BulkTransfer.server.app[0].thread_19 packetSent:vector(packetBytes):starttime 1.5139922
scalar BulkTransfer.server.app[0].thread_19 packetSent:vector(packetBytes):endtime 49.9948486
scalar BulkTransfer.server.app[0].thread_19 endToEndDelay:vector:count 0
scalar BulkTransfer.server.app[0].thread_19 endToEndDelay:vector:sum 0
scalar BulkTransfer.server.app[0].thread_19 endToEndDelay:vector:sumweights 0
scalar BulkTransfer.server.app[0].thread_19 endToEndDelay:vector:mean -nan
scalar BulkTransfer.server.app[0].thread_19 endToEndDelay:vector:stddev nan
scalar BulkTransfer.server.app[0].thread_19 endToEndDelay:vector:min inf
scalar BulkTransfer.server.app[0].thread_19 endToEndDelay:vector:max -inf
scalar BulkTransfer.server.app[0].thread_19 endToEndDelay:vector:starttime nan
scalar BulkTransfer.server.app[0].thread_19 endToEndDelay:vector:endtime nan

