version 3
run MoBANMobility2-0-20230411-10:32:23-42750
attr configname MoBANMobility2
attr datetime 20230411-10:32:23
attr datetimef 20230411-103223
attr experiment MoBANMobility2
attr inifile omnetpp.ini
attr iterationvars ""
attr iterationvarsd ""
attr iterationvarsf ""
attr measurement ""
attr network MoBANNetwork
attr processid 42750
attr repetition 0
attr replication #0
attr resultdir results
attr runnumber 0
attr seedset 0
config **.param-recording false
config image-path /home/levy/workspace/inet/images
config sim-time-limit 1000s
config extends MoBANNetwork
config **.numNodes 24
config **.numMoBAN 2
config **.coordinator[*].postureSpecFile "xmldoc(\"postures1.xml\")"
config **.coordinator[*].configFile "xmldoc(\"configMoBAN2.xml\")"
config **.coordinator[*].useMobilityPattern false
config **.coordinator[*].mobilityPatternFile "\"\""
config **.node[*].mobility.typename MoBanLocal
config **.node[0..11].mobility.coordinatorIndex 0
config **.node[12..23].mobility.coordinatorIndex 1
config network MoBANNetwork
config extends Update
config **.constraintAreaMinX 0m
config **.constraintAreaMinY 0m
config **.constraintAreaMinZ 0m
config **.constraintAreaMaxX 1000m
config **.constraintAreaMaxY 1000m
config **.constraintAreaMaxZ 1000m
config **.updateInterval 0.1s
config sim-time-limit 1000s


