version 3
run BonnMotionMobility2-0-20250108-11:27:38-11394
attr configname BonnMotionMobility2
attr datetime 20250108-11:27:38
attr datetimef 20250108-112738
attr experiment BonnMotionMobility2
attr inifile omnetpp.ini
attr iterationvars ""
attr iterationvarsd ""
attr iterationvarsf ""
attr measurement ""
attr network MobileNetwork
attr processid 11394
attr repetition 0
attr replication #0
attr resultdir results
attr runnumber 0
attr seedset 0
config **.param-recording false
config image-path /home/levy/workspace/inet/images
config output-scalar-file results/omnetpp.ini-BonnMotionMobility2-#0.sca
config output-vector-file results/omnetpp.ini-BonnMotionMobility2-#0.vec
config sim-time-limit 1000s
config extends "MobileNetwork, Area, Update"
config description "100 hosts"
config *.numHosts 100
config **.host[*].mobility.typename BonnMotionMobility
config **.host[*].mobility.traceFile "\"bonnmotion_scenario.movements\""
config **.host[*].mobility.nodeId -1
config network MobileNetwork
config *.numHosts 2
config **.constraintAreaMinX 0m
config **.constraintAreaMinY 0m
config **.constraintAreaMinZ 0m
config **.constraintAreaMaxX 600m
config **.constraintAreaMaxY 600m
config **.constraintAreaMaxZ 0m
config **.updateInterval 0.1s
config sim-time-limit 1000s

scalar MobileNetwork.host[0] coordX:vector:count 9009
scalar MobileNetwork.host[0] coordX:vector:sum 1067966.8764952
scalar MobileNetwork.host[0] coordX:vector:sumweights 9009
scalar MobileNetwork.host[0] coordX:vector:mean 118.54444183541
scalar MobileNetwork.host[0] coordX:vector:stddev 42.94129180919
scalar MobileNetwork.host[0] coordX:vector:min 44.981857596201
scalar MobileNetwork.host[0] coordX:vector:max 183.41598931323
scalar MobileNetwork.host[0] coordX:vector:starttime 0
scalar MobileNetwork.host[0] coordX:vector:endtime 900
scalar MobileNetwork.host[0] coordY:vector:count 9009
scalar MobileNetwork.host[0] coordY:vector:sum 835382.89578324
scalar MobileNetwork.host[0] coordY:vector:sumweights 9009
scalar MobileNetwork.host[0] coordY:vector:mean 92.727594159534
scalar MobileNetwork.host[0] coordY:vector:stddev 46.468711266804
scalar MobileNetwork.host[0] coordY:vector:min 17.728326387366
scalar MobileNetwork.host[0] coordY:vector:max 182.47081222068
scalar MobileNetwork.host[0] coordY:vector:starttime 0
scalar MobileNetwork.host[0] coordY:vector:endtime 900
scalar MobileNetwork.host[0] coordZ:vector:count 9009
scalar MobileNetwork.host[0] coordZ:vector:sum 0
scalar MobileNetwork.host[0] coordZ:vector:sumweights 9009
scalar MobileNetwork.host[0] coordZ:vector:mean 0
scalar MobileNetwork.host[0] coordZ:vector:stddev 0
scalar MobileNetwork.host[0] coordZ:vector:min 0
scalar MobileNetwork.host[0] coordZ:vector:max 0
scalar MobileNetwork.host[0] coordZ:vector:starttime 0
scalar MobileNetwork.host[0] coordZ:vector:endtime 900
scalar MobileNetwork.host[1] coordX:vector:count 8723
scalar MobileNetwork.host[1] coordX:vector:sum 675810.86191142
scalar MobileNetwork.host[1] coordX:vector:sumweights 8723
scalar MobileNetwork.host[1] coordX:vector:mean 77.474591529453
scalar MobileNetwork.host[1] coordX:vector:stddev 43.793098822956
scalar MobileNetwork.host[1] coordX:vector:min 20.722342613231
scalar MobileNetwork.host[1] coordX:vector:max 164.18716755415
scalar MobileNetwork.host[1] coordX:vector:starttime 0
scalar MobileNetwork.host[1] coordX:vector:endtime 871.5999197978
scalar MobileNetwork.host[1] coordY:vector:count 8723
scalar MobileNetwork.host[1] coordY:vector:sum 864719.1313662
scalar MobileNetwork.host[1] coordY:vector:sumweights 8723
scalar MobileNetwork.host[1] coordY:vector:mean 99.130933321816
scalar MobileNetwork.host[1] coordY:vector:stddev 53.223375278019
scalar MobileNetwork.host[1] coordY:vector:min 22.234141175581
scalar MobileNetwork.host[1] coordY:vector:max 193.56102611193
scalar MobileNetwork.host[1] coordY:vector:starttime 0
scalar MobileNetwork.host[1] coordY:vector:endtime 871.5999197978
scalar MobileNetwork.host[1] coordZ:vector:count 8723
scalar MobileNetwork.host[1] coordZ:vector:sum 0
scalar MobileNetwork.host[1] coordZ:vector:sumweights 8723
scalar MobileNetwork.host[1] coordZ:vector:mean 0
scalar MobileNetwork.host[1] coordZ:vector:stddev 0
scalar MobileNetwork.host[1] coordZ:vector:min 0
scalar MobileNetwork.host[1] coordZ:vector:max 0
scalar MobileNetwork.host[1] coordZ:vector:starttime 0
scalar MobileNetwork.host[1] coordZ:vector:endtime 871.5999197978
scalar MobileNetwork.host[2] coordX:vector:count 8558
scalar MobileNetwork.host[2] coordX:vector:sum 821425.49653774
scalar MobileNetwork.host[2] coordX:vector:sumweights 8558
scalar MobileNetwork.host[2] coordX:vector:mean 95.983348508733
scalar MobileNetwork.host[2] coordX:vector:stddev 28.663192948841
scalar MobileNetwork.host[2] coordX:vector:min 44.371513947658
scalar MobileNetwork.host[2] coordX:vector:max 154.52659324056
scalar MobileNetwork.host[2] coordX:vector:starttime 0
scalar MobileNetwork.host[2] coordX:vector:endtime 854.93412449437
scalar MobileNetwork.host[2] coordY:vector:count 8558
scalar MobileNetwork.host[2] coordY:vector:sum 1278132.596186
scalar MobileNetwork.host[2] coordY:vector:sumweights 8558
scalar MobileNetwork.host[2] coordY:vector:mean 149.3494503606
scalar MobileNetwork.host[2] coordY:vector:stddev 32.745387913167
scalar MobileNetwork.host[2] coordY:vector:min 79.042700835243
scalar MobileNetwork.host[2] coordY:vector:max 195.02419968159
scalar MobileNetwork.host[2] coordY:vector:starttime 0
scalar MobileNetwork.host[2] coordY:vector:endtime 854.93412449437
scalar MobileNetwork.host[2] coordZ:vector:count 8558
scalar MobileNetwork.host[2] coordZ:vector:sum 0
scalar MobileNetwork.host[2] coordZ:vector:sumweights 8558
scalar MobileNetwork.host[2] coordZ:vector:mean 0
scalar MobileNetwork.host[2] coordZ:vector:stddev 0
scalar MobileNetwork.host[2] coordZ:vector:min 0
scalar MobileNetwork.host[2] coordZ:vector:max 0
scalar MobileNetwork.host[2] coordZ:vector:starttime 0
scalar MobileNetwork.host[2] coordZ:vector:endtime 854.93412449437
scalar MobileNetwork.host[3] coordX:vector:count 8941
scalar MobileNetwork.host[3] coordX:vector:sum 758877.34690961
scalar MobileNetwork.host[3] coordX:vector:sumweights 8941
scalar MobileNetwork.host[3] coordX:vector:mean 84.876115301377
scalar MobileNetwork.host[3] coordX:vector:stddev 51.125680079252
scalar MobileNetwork.host[3] coordX:vector:min 7.8476193846647
scalar MobileNetwork.host[3] coordX:vector:max 193.56319817256
scalar MobileNetwork.host[3] coordX:vector:starttime 0
scalar MobileNetwork.host[3] coordX:vector:endtime 893.26251881158
scalar MobileNetwork.host[3] coordY:vector:count 8941
scalar MobileNetwork.host[3] coordY:vector:sum 682822.6319022
scalar MobileNetwork.host[3] coordY:vector:sumweights 8941
scalar MobileNetwork.host[3] coordY:vector:mean 76.369827972508
scalar MobileNetwork.host[3] coordY:vector:stddev 34.06199748311
scalar MobileNetwork.host[3] coordY:vector:min 27.772257347268
scalar MobileNetwork.host[3] coordY:vector:max 154.65216553077
scalar MobileNetwork.host[3] coordY:vector:starttime 0
scalar MobileNetwork.host[3] coordY:vector:endtime 893.26251881158
scalar MobileNetwork.host[3] coordZ:vector:count 8941
scalar MobileNetwork.host[3] coordZ:vector:sum 0
scalar MobileNetwork.host[3] coordZ:vector:sumweights 8941
scalar MobileNetwork.host[3] coordZ:vector:mean 0
scalar MobileNetwork.host[3] coordZ:vector:stddev 0
scalar MobileNetwork.host[3] coordZ:vector:min 0
scalar MobileNetwork.host[3] coordZ:vector:max 0
scalar MobileNetwork.host[3] coordZ:vector:starttime 0
scalar MobileNetwork.host[3] coordZ:vector:endtime 893.26251881158
scalar MobileNetwork.host[4] coordX:vector:count 8627
scalar MobileNetwork.host[4] coordX:vector:sum 887942.24637632
scalar MobileNetwork.host[4] coordX:vector:sumweights 8627
scalar MobileNetwork.host[4] coordX:vector:mean 102.92595877783
scalar MobileNetwork.host[4] coordX:vector:stddev 41.950694917149
scalar MobileNetwork.host[4] coordX:vector:min 20.805047105574
scalar MobileNetwork.host[4] coordX:vector:max 165.43574862469
scalar MobileNetwork.host[4] coordX:vector:starttime 0
scalar MobileNetwork.host[4] coordX:vector:endtime 861.94730404348
scalar MobileNetwork.host[4] coordY:vector:count 8627
scalar MobileNetwork.host[4] coordY:vector:sum 895741.05377119
scalar MobileNetwork.host[4] coordY:vector:sumweights 8627
scalar MobileNetwork.host[4] coordY:vector:mean 103.82995870768
scalar MobileNetwork.host[4] coordY:vector:stddev 42.372331171886
scalar MobileNetwork.host[4] coordY:vector:min 24.18465255013
scalar MobileNetwork.host[4] coordY:vector:max 194.1321455516
scalar MobileNetwork.host[4] coordY:vector:starttime 0
scalar MobileNetwork.host[4] coordY:vector:endtime 861.94730404348
scalar MobileNetwork.host[4] coordZ:vector:count 8627
scalar MobileNetwork.host[4] coordZ:vector:sum 0
scalar MobileNetwork.host[4] coordZ:vector:sumweights 8627
scalar MobileNetwork.host[4] coordZ:vector:mean 0
scalar MobileNetwork.host[4] coordZ:vector:stddev 0
scalar MobileNetwork.host[4] coordZ:vector:min 0
scalar MobileNetwork.host[4] coordZ:vector:max 0
scalar MobileNetwork.host[4] coordZ:vector:starttime 0
scalar MobileNetwork.host[4] coordZ:vector:endtime 861.94730404348
scalar MobileNetwork.host[5] coordX:vector:count 9005
scalar MobileNetwork.host[5] coordX:vector:sum 779592.26216654
scalar MobileNetwork.host[5] coordX:vector:sumweights 9005
scalar MobileNetwork.host[5] coordX:vector:mean 86.573266203947
scalar MobileNetwork.host[5] coordX:vector:stddev 45.818824632938
scalar MobileNetwork.host[5] coordX:vector:min 19.591432146546
scalar MobileNetwork.host[5] coordX:vector:max 156.13531355856
scalar MobileNetwork.host[5] coordX:vector:starttime 0
scalar MobileNetwork.host[5] coordX:vector:endtime 900
scalar MobileNetwork.host[5] coordY:vector:count 9005
scalar MobileNetwork.host[5] coordY:vector:sum 879994.89218995
scalar MobileNetwork.host[5] coordY:vector:sumweights 9005
scalar MobileNetwork.host[5] coordY:vector:mean 97.722919732365
scalar MobileNetwork.host[5] coordY:vector:stddev 49.436426336257
scalar MobileNetwork.host[5] coordY:vector:min 11.911523142247
scalar MobileNetwork.host[5] coordY:vector:max 183.2384005587
scalar MobileNetwork.host[5] coordY:vector:starttime 0
scalar MobileNetwork.host[5] coordY:vector:endtime 900
scalar MobileNetwork.host[5] coordZ:vector:count 9005
scalar MobileNetwork.host[5] coordZ:vector:sum 0
scalar MobileNetwork.host[5] coordZ:vector:sumweights 9005
scalar MobileNetwork.host[5] coordZ:vector:mean 0
scalar MobileNetwork.host[5] coordZ:vector:stddev 0
scalar MobileNetwork.host[5] coordZ:vector:min 0
scalar MobileNetwork.host[5] coordZ:vector:max 0
scalar MobileNetwork.host[5] coordZ:vector:starttime 0
scalar MobileNetwork.host[5] coordZ:vector:endtime 900
scalar MobileNetwork.host[6] coordX:vector:count 9011
scalar MobileNetwork.host[6] coordX:vector:sum 737207.59402186
scalar MobileNetwork.host[6] coordX:vector:sumweights 9011
scalar MobileNetwork.host[6] coordX:vector:mean 81.811962492716
scalar MobileNetwork.host[6] coordX:vector:stddev 37.982934982975
scalar MobileNetwork.host[6] coordX:vector:min 23.984766250263
scalar MobileNetwork.host[6] coordX:vector:max 170.18012245477
scalar MobileNetwork.host[6] coordX:vector:starttime 0
scalar MobileNetwork.host[6] coordX:vector:endtime 900
scalar MobileNetwork.host[6] coordY:vector:count 9011
scalar MobileNetwork.host[6] coordY:vector:sum 851409.47248949
scalar MobileNetwork.host[6] coordY:vector:sumweights 9011
scalar MobileNetwork.host[6] coordY:vector:mean 94.485570135333
scalar MobileNetwork.host[6] coordY:vector:stddev 57.068046125262
scalar MobileNetwork.host[6] coordY:vector:min 5.4354096477995
scalar MobileNetwork.host[6] coordY:vector:max 194.94573355997
scalar MobileNetwork.host[6] coordY:vector:starttime 0
scalar MobileNetwork.host[6] coordY:vector:endtime 900
scalar MobileNetwork.host[6] coordZ:vector:count 9011
scalar MobileNetwork.host[6] coordZ:vector:sum 0
scalar MobileNetwork.host[6] coordZ:vector:sumweights 9011
scalar MobileNetwork.host[6] coordZ:vector:mean 0
scalar MobileNetwork.host[6] coordZ:vector:stddev 0
scalar MobileNetwork.host[6] coordZ:vector:min 0
scalar MobileNetwork.host[6] coordZ:vector:max 0
scalar MobileNetwork.host[6] coordZ:vector:starttime 0
scalar MobileNetwork.host[6] coordZ:vector:endtime 900
scalar MobileNetwork.host[7] coordX:vector:count 9010
scalar MobileNetwork.host[7] coordX:vector:sum 797815.55716431
scalar MobileNetwork.host[7] coordX:vector:sumweights 9010
scalar MobileNetwork.host[7] coordX:vector:mean 88.547786588713
scalar MobileNetwork.host[7] coordX:vector:stddev 42.046126222051
scalar MobileNetwork.host[7] coordX:vector:min 14.134672104723
scalar MobileNetwork.host[7] coordX:vector:max 184.61874720447
scalar MobileNetwork.host[7] coordX:vector:starttime 0
scalar MobileNetwork.host[7] coordX:vector:endtime 900
scalar MobileNetwork.host[7] coordY:vector:count 9010
scalar MobileNetwork.host[7] coordY:vector:sum 865387.46063752
scalar MobileNetwork.host[7] coordY:vector:sumweights 9010
scalar MobileNetwork.host[7] coordY:vector:mean 96.047442912044
scalar MobileNetwork.host[7] coordY:vector:stddev 56.431056356759
scalar MobileNetwork.host[7] coordY:vector:min 26.413942402143
scalar MobileNetwork.host[7] coordY:vector:max 198.99006456901
scalar MobileNetwork.host[7] coordY:vector:starttime 0
scalar MobileNetwork.host[7] coordY:vector:endtime 900
scalar MobileNetwork.host[7] coordZ:vector:count 9010
scalar MobileNetwork.host[7] coordZ:vector:sum 0
scalar MobileNetwork.host[7] coordZ:vector:sumweights 9010
scalar MobileNetwork.host[7] coordZ:vector:mean 0
scalar MobileNetwork.host[7] coordZ:vector:stddev 0
scalar MobileNetwork.host[7] coordZ:vector:min 0
scalar MobileNetwork.host[7] coordZ:vector:max 0
scalar MobileNetwork.host[7] coordZ:vector:starttime 0
scalar MobileNetwork.host[7] coordZ:vector:endtime 900
scalar MobileNetwork.host[8] coordX:vector:count 8997
scalar MobileNetwork.host[8] coordX:vector:sum 533348.99646327
scalar MobileNetwork.host[8] coordX:vector:sumweights 8997
scalar MobileNetwork.host[8] coordX:vector:mean 59.280759860317
scalar MobileNetwork.host[8] coordX:vector:stddev 41.204216618463
scalar MobileNetwork.host[8] coordX:vector:min 11.887431468512
scalar MobileNetwork.host[8] coordX:vector:max 170.95133993323
scalar MobileNetwork.host[8] coordX:vector:starttime 0
scalar MobileNetwork.host[8] coordX:vector:endtime 898.94074202966
scalar MobileNetwork.host[8] coordY:vector:count 8997
scalar MobileNetwork.host[8] coordY:vector:sum 1123658.0777502
scalar MobileNetwork.host[8] coordY:vector:sumweights 8997
scalar MobileNetwork.host[8] coordY:vector:mean 124.89252837059
scalar MobileNetwork.host[8] coordY:vector:stddev 42.292080048816
scalar MobileNetwork.host[8] coordY:vector:min 32.374031937655
scalar MobileNetwork.host[8] coordY:vector:max 194.12419303034
scalar MobileNetwork.host[8] coordY:vector:starttime 0
scalar MobileNetwork.host[8] coordY:vector:endtime 898.94074202966
scalar MobileNetwork.host[8] coordZ:vector:count 8997
scalar MobileNetwork.host[8] coordZ:vector:sum 0
scalar MobileNetwork.host[8] coordZ:vector:sumweights 8997
scalar MobileNetwork.host[8] coordZ:vector:mean 0
scalar MobileNetwork.host[8] coordZ:vector:stddev 0
scalar MobileNetwork.host[8] coordZ:vector:min 0
scalar MobileNetwork.host[8] coordZ:vector:max 0
scalar MobileNetwork.host[8] coordZ:vector:starttime 0
scalar MobileNetwork.host[8] coordZ:vector:endtime 898.94074202966
scalar MobileNetwork.host[9] coordX:vector:count 9011
scalar MobileNetwork.host[9] coordX:vector:sum 898920.4401386
scalar MobileNetwork.host[9] coordX:vector:sumweights 9011
scalar MobileNetwork.host[9] coordX:vector:mean 99.758122310354
scalar MobileNetwork.host[9] coordX:vector:stddev 37.2969193723
scalar MobileNetwork.host[9] coordX:vector:min 32.631147690724
scalar MobileNetwork.host[9] coordX:vector:max 158.29606164414
scalar MobileNetwork.host[9] coordX:vector:starttime 0
scalar MobileNetwork.host[9] coordX:vector:endtime 900
scalar MobileNetwork.host[9] coordY:vector:count 9011
scalar MobileNetwork.host[9] coordY:vector:sum 630003.89708982
scalar MobileNetwork.host[9] coordY:vector:sumweights 9011
scalar MobileNetwork.host[9] coordY:vector:mean 69.914981366088
scalar MobileNetwork.host[9] coordY:vector:stddev 29.741896860627
scalar MobileNetwork.host[9] coordY:vector:min 13.093249199568
scalar MobileNetwork.host[9] coordY:vector:max 123.28873144275
scalar MobileNetwork.host[9] coordY:vector:starttime 0
scalar MobileNetwork.host[9] coordY:vector:endtime 900
scalar MobileNetwork.host[9] coordZ:vector:count 9011
scalar MobileNetwork.host[9] coordZ:vector:sum 0
scalar MobileNetwork.host[9] coordZ:vector:sumweights 9011
scalar MobileNetwork.host[9] coordZ:vector:mean 0
scalar MobileNetwork.host[9] coordZ:vector:stddev 0
scalar MobileNetwork.host[9] coordZ:vector:min 0
scalar MobileNetwork.host[9] coordZ:vector:max 0
scalar MobileNetwork.host[9] coordZ:vector:starttime 0
scalar MobileNetwork.host[9] coordZ:vector:endtime 900
scalar MobileNetwork.host[10] coordX:vector:count 9007
scalar MobileNetwork.host[10] coordX:vector:sum 1137817.5232702
scalar MobileNetwork.host[10] coordX:vector:sumweights 9007
scalar MobileNetwork.host[10] coordX:vector:mean 126.32591576221
scalar MobileNetwork.host[10] coordX:vector:stddev 57.108068920909
scalar MobileNetwork.host[10] coordX:vector:min 16.593338969331
scalar MobileNetwork.host[10] coordX:vector:max 196.12871120699
scalar MobileNetwork.host[10] coordX:vector:starttime 0
scalar MobileNetwork.host[10] coordX:vector:endtime 900
scalar MobileNetwork.host[10] coordY:vector:count 9007
scalar MobileNetwork.host[10] coordY:vector:sum 918361.25215665
scalar MobileNetwork.host[10] coordY:vector:sumweights 9007
scalar MobileNetwork.host[10] coordY:vector:mean 101.96083625587
scalar MobileNetwork.host[10] coordY:vector:stddev 46.535788266989
scalar MobileNetwork.host[10] coordY:vector:min 59.735560108712
scalar MobileNetwork.host[10] coordY:vector:max 197.06524932799
scalar MobileNetwork.host[10] coordY:vector:starttime 0
scalar MobileNetwork.host[10] coordY:vector:endtime 900
scalar MobileNetwork.host[10] coordZ:vector:count 9007
scalar MobileNetwork.host[10] coordZ:vector:sum 0
scalar MobileNetwork.host[10] coordZ:vector:sumweights 9007
scalar MobileNetwork.host[10] coordZ:vector:mean 0
scalar MobileNetwork.host[10] coordZ:vector:stddev 0
scalar MobileNetwork.host[10] coordZ:vector:min 0
scalar MobileNetwork.host[10] coordZ:vector:max 0
scalar MobileNetwork.host[10] coordZ:vector:starttime 0
scalar MobileNetwork.host[10] coordZ:vector:endtime 900
scalar MobileNetwork.host[11] coordX:vector:count 8938
scalar MobileNetwork.host[11] coordX:vector:sum 885724.50553632
scalar MobileNetwork.host[11] coordX:vector:sumweights 8938
scalar MobileNetwork.host[11] coordX:vector:mean 99.096498717423
scalar MobileNetwork.host[11] coordX:vector:stddev 53.569118951037
scalar MobileNetwork.host[11] coordX:vector:min 27.898519522925
scalar MobileNetwork.host[11] coordX:vector:max 196.93060818546
scalar MobileNetwork.host[11] coordX:vector:starttime 0
scalar MobileNetwork.host[11] coordX:vector:endtime 892.76065237688
scalar MobileNetwork.host[11] coordY:vector:count 8938
scalar MobileNetwork.host[11] coordY:vector:sum 914552.69961071
scalar MobileNetwork.host[11] coordY:vector:sumweights 8938
scalar MobileNetwork.host[11] coordY:vector:mean 102.32185048229
scalar MobileNetwork.host[11] coordY:vector:stddev 29.908896846987
scalar MobileNetwork.host[11] coordY:vector:min 44.859612031757
scalar MobileNetwork.host[11] coordY:vector:max 159.9102192388
scalar MobileNetwork.host[11] coordY:vector:starttime 0
scalar MobileNetwork.host[11] coordY:vector:endtime 892.76065237688
scalar MobileNetwork.host[11] coordZ:vector:count 8938
scalar MobileNetwork.host[11] coordZ:vector:sum 0
scalar MobileNetwork.host[11] coordZ:vector:sumweights 8938
scalar MobileNetwork.host[11] coordZ:vector:mean 0
scalar MobileNetwork.host[11] coordZ:vector:stddev 0
scalar MobileNetwork.host[11] coordZ:vector:min 0
scalar MobileNetwork.host[11] coordZ:vector:max 0
scalar MobileNetwork.host[11] coordZ:vector:starttime 0
scalar MobileNetwork.host[11] coordZ:vector:endtime 892.76065237688
scalar MobileNetwork.host[12] coordX:vector:count 9009
scalar MobileNetwork.host[12] coordX:vector:sum 625291.23708725
scalar MobileNetwork.host[12] coordX:vector:sumweights 9009
scalar MobileNetwork.host[12] coordX:vector:mean 69.407396724082
scalar MobileNetwork.host[12] coordX:vector:stddev 56.402018011499
scalar MobileNetwork.host[12] coordX:vector:min 1.3504844402644
scalar MobileNetwork.host[12] coordX:vector:max 187.00523982424
scalar MobileNetwork.host[12] coordX:vector:starttime 0
scalar MobileNetwork.host[12] coordX:vector:endtime 900
scalar MobileNetwork.host[12] coordY:vector:count 9009
scalar MobileNetwork.host[12] coordY:vector:sum 1208069.9181706
scalar MobileNetwork.host[12] coordY:vector:sumweights 9009
scalar MobileNetwork.host[12] coordY:vector:mean 134.09589501283
scalar MobileNetwork.host[12] coordY:vector:stddev 37.512610610038
scalar MobileNetwork.host[12] coordY:vector:min 51.927424841103
scalar MobileNetwork.host[12] coordY:vector:max 195.28825954643
scalar MobileNetwork.host[12] coordY:vector:starttime 0
scalar MobileNetwork.host[12] coordY:vector:endtime 900
scalar MobileNetwork.host[12] coordZ:vector:count 9009
scalar MobileNetwork.host[12] coordZ:vector:sum 0
scalar MobileNetwork.host[12] coordZ:vector:sumweights 9009
scalar MobileNetwork.host[12] coordZ:vector:mean 0
scalar MobileNetwork.host[12] coordZ:vector:stddev 0
scalar MobileNetwork.host[12] coordZ:vector:min 0
scalar MobileNetwork.host[12] coordZ:vector:max 0
scalar MobileNetwork.host[12] coordZ:vector:starttime 0
scalar MobileNetwork.host[12] coordZ:vector:endtime 900
scalar MobileNetwork.host[13] coordX:vector:count 9010
scalar MobileNetwork.host[13] coordX:vector:sum 730840.09967169
scalar MobileNetwork.host[13] coordX:vector:sumweights 9010
scalar MobileNetwork.host[13] coordX:vector:mean 81.114328487424
scalar MobileNetwork.host[13] coordX:vector:stddev 37.400272070239
scalar MobileNetwork.host[13] coordX:vector:min 9.3649515616777
scalar MobileNetwork.host[13] coordX:vector:max 147.05786508554
scalar MobileNetwork.host[13] coordX:vector:starttime 0
scalar MobileNetwork.host[13] coordX:vector:endtime 900
scalar MobileNetwork.host[13] coordY:vector:count 9010
scalar MobileNetwork.host[13] coordY:vector:sum 989638.43748884
scalar MobileNetwork.host[13] coordY:vector:sumweights 9010
scalar MobileNetwork.host[13] coordY:vector:mean 109.83778440498
scalar MobileNetwork.host[13] coordY:vector:stddev 34.937322986158
scalar MobileNetwork.host[13] coordY:vector:min 7.8941113974908
scalar MobileNetwork.host[13] coordY:vector:max 164.0087820665
scalar MobileNetwork.host[13] coordY:vector:starttime 0
scalar MobileNetwork.host[13] coordY:vector:endtime 900
scalar MobileNetwork.host[13] coordZ:vector:count 9010
scalar MobileNetwork.host[13] coordZ:vector:sum 0
scalar MobileNetwork.host[13] coordZ:vector:sumweights 9010
scalar MobileNetwork.host[13] coordZ:vector:mean 0
scalar MobileNetwork.host[13] coordZ:vector:stddev 0
scalar MobileNetwork.host[13] coordZ:vector:min 0
scalar MobileNetwork.host[13] coordZ:vector:max 0
scalar MobileNetwork.host[13] coordZ:vector:starttime 0
scalar MobileNetwork.host[13] coordZ:vector:endtime 900
scalar MobileNetwork.host[14] coordX:vector:count 9010
scalar MobileNetwork.host[14] coordX:vector:sum 1207536.4017667
scalar MobileNetwork.host[14] coordX:vector:sumweights 9010
scalar MobileNetwork.host[14] coordX:vector:mean 134.0217981983
scalar MobileNetwork.host[14] coordX:vector:stddev 35.850727846669
scalar MobileNetwork.host[14] coordX:vector:min 58.539288020916
scalar MobileNetwork.host[14] coordX:vector:max 194.13674873753
scalar MobileNetwork.host[14] coordX:vector:starttime 0
scalar MobileNetwork.host[14] coordX:vector:endtime 900
scalar MobileNetwork.host[14] coordY:vector:count 9010
scalar MobileNetwork.host[14] coordY:vector:sum 847532.54621425
scalar MobileNetwork.host[14] coordY:vector:sumweights 9010
scalar MobileNetwork.host[14] coordY:vector:mean 94.065765395588
scalar MobileNetwork.host[14] coordY:vector:stddev 39.249880672017
scalar MobileNetwork.host[14] coordY:vector:min 5.3316304718677
scalar MobileNetwork.host[14] coordY:vector:max 160.26412243113
scalar MobileNetwork.host[14] coordY:vector:starttime 0
scalar MobileNetwork.host[14] coordY:vector:endtime 900
scalar MobileNetwork.host[14] coordZ:vector:count 9010
scalar MobileNetwork.host[14] coordZ:vector:sum 0
scalar MobileNetwork.host[14] coordZ:vector:sumweights 9010
scalar MobileNetwork.host[14] coordZ:vector:mean 0
scalar MobileNetwork.host[14] coordZ:vector:stddev 0
scalar MobileNetwork.host[14] coordZ:vector:min 0
scalar MobileNetwork.host[14] coordZ:vector:max 0
scalar MobileNetwork.host[14] coordZ:vector:starttime 0
scalar MobileNetwork.host[14] coordZ:vector:endtime 900
scalar MobileNetwork.host[15] coordX:vector:count 9009
scalar MobileNetwork.host[15] coordX:vector:sum 932916.420457
scalar MobileNetwork.host[15] coordX:vector:sumweights 9009
scalar MobileNetwork.host[15] coordX:vector:mean 103.55382622455
scalar MobileNetwork.host[15] coordX:vector:stddev 40.058865547006
scalar MobileNetwork.host[15] coordX:vector:min 4.3541539826387
scalar MobileNetwork.host[15] coordX:vector:max 198.26587654676
scalar MobileNetwork.host[15] coordX:vector:starttime 0
scalar MobileNetwork.host[15] coordX:vector:endtime 900
scalar MobileNetwork.host[15] coordY:vector:count 9009
scalar MobileNetwork.host[15] coordY:vector:sum 1101806.3873253
scalar MobileNetwork.host[15] coordY:vector:sumweights 9009
scalar MobileNetwork.host[15] coordY:vector:mean 122.30063129374
scalar MobileNetwork.host[15] coordY:vector:stddev 48.884758354744
scalar MobileNetwork.host[15] coordY:vector:min 39.697708000544
scalar MobileNetwork.host[15] coordY:vector:max 188.17359303114
scalar MobileNetwork.host[15] coordY:vector:starttime 0
scalar MobileNetwork.host[15] coordY:vector:endtime 900
scalar MobileNetwork.host[15] coordZ:vector:count 9009
scalar MobileNetwork.host[15] coordZ:vector:sum 0
scalar MobileNetwork.host[15] coordZ:vector:sumweights 9009
scalar MobileNetwork.host[15] coordZ:vector:mean 0
scalar MobileNetwork.host[15] coordZ:vector:stddev 0
scalar MobileNetwork.host[15] coordZ:vector:min 0
scalar MobileNetwork.host[15] coordZ:vector:max 0
scalar MobileNetwork.host[15] coordZ:vector:starttime 0
scalar MobileNetwork.host[15] coordZ:vector:endtime 900
scalar MobileNetwork.host[16] coordX:vector:count 9009
scalar MobileNetwork.host[16] coordX:vector:sum 785111.09215486
scalar MobileNetwork.host[16] coordX:vector:sumweights 9009
scalar MobileNetwork.host[16] coordX:vector:mean 87.147418376608
scalar MobileNetwork.host[16] coordX:vector:stddev 54.835421835517
scalar MobileNetwork.host[16] coordX:vector:min 13.499822432294
scalar MobileNetwork.host[16] coordX:vector:max 180.6331206458
scalar MobileNetwork.host[16] coordX:vector:starttime 0
scalar MobileNetwork.host[16] coordX:vector:endtime 900
scalar MobileNetwork.host[16] coordY:vector:count 9009
scalar MobileNetwork.host[16] coordY:vector:sum 1407787.7273571
scalar MobileNetwork.host[16] coordY:vector:sumweights 9009
scalar MobileNetwork.host[16] coordY:vector:mean 156.26459400123
scalar MobileNetwork.host[16] coordY:vector:stddev 43.258350463043
scalar MobileNetwork.host[16] coordY:vector:min 65.392038671019
scalar MobileNetwork.host[16] coordY:vector:max 199.78110658093
scalar MobileNetwork.host[16] coordY:vector:starttime 0
scalar MobileNetwork.host[16] coordY:vector:endtime 900
scalar MobileNetwork.host[16] coordZ:vector:count 9009
scalar MobileNetwork.host[16] coordZ:vector:sum 0
scalar MobileNetwork.host[16] coordZ:vector:sumweights 9009
scalar MobileNetwork.host[16] coordZ:vector:mean 0
scalar MobileNetwork.host[16] coordZ:vector:stddev 0
scalar MobileNetwork.host[16] coordZ:vector:min 0
scalar MobileNetwork.host[16] coordZ:vector:max 0
scalar MobileNetwork.host[16] coordZ:vector:starttime 0
scalar MobileNetwork.host[16] coordZ:vector:endtime 900
scalar MobileNetwork.host[17] coordX:vector:count 9010
scalar MobileNetwork.host[17] coordX:vector:sum 974246.89635159
scalar MobileNetwork.host[17] coordX:vector:sumweights 9010
scalar MobileNetwork.host[17] coordX:vector:mean 108.12951124879
scalar MobileNetwork.host[17] coordX:vector:stddev 45.444325201989
scalar MobileNetwork.host[17] coordX:vector:min 24.387302113217
scalar MobileNetwork.host[17] coordX:vector:max 175.96275291868
scalar MobileNetwork.host[17] coordX:vector:starttime 0
scalar MobileNetwork.host[17] coordX:vector:endtime 900
scalar MobileNetwork.host[17] coordY:vector:count 9010
scalar MobileNetwork.host[17] coordY:vector:sum 873275.10143304
scalar MobileNetwork.host[17] coordY:vector:sumweights 9010
scalar MobileNetwork.host[17] coordY:vector:mean 96.922874742845
scalar MobileNetwork.host[17] coordY:vector:stddev 48.861599219339
scalar MobileNetwork.host[17] coordY:vector:min 5.988682620456
scalar MobileNetwork.host[17] coordY:vector:max 187.95948372863
scalar MobileNetwork.host[17] coordY:vector:starttime 0
scalar MobileNetwork.host[17] coordY:vector:endtime 900
scalar MobileNetwork.host[17] coordZ:vector:count 9010
scalar MobileNetwork.host[17] coordZ:vector:sum 0
scalar MobileNetwork.host[17] coordZ:vector:sumweights 9010
scalar MobileNetwork.host[17] coordZ:vector:mean 0
scalar MobileNetwork.host[17] coordZ:vector:stddev 0
scalar MobileNetwork.host[17] coordZ:vector:min 0
scalar MobileNetwork.host[17] coordZ:vector:max 0
scalar MobileNetwork.host[17] coordZ:vector:starttime 0
scalar MobileNetwork.host[17] coordZ:vector:endtime 900
scalar MobileNetwork.host[18] coordX:vector:count 8848
scalar MobileNetwork.host[18] coordX:vector:sum 1256820.5667797
scalar MobileNetwork.host[18] coordX:vector:sumweights 8848
scalar MobileNetwork.host[18] coordX:vector:mean 142.04572409355
scalar MobileNetwork.host[18] coordX:vector:stddev 30.909802256694
scalar MobileNetwork.host[18] coordX:vector:min 90.603134991815
scalar MobileNetwork.host[18] coordX:vector:max 198.74178997085
scalar MobileNetwork.host[18] coordX:vector:starttime 0
scalar MobileNetwork.host[18] coordX:vector:endtime 883.86624213042
scalar MobileNetwork.host[18] coordY:vector:count 8848
scalar MobileNetwork.host[18] coordY:vector:sum 807388.38705348
scalar MobileNetwork.host[18] coordY:vector:sumweights 8848
scalar MobileNetwork.host[18] coordY:vector:mean 91.250947903875
scalar MobileNetwork.host[18] coordY:vector:stddev 60.152348169614
scalar MobileNetwork.host[18] coordY:vector:min 1.9117100945853
scalar MobileNetwork.host[18] coordY:vector:max 193.48617539346
scalar MobileNetwork.host[18] coordY:vector:starttime 0
scalar MobileNetwork.host[18] coordY:vector:endtime 883.86624213042
scalar MobileNetwork.host[18] coordZ:vector:count 8848
scalar MobileNetwork.host[18] coordZ:vector:sum 0
scalar MobileNetwork.host[18] coordZ:vector:sumweights 8848
scalar MobileNetwork.host[18] coordZ:vector:mean 0
scalar MobileNetwork.host[18] coordZ:vector:stddev 0
scalar MobileNetwork.host[18] coordZ:vector:min 0
scalar MobileNetwork.host[18] coordZ:vector:max 0
scalar MobileNetwork.host[18] coordZ:vector:starttime 0
scalar MobileNetwork.host[18] coordZ:vector:endtime 883.86624213042
scalar MobileNetwork.host[19] coordX:vector:count 9008
scalar MobileNetwork.host[19] coordX:vector:sum 769373.99813474
scalar MobileNetwork.host[19] coordX:vector:sumweights 9008
scalar MobileNetwork.host[19] coordX:vector:mean 85.410079721885
scalar MobileNetwork.host[19] coordX:vector:stddev 40.144863051248
scalar MobileNetwork.host[19] coordX:vector:min 14.229864273292
scalar MobileNetwork.host[19] coordX:vector:max 144.36406820572
scalar MobileNetwork.host[19] coordX:vector:starttime 0
scalar MobileNetwork.host[19] coordX:vector:endtime 900
scalar MobileNetwork.host[19] coordY:vector:count 9008
scalar MobileNetwork.host[19] coordY:vector:sum 997934.06322929
scalar MobileNetwork.host[19] coordY:vector:sumweights 9008
scalar MobileNetwork.host[19] coordY:vector:mean 110.78308872439
scalar MobileNetwork.host[19] coordY:vector:stddev 40.810410621753
scalar MobileNetwork.host[19] coordY:vector:min 47.194232185769
scalar MobileNetwork.host[19] coordY:vector:max 196.86145410208
scalar MobileNetwork.host[19] coordY:vector:starttime 0
scalar MobileNetwork.host[19] coordY:vector:endtime 900
scalar MobileNetwork.host[19] coordZ:vector:count 9008
scalar MobileNetwork.host[19] coordZ:vector:sum 0
scalar MobileNetwork.host[19] coordZ:vector:sumweights 9008
scalar MobileNetwork.host[19] coordZ:vector:mean 0
scalar MobileNetwork.host[19] coordZ:vector:stddev 0
scalar MobileNetwork.host[19] coordZ:vector:min 0
scalar MobileNetwork.host[19] coordZ:vector:max 0
scalar MobileNetwork.host[19] coordZ:vector:starttime 0
scalar MobileNetwork.host[19] coordZ:vector:endtime 900
scalar MobileNetwork.host[20] coordX:vector:count 9012
scalar MobileNetwork.host[20] coordX:vector:sum 1055777.1235756
scalar MobileNetwork.host[20] coordX:vector:sumweights 9012
scalar MobileNetwork.host[20] coordX:vector:mean 117.15236613134
scalar MobileNetwork.host[20] coordX:vector:stddev 49.128698776083
scalar MobileNetwork.host[20] coordX:vector:min 48.496751021513
scalar MobileNetwork.host[20] coordX:vector:max 192.95182298231
scalar MobileNetwork.host[20] coordX:vector:starttime 0
scalar MobileNetwork.host[20] coordX:vector:endtime 900
scalar MobileNetwork.host[20] coordY:vector:count 9012
scalar MobileNetwork.host[20] coordY:vector:sum 953868.90833406
scalar MobileNetwork.host[20] coordY:vector:sumweights 9012
scalar MobileNetwork.host[20] coordY:vector:mean 105.84430851465
scalar MobileNetwork.host[20] coordY:vector:stddev 50.943185430822
scalar MobileNetwork.host[20] coordY:vector:min 20.993850591545
scalar MobileNetwork.host[20] coordY:vector:max 193.03952910165
scalar MobileNetwork.host[20] coordY:vector:starttime 0
scalar MobileNetwork.host[20] coordY:vector:endtime 900
scalar MobileNetwork.host[20] coordZ:vector:count 9012
scalar MobileNetwork.host[20] coordZ:vector:sum 0
scalar MobileNetwork.host[20] coordZ:vector:sumweights 9012
scalar MobileNetwork.host[20] coordZ:vector:mean 0
scalar MobileNetwork.host[20] coordZ:vector:stddev 0
scalar MobileNetwork.host[20] coordZ:vector:min 0
scalar MobileNetwork.host[20] coordZ:vector:max 0
scalar MobileNetwork.host[20] coordZ:vector:starttime 0
scalar MobileNetwork.host[20] coordZ:vector:endtime 900
scalar MobileNetwork.host[21] coordX:vector:count 8561
scalar MobileNetwork.host[21] coordX:vector:sum 743761.1663833
scalar MobileNetwork.host[21] coordX:vector:sumweights 8561
scalar MobileNetwork.host[21] coordX:vector:mean 86.877837446946
scalar MobileNetwork.host[21] coordX:vector:stddev 38.593436622661
scalar MobileNetwork.host[21] coordX:vector:min 26.739422202711
scalar MobileNetwork.host[21] coordX:vector:max 184.10616353628
scalar MobileNetwork.host[21] coordX:vector:starttime 0
scalar MobileNetwork.host[21] coordX:vector:endtime 855.61308174652
scalar MobileNetwork.host[21] coordY:vector:count 8561
scalar MobileNetwork.host[21] coordY:vector:sum 1134719.9727854
scalar MobileNetwork.host[21] coordY:vector:sumweights 8561
scalar MobileNetwork.host[21] coordY:vector:mean 132.5452602249
scalar MobileNetwork.host[21] coordY:vector:stddev 54.066715035041
scalar MobileNetwork.host[21] coordY:vector:min 16.907254885053
scalar MobileNetwork.host[21] coordY:vector:max 194.77556022334
scalar MobileNetwork.host[21] coordY:vector:starttime 0
scalar MobileNetwork.host[21] coordY:vector:endtime 855.61308174652
scalar MobileNetwork.host[21] coordZ:vector:count 8561
scalar MobileNetwork.host[21] coordZ:vector:sum 0
scalar MobileNetwork.host[21] coordZ:vector:sumweights 8561
scalar MobileNetwork.host[21] coordZ:vector:mean 0
scalar MobileNetwork.host[21] coordZ:vector:stddev 0
scalar MobileNetwork.host[21] coordZ:vector:min 0
scalar MobileNetwork.host[21] coordZ:vector:max 0
scalar MobileNetwork.host[21] coordZ:vector:starttime 0
scalar MobileNetwork.host[21] coordZ:vector:endtime 855.61308174652
scalar MobileNetwork.host[22] coordX:vector:count 9010
scalar MobileNetwork.host[22] coordX:vector:sum 1196363.0127881
scalar MobileNetwork.host[22] coordX:vector:sumweights 9010
scalar MobileNetwork.host[22] coordX:vector:mean 132.78168843376
scalar MobileNetwork.host[22] coordX:vector:stddev 47.969619642399
scalar MobileNetwork.host[22] coordX:vector:min 18.394443090872
scalar MobileNetwork.host[22] coordX:vector:max 195.01858954565
scalar MobileNetwork.host[22] coordX:vector:starttime 0
scalar MobileNetwork.host[22] coordX:vector:endtime 900
scalar MobileNetwork.host[22] coordY:vector:count 9010
scalar MobileNetwork.host[22] coordY:vector:sum 853851.02922294
scalar MobileNetwork.host[22] coordY:vector:sumweights 9010
scalar MobileNetwork.host[22] coordY:vector:mean 94.767039869361
scalar MobileNetwork.host[22] coordY:vector:stddev 40.682092569872
scalar MobileNetwork.host[22] coordY:vector:min 44.919403596618
scalar MobileNetwork.host[22] coordY:vector:max 186.08380250291
scalar MobileNetwork.host[22] coordY:vector:starttime 0
scalar MobileNetwork.host[22] coordY:vector:endtime 900
scalar MobileNetwork.host[22] coordZ:vector:count 9010
scalar MobileNetwork.host[22] coordZ:vector:sum 0
scalar MobileNetwork.host[22] coordZ:vector:sumweights 9010
scalar MobileNetwork.host[22] coordZ:vector:mean 0
scalar MobileNetwork.host[22] coordZ:vector:stddev 0
scalar MobileNetwork.host[22] coordZ:vector:min 0
scalar MobileNetwork.host[22] coordZ:vector:max 0
scalar MobileNetwork.host[22] coordZ:vector:starttime 0
scalar MobileNetwork.host[22] coordZ:vector:endtime 900
scalar MobileNetwork.host[23] coordX:vector:count 9010
scalar MobileNetwork.host[23] coordX:vector:sum 834617.26255926
scalar MobileNetwork.host[23] coordX:vector:sumweights 9010
scalar MobileNetwork.host[23] coordX:vector:mean 92.632326588153
scalar MobileNetwork.host[23] coordX:vector:stddev 51.243163009174
scalar MobileNetwork.host[23] coordX:vector:min 3.4589393138308
scalar MobileNetwork.host[23] coordX:vector:max 181.12299678012
scalar MobileNetwork.host[23] coordX:vector:starttime 0
scalar MobileNetwork.host[23] coordX:vector:endtime 900
scalar MobileNetwork.host[23] coordY:vector:count 9010
scalar MobileNetwork.host[23] coordY:vector:sum 954319.08779526
scalar MobileNetwork.host[23] coordY:vector:sumweights 9010
scalar MobileNetwork.host[23] coordY:vector:mean 105.91776779082
scalar MobileNetwork.host[23] coordY:vector:stddev 25.307533823865
scalar MobileNetwork.host[23] coordY:vector:min 70.67794245698
scalar MobileNetwork.host[23] coordY:vector:max 196.29001595012
scalar MobileNetwork.host[23] coordY:vector:starttime 0
scalar MobileNetwork.host[23] coordY:vector:endtime 900
scalar MobileNetwork.host[23] coordZ:vector:count 9010
scalar MobileNetwork.host[23] coordZ:vector:sum 0
scalar MobileNetwork.host[23] coordZ:vector:sumweights 9010
scalar MobileNetwork.host[23] coordZ:vector:mean 0
scalar MobileNetwork.host[23] coordZ:vector:stddev 0
scalar MobileNetwork.host[23] coordZ:vector:min 0
scalar MobileNetwork.host[23] coordZ:vector:max 0
scalar MobileNetwork.host[23] coordZ:vector:starttime 0
scalar MobileNetwork.host[23] coordZ:vector:endtime 900
scalar MobileNetwork.host[24] coordX:vector:count 9010
scalar MobileNetwork.host[24] coordX:vector:sum 1136720.1943655
scalar MobileNetwork.host[24] coordX:vector:sumweights 9010
scalar MobileNetwork.host[24] coordX:vector:mean 126.16206374755
scalar MobileNetwork.host[24] coordX:vector:stddev 55.204240336793
scalar MobileNetwork.host[24] coordX:vector:min 15.400229356008
scalar MobileNetwork.host[24] coordX:vector:max 199.78145323966
scalar MobileNetwork.host[24] coordX:vector:starttime 0
scalar MobileNetwork.host[24] coordX:vector:endtime 900
scalar MobileNetwork.host[24] coordY:vector:count 9010
scalar MobileNetwork.host[24] coordY:vector:sum 815465.23968595
scalar MobileNetwork.host[24] coordY:vector:sumweights 9010
scalar MobileNetwork.host[24] coordY:vector:mean 90.506685869694
scalar MobileNetwork.host[24] coordY:vector:stddev 57.54774436719
scalar MobileNetwork.host[24] coordY:vector:min 10.900477064949
scalar MobileNetwork.host[24] coordY:vector:max 183.80551894415
scalar MobileNetwork.host[24] coordY:vector:starttime 0
scalar MobileNetwork.host[24] coordY:vector:endtime 900
scalar MobileNetwork.host[24] coordZ:vector:count 9010
scalar MobileNetwork.host[24] coordZ:vector:sum 0
scalar MobileNetwork.host[24] coordZ:vector:sumweights 9010
scalar MobileNetwork.host[24] coordZ:vector:mean 0
scalar MobileNetwork.host[24] coordZ:vector:stddev 0
scalar MobileNetwork.host[24] coordZ:vector:min 0
scalar MobileNetwork.host[24] coordZ:vector:max 0
scalar MobileNetwork.host[24] coordZ:vector:starttime 0
scalar MobileNetwork.host[24] coordZ:vector:endtime 900
scalar MobileNetwork.host[25] coordX:vector:count 9008
scalar MobileNetwork.host[25] coordX:vector:sum 922095.81259075
scalar MobileNetwork.host[25] coordX:vector:sumweights 9008
scalar MobileNetwork.host[25] coordX:vector:mean 102.36409997677
scalar MobileNetwork.host[25] coordX:vector:stddev 42.778131135496
scalar MobileNetwork.host[25] coordX:vector:min 0.14089321215671
scalar MobileNetwork.host[25] coordX:vector:max 185.98325333975
scalar MobileNetwork.host[25] coordX:vector:starttime 0
scalar MobileNetwork.host[25] coordX:vector:endtime 900
scalar MobileNetwork.host[25] coordY:vector:count 9008
scalar MobileNetwork.host[25] coordY:vector:sum 828259.87469601
scalar MobileNetwork.host[25] coordY:vector:sumweights 9008
scalar MobileNetwork.host[25] coordY:vector:mean 91.947144171404
scalar MobileNetwork.host[25] coordY:vector:stddev 29.25570485424
scalar MobileNetwork.host[25] coordY:vector:min 11.36420730115
scalar MobileNetwork.host[25] coordY:vector:max 172.83730572947
scalar MobileNetwork.host[25] coordY:vector:starttime 0
scalar MobileNetwork.host[25] coordY:vector:endtime 900
scalar MobileNetwork.host[25] coordZ:vector:count 9008
scalar MobileNetwork.host[25] coordZ:vector:sum 0
scalar MobileNetwork.host[25] coordZ:vector:sumweights 9008
scalar MobileNetwork.host[25] coordZ:vector:mean 0
scalar MobileNetwork.host[25] coordZ:vector:stddev 0
scalar MobileNetwork.host[25] coordZ:vector:min 0
scalar MobileNetwork.host[25] coordZ:vector:max 0
scalar MobileNetwork.host[25] coordZ:vector:starttime 0
scalar MobileNetwork.host[25] coordZ:vector:endtime 900
scalar MobileNetwork.host[26] coordX:vector:count 9010
scalar MobileNetwork.host[26] coordX:vector:sum 865083.85417421
scalar MobileNetwork.host[26] coordX:vector:sumweights 9010
scalar MobileNetwork.host[26] coordX:vector:mean 96.013746301245
scalar MobileNetwork.host[26] coordX:vector:stddev 44.573645930127
scalar MobileNetwork.host[26] coordX:vector:min 24.518141425538
scalar MobileNetwork.host[26] coordX:vector:max 171.68557431692
scalar MobileNetwork.host[26] coordX:vector:starttime 0
scalar MobileNetwork.host[26] coordX:vector:endtime 900
scalar MobileNetwork.host[26] coordY:vector:count 9010
scalar MobileNetwork.host[26] coordY:vector:sum 1048464.252044
scalar MobileNetwork.host[26] coordY:vector:sumweights 9010
scalar MobileNetwork.host[26] coordY:vector:mean 116.3667316364
scalar MobileNetwork.host[26] coordY:vector:stddev 44.975087689991
scalar MobileNetwork.host[26] coordY:vector:min 46.255011723851
scalar MobileNetwork.host[26] coordY:vector:max 197.26725060933
scalar MobileNetwork.host[26] coordY:vector:starttime 0
scalar MobileNetwork.host[26] coordY:vector:endtime 900
scalar MobileNetwork.host[26] coordZ:vector:count 9010
scalar MobileNetwork.host[26] coordZ:vector:sum 0
scalar MobileNetwork.host[26] coordZ:vector:sumweights 9010
scalar MobileNetwork.host[26] coordZ:vector:mean 0
scalar MobileNetwork.host[26] coordZ:vector:stddev 0
scalar MobileNetwork.host[26] coordZ:vector:min 0
scalar MobileNetwork.host[26] coordZ:vector:max 0
scalar MobileNetwork.host[26] coordZ:vector:starttime 0
scalar MobileNetwork.host[26] coordZ:vector:endtime 900
scalar MobileNetwork.host[27] coordX:vector:count 9006
scalar MobileNetwork.host[27] coordX:vector:sum 850360.45072003
scalar MobileNetwork.host[27] coordX:vector:sumweights 9006
scalar MobileNetwork.host[27] coordX:vector:mean 94.421546826564
scalar MobileNetwork.host[27] coordX:vector:stddev 52.05639318563
scalar MobileNetwork.host[27] coordX:vector:min 3.3148133985588
scalar MobileNetwork.host[27] coordX:vector:max 181.57691974103
scalar MobileNetwork.host[27] coordX:vector:starttime 0
scalar MobileNetwork.host[27] coordX:vector:endtime 900
scalar MobileNetwork.host[27] coordY:vector:count 9006
scalar MobileNetwork.host[27] coordY:vector:sum 576030.94476097
scalar MobileNetwork.host[27] coordY:vector:sumweights 9006
scalar MobileNetwork.host[27] coordY:vector:mean 63.960797774925
scalar MobileNetwork.host[27] coordY:vector:stddev 46.694735858134
scalar MobileNetwork.host[27] coordY:vector:min 11.273942387786
scalar MobileNetwork.host[27] coordY:vector:max 167.53620532303
scalar MobileNetwork.host[27] coordY:vector:starttime 0
scalar MobileNetwork.host[27] coordY:vector:endtime 900
scalar MobileNetwork.host[27] coordZ:vector:count 9006
scalar MobileNetwork.host[27] coordZ:vector:sum 0
scalar MobileNetwork.host[27] coordZ:vector:sumweights 9006
scalar MobileNetwork.host[27] coordZ:vector:mean 0
scalar MobileNetwork.host[27] coordZ:vector:stddev 0
scalar MobileNetwork.host[27] coordZ:vector:min 0
scalar MobileNetwork.host[27] coordZ:vector:max 0
scalar MobileNetwork.host[27] coordZ:vector:starttime 0
scalar MobileNetwork.host[27] coordZ:vector:endtime 900
scalar MobileNetwork.host[28] coordX:vector:count 9008
scalar MobileNetwork.host[28] coordX:vector:sum 661405.8239427
scalar MobileNetwork.host[28] coordX:vector:sumweights 9008
scalar MobileNetwork.host[28] coordX:vector:mean 73.424269975878
scalar MobileNetwork.host[28] coordX:vector:stddev 25.115919449948
scalar MobileNetwork.host[28] coordX:vector:min 30.410195139646
scalar MobileNetwork.host[28] coordX:vector:max 157.21619982992
scalar MobileNetwork.host[28] coordX:vector:starttime 0
scalar MobileNetwork.host[28] coordX:vector:endtime 900
scalar MobileNetwork.host[28] coordY:vector:count 9008
scalar MobileNetwork.host[28] coordY:vector:sum 748917.52261874
scalar MobileNetwork.host[28] coordY:vector:sumweights 9008
scalar MobileNetwork.host[28] coordY:vector:mean 83.139156596219
scalar MobileNetwork.host[28] coordY:vector:stddev 51.307680128168
scalar MobileNetwork.host[28] coordY:vector:min 4.908744546006
scalar MobileNetwork.host[28] coordY:vector:max 164.45426162588
scalar MobileNetwork.host[28] coordY:vector:starttime 0
scalar MobileNetwork.host[28] coordY:vector:endtime 900
scalar MobileNetwork.host[28] coordZ:vector:count 9008
scalar MobileNetwork.host[28] coordZ:vector:sum 0
scalar MobileNetwork.host[28] coordZ:vector:sumweights 9008
scalar MobileNetwork.host[28] coordZ:vector:mean 0
scalar MobileNetwork.host[28] coordZ:vector:stddev 0
scalar MobileNetwork.host[28] coordZ:vector:min 0
scalar MobileNetwork.host[28] coordZ:vector:max 0
scalar MobileNetwork.host[28] coordZ:vector:starttime 0
scalar MobileNetwork.host[28] coordZ:vector:endtime 900
scalar MobileNetwork.host[29] coordX:vector:count 9007
scalar MobileNetwork.host[29] coordX:vector:sum 1021224.9863849
scalar MobileNetwork.host[29] coordX:vector:sumweights 9007
scalar MobileNetwork.host[29] coordX:vector:mean 113.38125750915
scalar MobileNetwork.host[29] coordX:vector:stddev 50.976746967579
scalar MobileNetwork.host[29] coordX:vector:min 17.371506134306
scalar MobileNetwork.host[29] coordX:vector:max 197.42360259408
scalar MobileNetwork.host[29] coordX:vector:starttime 0
scalar MobileNetwork.host[29] coordX:vector:endtime 900
scalar MobileNetwork.host[29] coordY:vector:count 9007
scalar MobileNetwork.host[29] coordY:vector:sum 631914.63957357
scalar MobileNetwork.host[29] coordY:vector:sumweights 9007
scalar MobileNetwork.host[29] coordY:vector:mean 70.158170264635
scalar MobileNetwork.host[29] coordY:vector:stddev 45.12343429603
scalar MobileNetwork.host[29] coordY:vector:min 0.63867213763455
scalar MobileNetwork.host[29] coordY:vector:max 170.73278665012
scalar MobileNetwork.host[29] coordY:vector:starttime 0
scalar MobileNetwork.host[29] coordY:vector:endtime 900
scalar MobileNetwork.host[29] coordZ:vector:count 9007
scalar MobileNetwork.host[29] coordZ:vector:sum 0
scalar MobileNetwork.host[29] coordZ:vector:sumweights 9007
scalar MobileNetwork.host[29] coordZ:vector:mean 0
scalar MobileNetwork.host[29] coordZ:vector:stddev 0
scalar MobileNetwork.host[29] coordZ:vector:min 0
scalar MobileNetwork.host[29] coordZ:vector:max 0
scalar MobileNetwork.host[29] coordZ:vector:starttime 0
scalar MobileNetwork.host[29] coordZ:vector:endtime 900
scalar MobileNetwork.host[30] coordX:vector:count 9014
scalar MobileNetwork.host[30] coordX:vector:sum 818916.97316809
scalar MobileNetwork.host[30] coordX:vector:sumweights 9014
scalar MobileNetwork.host[30] coordX:vector:mean 90.849453424461
scalar MobileNetwork.host[30] coordX:vector:stddev 29.483090457166
scalar MobileNetwork.host[30] coordX:vector:min 30.145940896856
scalar MobileNetwork.host[30] coordX:vector:max 140.48860949419
scalar MobileNetwork.host[30] coordX:vector:starttime 0
scalar MobileNetwork.host[30] coordX:vector:endtime 900
scalar MobileNetwork.host[30] coordY:vector:count 9014
scalar MobileNetwork.host[30] coordY:vector:sum 1025983.2166768
scalar MobileNetwork.host[30] coordY:vector:sumweights 9014
scalar MobileNetwork.host[30] coordY:vector:mean 113.82108017271
scalar MobileNetwork.host[30] coordY:vector:stddev 49.318741719757
scalar MobileNetwork.host[30] coordY:vector:min 9.1026047909806
scalar MobileNetwork.host[30] coordY:vector:max 179.86592544055
scalar MobileNetwork.host[30] coordY:vector:starttime 0
scalar MobileNetwork.host[30] coordY:vector:endtime 900
scalar MobileNetwork.host[30] coordZ:vector:count 9014
scalar MobileNetwork.host[30] coordZ:vector:sum 0
scalar MobileNetwork.host[30] coordZ:vector:sumweights 9014
scalar MobileNetwork.host[30] coordZ:vector:mean 0
scalar MobileNetwork.host[30] coordZ:vector:stddev 0
scalar MobileNetwork.host[30] coordZ:vector:min 0
scalar MobileNetwork.host[30] coordZ:vector:max 0
scalar MobileNetwork.host[30] coordZ:vector:starttime 0
scalar MobileNetwork.host[30] coordZ:vector:endtime 900
scalar MobileNetwork.host[31] coordX:vector:count 9007
scalar MobileNetwork.host[31] coordX:vector:sum 1223120.8305213
scalar MobileNetwork.host[31] coordX:vector:sumweights 9007
scalar MobileNetwork.host[31] coordX:vector:mean 135.79669485082
scalar MobileNetwork.host[31] coordX:vector:stddev 28.028866427195
scalar MobileNetwork.host[31] coordX:vector:min 87.640169502731
scalar MobileNetwork.host[31] coordX:vector:max 183.11297273753
scalar MobileNetwork.host[31] coordX:vector:starttime 0
scalar MobileNetwork.host[31] coordX:vector:endtime 900
scalar MobileNetwork.host[31] coordY:vector:count 9007
scalar MobileNetwork.host[31] coordY:vector:sum 896846.2551391
scalar MobileNetwork.host[31] coordY:vector:sumweights 9007
scalar MobileNetwork.host[31] coordY:vector:mean 99.572138907416
scalar MobileNetwork.host[31] coordY:vector:stddev 44.104171102608
scalar MobileNetwork.host[31] coordY:vector:min 28.712859126811
scalar MobileNetwork.host[31] coordY:vector:max 174.35290883856
scalar MobileNetwork.host[31] coordY:vector:starttime 0
scalar MobileNetwork.host[31] coordY:vector:endtime 900
scalar MobileNetwork.host[31] coordZ:vector:count 9007
scalar MobileNetwork.host[31] coordZ:vector:sum 0
scalar MobileNetwork.host[31] coordZ:vector:sumweights 9007
scalar MobileNetwork.host[31] coordZ:vector:mean 0
scalar MobileNetwork.host[31] coordZ:vector:stddev 0
scalar MobileNetwork.host[31] coordZ:vector:min 0
scalar MobileNetwork.host[31] coordZ:vector:max 0
scalar MobileNetwork.host[31] coordZ:vector:starttime 0
scalar MobileNetwork.host[31] coordZ:vector:endtime 900
scalar MobileNetwork.host[32] coordX:vector:count 9004
scalar MobileNetwork.host[32] coordX:vector:sum 946527.6890955
scalar MobileNetwork.host[32] coordX:vector:sumweights 9004
scalar MobileNetwork.host[32] coordX:vector:mean 105.12302188977
scalar MobileNetwork.host[32] coordX:vector:stddev 48.147593321236
scalar MobileNetwork.host[32] coordX:vector:min 22.793863914032
scalar MobileNetwork.host[32] coordX:vector:max 188.14454408065
scalar MobileNetwork.host[32] coordX:vector:starttime 0
scalar MobileNetwork.host[32] coordX:vector:endtime 900
scalar MobileNetwork.host[32] coordY:vector:count 9004
scalar MobileNetwork.host[32] coordY:vector:sum 1009817.5073557
scalar MobileNetwork.host[32] coordY:vector:sumweights 9004
scalar MobileNetwork.host[32] coordY:vector:mean 112.15209988402
scalar MobileNetwork.host[32] coordY:vector:stddev 58.514686643318
scalar MobileNetwork.host[32] coordY:vector:min 39.073558809084
scalar MobileNetwork.host[32] coordY:vector:max 191.90287614858
scalar MobileNetwork.host[32] coordY:vector:starttime 0
scalar MobileNetwork.host[32] coordY:vector:endtime 900
scalar MobileNetwork.host[32] coordZ:vector:count 9004
scalar MobileNetwork.host[32] coordZ:vector:sum 0
scalar MobileNetwork.host[32] coordZ:vector:sumweights 9004
scalar MobileNetwork.host[32] coordZ:vector:mean 0
scalar MobileNetwork.host[32] coordZ:vector:stddev 0
scalar MobileNetwork.host[32] coordZ:vector:min 0
scalar MobileNetwork.host[32] coordZ:vector:max 0
scalar MobileNetwork.host[32] coordZ:vector:starttime 0
scalar MobileNetwork.host[32] coordZ:vector:endtime 900
scalar MobileNetwork.host[33] coordX:vector:count 9010
scalar MobileNetwork.host[33] coordX:vector:sum 697571.17933952
scalar MobileNetwork.host[33] coordX:vector:sumweights 9010
scalar MobileNetwork.host[33] coordX:vector:mean 77.421884499392
scalar MobileNetwork.host[33] coordX:vector:stddev 42.945318588224
scalar MobileNetwork.host[33] coordX:vector:min 33.93625378832
scalar MobileNetwork.host[33] coordX:vector:max 176.74868128278
scalar MobileNetwork.host[33] coordX:vector:starttime 0
scalar MobileNetwork.host[33] coordX:vector:endtime 900
scalar MobileNetwork.host[33] coordY:vector:count 9010
scalar MobileNetwork.host[33] coordY:vector:sum 973324.94984653
scalar MobileNetwork.host[33] coordY:vector:sumweights 9010
scalar MobileNetwork.host[33] coordY:vector:mean 108.02718644246
scalar MobileNetwork.host[33] coordY:vector:stddev 40.787309430152
scalar MobileNetwork.host[33] coordY:vector:min 22.597979012387
scalar MobileNetwork.host[33] coordY:vector:max 177.56240710825
scalar MobileNetwork.host[33] coordY:vector:starttime 0
scalar MobileNetwork.host[33] coordY:vector:endtime 900
scalar MobileNetwork.host[33] coordZ:vector:count 9010
scalar MobileNetwork.host[33] coordZ:vector:sum 0
scalar MobileNetwork.host[33] coordZ:vector:sumweights 9010
scalar MobileNetwork.host[33] coordZ:vector:mean 0
scalar MobileNetwork.host[33] coordZ:vector:stddev 0
scalar MobileNetwork.host[33] coordZ:vector:min 0
scalar MobileNetwork.host[33] coordZ:vector:max 0
scalar MobileNetwork.host[33] coordZ:vector:starttime 0
scalar MobileNetwork.host[33] coordZ:vector:endtime 900
scalar MobileNetwork.host[34] coordX:vector:count 8619
scalar MobileNetwork.host[34] coordX:vector:sum 606849.56489974
scalar MobileNetwork.host[34] coordX:vector:sumweights 8619
scalar MobileNetwork.host[34] coordX:vector:mean 70.408349564884
scalar MobileNetwork.host[34] coordX:vector:stddev 44.674842120236
scalar MobileNetwork.host[34] coordX:vector:min 12.463418172491
scalar MobileNetwork.host[34] coordX:vector:max 155.18048883234
scalar MobileNetwork.host[34] coordX:vector:starttime 0
scalar MobileNetwork.host[34] coordX:vector:endtime 861.08037016147
scalar MobileNetwork.host[34] coordY:vector:count 8619
scalar MobileNetwork.host[34] coordY:vector:sum 1135458.0479007
scalar MobileNetwork.host[34] coordY:vector:sumweights 8619
scalar MobileNetwork.host[34] coordY:vector:mean 131.73895439155
scalar MobileNetwork.host[34] coordY:vector:stddev 40.545475706405
scalar MobileNetwork.host[34] coordY:vector:min 35.443954365495
scalar MobileNetwork.host[34] coordY:vector:max 186.81977368015
scalar MobileNetwork.host[34] coordY:vector:starttime 0
scalar MobileNetwork.host[34] coordY:vector:endtime 861.08037016147
scalar MobileNetwork.host[34] coordZ:vector:count 8619
scalar MobileNetwork.host[34] coordZ:vector:sum 0
scalar MobileNetwork.host[34] coordZ:vector:sumweights 8619
scalar MobileNetwork.host[34] coordZ:vector:mean 0
scalar MobileNetwork.host[34] coordZ:vector:stddev 0
scalar MobileNetwork.host[34] coordZ:vector:min 0
scalar MobileNetwork.host[34] coordZ:vector:max 0
scalar MobileNetwork.host[34] coordZ:vector:starttime 0
scalar MobileNetwork.host[34] coordZ:vector:endtime 861.08037016147
scalar MobileNetwork.host[35] coordX:vector:count 9010
scalar MobileNetwork.host[35] coordX:vector:sum 925761.5746524
scalar MobileNetwork.host[35] coordX:vector:sumweights 9010
scalar MobileNetwork.host[35] coordX:vector:mean 102.74823248084
scalar MobileNetwork.host[35] coordX:vector:stddev 44.212319563191
scalar MobileNetwork.host[35] coordX:vector:min 11.308688059526
scalar MobileNetwork.host[35] coordX:vector:max 190.3648441923
scalar MobileNetwork.host[35] coordX:vector:starttime 0
scalar MobileNetwork.host[35] coordX:vector:endtime 900
scalar MobileNetwork.host[35] coordY:vector:count 9010
scalar MobileNetwork.host[35] coordY:vector:sum 1198217.994104
scalar MobileNetwork.host[35] coordY:vector:sumweights 9010
scalar MobileNetwork.host[35] coordY:vector:mean 132.98756871298
scalar MobileNetwork.host[35] coordY:vector:stddev 37.325296417495
scalar MobileNetwork.host[35] coordY:vector:min 62.381720839302
scalar MobileNetwork.host[35] coordY:vector:max 193.68773159901
scalar MobileNetwork.host[35] coordY:vector:starttime 0
scalar MobileNetwork.host[35] coordY:vector:endtime 900
scalar MobileNetwork.host[35] coordZ:vector:count 9010
scalar MobileNetwork.host[35] coordZ:vector:sum 0
scalar MobileNetwork.host[35] coordZ:vector:sumweights 9010
scalar MobileNetwork.host[35] coordZ:vector:mean 0
scalar MobileNetwork.host[35] coordZ:vector:stddev 0
scalar MobileNetwork.host[35] coordZ:vector:min 0
scalar MobileNetwork.host[35] coordZ:vector:max 0
scalar MobileNetwork.host[35] coordZ:vector:starttime 0
scalar MobileNetwork.host[35] coordZ:vector:endtime 900
scalar MobileNetwork.host[36] coordX:vector:count 9008
scalar MobileNetwork.host[36] coordX:vector:sum 1169276.472982
scalar MobileNetwork.host[36] coordX:vector:sumweights 9008
scalar MobileNetwork.host[36] coordX:vector:mean 129.80422657438
scalar MobileNetwork.host[36] coordX:vector:stddev 40.517125692264
scalar MobileNetwork.host[36] coordX:vector:min 54.792508766397
scalar MobileNetwork.host[36] coordX:vector:max 189.53168188337
scalar MobileNetwork.host[36] coordX:vector:starttime 0
scalar MobileNetwork.host[36] coordX:vector:endtime 900
scalar MobileNetwork.host[36] coordY:vector:count 9008
scalar MobileNetwork.host[36] coordY:vector:sum 866311.5369656
scalar MobileNetwork.host[36] coordY:vector:sumweights 9008
scalar MobileNetwork.host[36] coordY:vector:mean 96.171351794582
scalar MobileNetwork.host[36] coordY:vector:stddev 38.26640309977
scalar MobileNetwork.host[36] coordY:vector:min 15.154670951447
scalar MobileNetwork.host[36] coordY:vector:max 157.43913486941
scalar MobileNetwork.host[36] coordY:vector:starttime 0
scalar MobileNetwork.host[36] coordY:vector:endtime 900
scalar MobileNetwork.host[36] coordZ:vector:count 9008
scalar MobileNetwork.host[36] coordZ:vector:sum 0
scalar MobileNetwork.host[36] coordZ:vector:sumweights 9008
scalar MobileNetwork.host[36] coordZ:vector:mean 0
scalar MobileNetwork.host[36] coordZ:vector:stddev 0
scalar MobileNetwork.host[36] coordZ:vector:min 0
scalar MobileNetwork.host[36] coordZ:vector:max 0
scalar MobileNetwork.host[36] coordZ:vector:starttime 0
scalar MobileNetwork.host[36] coordZ:vector:endtime 900
scalar MobileNetwork.host[37] coordX:vector:count 9010
scalar MobileNetwork.host[37] coordX:vector:sum 336306.03275369
scalar MobileNetwork.host[37] coordX:vector:sumweights 9010
scalar MobileNetwork.host[37] coordX:vector:mean 37.325863790642
scalar MobileNetwork.host[37] coordX:vector:stddev 37.131467927748
scalar MobileNetwork.host[37] coordX:vector:min 7.2960128025618
scalar MobileNetwork.host[37] coordX:vector:max 128.62637099217
scalar MobileNetwork.host[37] coordX:vector:starttime 0
scalar MobileNetwork.host[37] coordX:vector:endtime 900
scalar MobileNetwork.host[37] coordY:vector:count 9010
scalar MobileNetwork.host[37] coordY:vector:sum 969839.76390553
scalar MobileNetwork.host[37] coordY:vector:sumweights 9010
scalar MobileNetwork.host[37] coordY:vector:mean 107.64037335245
scalar MobileNetwork.host[37] coordY:vector:stddev 47.324903946725
scalar MobileNetwork.host[37] coordY:vector:min 23.913420809004
scalar MobileNetwork.host[37] coordY:vector:max 189.73442933612
scalar MobileNetwork.host[37] coordY:vector:starttime 0
scalar MobileNetwork.host[37] coordY:vector:endtime 900
scalar MobileNetwork.host[37] coordZ:vector:count 9010
scalar MobileNetwork.host[37] coordZ:vector:sum 0
scalar MobileNetwork.host[37] coordZ:vector:sumweights 9010
scalar MobileNetwork.host[37] coordZ:vector:mean 0
scalar MobileNetwork.host[37] coordZ:vector:stddev 0
scalar MobileNetwork.host[37] coordZ:vector:min 0
scalar MobileNetwork.host[37] coordZ:vector:max 0
scalar MobileNetwork.host[37] coordZ:vector:starttime 0
scalar MobileNetwork.host[37] coordZ:vector:endtime 900
scalar MobileNetwork.host[38] coordX:vector:count 8987
scalar MobileNetwork.host[38] coordX:vector:sum 992952.15740527
scalar MobileNetwork.host[38] coordX:vector:sumweights 8987
scalar MobileNetwork.host[38] coordX:vector:mean 110.48761070494
scalar MobileNetwork.host[38] coordX:vector:stddev 44.831261171916
scalar MobileNetwork.host[38] coordX:vector:min 42.575086804681
scalar MobileNetwork.host[38] coordX:vector:max 184.9709847492
scalar MobileNetwork.host[38] coordX:vector:starttime 0
scalar MobileNetwork.host[38] coordX:vector:endtime 897.99401844055
scalar MobileNetwork.host[38] coordY:vector:count 8987
scalar MobileNetwork.host[38] coordY:vector:sum 996354.40098438
scalar MobileNetwork.host[38] coordY:vector:sumweights 8987
scalar MobileNetwork.host[38] coordY:vector:mean 110.86618459824
scalar MobileNetwork.host[38] coordY:vector:stddev 47.423791784951
scalar MobileNetwork.host[38] coordY:vector:min 28.262190464257
scalar MobileNetwork.host[38] coordY:vector:max 196.55624961186
scalar MobileNetwork.host[38] coordY:vector:starttime 0
scalar MobileNetwork.host[38] coordY:vector:endtime 897.99401844055
scalar MobileNetwork.host[38] coordZ:vector:count 8987
scalar MobileNetwork.host[38] coordZ:vector:sum 0
scalar MobileNetwork.host[38] coordZ:vector:sumweights 8987
scalar MobileNetwork.host[38] coordZ:vector:mean 0
scalar MobileNetwork.host[38] coordZ:vector:stddev 0
scalar MobileNetwork.host[38] coordZ:vector:min 0
scalar MobileNetwork.host[38] coordZ:vector:max 0
scalar MobileNetwork.host[38] coordZ:vector:starttime 0
scalar MobileNetwork.host[38] coordZ:vector:endtime 897.99401844055
scalar MobileNetwork.host[39] coordX:vector:count 9007
scalar MobileNetwork.host[39] coordX:vector:sum 919940.55752145
scalar MobileNetwork.host[39] coordX:vector:sumweights 9007
scalar MobileNetwork.host[39] coordX:vector:mean 102.13617825263
scalar MobileNetwork.host[39] coordX:vector:stddev 58.336698392183
scalar MobileNetwork.host[39] coordX:vector:min 2.8546521762289
scalar MobileNetwork.host[39] coordX:vector:max 195.28802676209
scalar MobileNetwork.host[39] coordX:vector:starttime 0
scalar MobileNetwork.host[39] coordX:vector:endtime 900
scalar MobileNetwork.host[39] coordY:vector:count 9007
scalar MobileNetwork.host[39] coordY:vector:sum 992448.79980954
scalar MobileNetwork.host[39] coordY:vector:sumweights 9007
scalar MobileNetwork.host[39] coordY:vector:mean 110.18638834346
scalar MobileNetwork.host[39] coordY:vector:stddev 32.818719345633
scalar MobileNetwork.host[39] coordY:vector:min 63.484075562651
scalar MobileNetwork.host[39] coordY:vector:max 161.74538459876
scalar MobileNetwork.host[39] coordY:vector:starttime 0
scalar MobileNetwork.host[39] coordY:vector:endtime 900
scalar MobileNetwork.host[39] coordZ:vector:count 9007
scalar MobileNetwork.host[39] coordZ:vector:sum 0
scalar MobileNetwork.host[39] coordZ:vector:sumweights 9007
scalar MobileNetwork.host[39] coordZ:vector:mean 0
scalar MobileNetwork.host[39] coordZ:vector:stddev 0
scalar MobileNetwork.host[39] coordZ:vector:min 0
scalar MobileNetwork.host[39] coordZ:vector:max 0
scalar MobileNetwork.host[39] coordZ:vector:starttime 0
scalar MobileNetwork.host[39] coordZ:vector:endtime 900
scalar MobileNetwork.host[40] coordX:vector:count 9009
scalar MobileNetwork.host[40] coordX:vector:sum 1072085.2572067
scalar MobileNetwork.host[40] coordX:vector:sumweights 9009
scalar MobileNetwork.host[40] coordX:vector:mean 119.00158255153
scalar MobileNetwork.host[40] coordX:vector:stddev 45.542012467558
scalar MobileNetwork.host[40] coordX:vector:min 39.60603279347
scalar MobileNetwork.host[40] coordX:vector:max 197.89172616147
scalar MobileNetwork.host[40] coordX:vector:starttime 0
scalar MobileNetwork.host[40] coordX:vector:endtime 900
scalar MobileNetwork.host[40] coordY:vector:count 9009
scalar MobileNetwork.host[40] coordY:vector:sum 1052049.605351
scalar MobileNetwork.host[40] coordY:vector:sumweights 9009
scalar MobileNetwork.host[40] coordY:vector:mean 116.77762297158
scalar MobileNetwork.host[40] coordY:vector:stddev 33.917478596492
scalar MobileNetwork.host[40] coordY:vector:min 39.778600473088
scalar MobileNetwork.host[40] coordY:vector:max 179.04628933461
scalar MobileNetwork.host[40] coordY:vector:starttime 0
scalar MobileNetwork.host[40] coordY:vector:endtime 900
scalar MobileNetwork.host[40] coordZ:vector:count 9009
scalar MobileNetwork.host[40] coordZ:vector:sum 0
scalar MobileNetwork.host[40] coordZ:vector:sumweights 9009
scalar MobileNetwork.host[40] coordZ:vector:mean 0
scalar MobileNetwork.host[40] coordZ:vector:stddev 0
scalar MobileNetwork.host[40] coordZ:vector:min 0
scalar MobileNetwork.host[40] coordZ:vector:max 0
scalar MobileNetwork.host[40] coordZ:vector:starttime 0
scalar MobileNetwork.host[40] coordZ:vector:endtime 900
scalar MobileNetwork.host[41] coordX:vector:count 9007
scalar MobileNetwork.host[41] coordX:vector:sum 780967.7314907
scalar MobileNetwork.host[41] coordX:vector:sumweights 9007
scalar MobileNetwork.host[41] coordX:vector:mean 86.706753801565
scalar MobileNetwork.host[41] coordX:vector:stddev 31.762762826293
scalar MobileNetwork.host[41] coordX:vector:min 33.2076910783
scalar MobileNetwork.host[41] coordX:vector:max 135.01852310891
scalar MobileNetwork.host[41] coordX:vector:starttime 0
scalar MobileNetwork.host[41] coordX:vector:endtime 900
scalar MobileNetwork.host[41] coordY:vector:count 9007
scalar MobileNetwork.host[41] coordY:vector:sum 705284.56129414
scalar MobileNetwork.host[41] coordY:vector:sumweights 9007
scalar MobileNetwork.host[41] coordY:vector:mean 78.304048106377
scalar MobileNetwork.host[41] coordY:vector:stddev 48.326593222479
scalar MobileNetwork.host[41] coordY:vector:min 8.2542084972652
scalar MobileNetwork.host[41] coordY:vector:max 162.10677541929
scalar MobileNetwork.host[41] coordY:vector:starttime 0
scalar MobileNetwork.host[41] coordY:vector:endtime 900
scalar MobileNetwork.host[41] coordZ:vector:count 9007
scalar MobileNetwork.host[41] coordZ:vector:sum 0
scalar MobileNetwork.host[41] coordZ:vector:sumweights 9007
scalar MobileNetwork.host[41] coordZ:vector:mean 0
scalar MobileNetwork.host[41] coordZ:vector:stddev 0
scalar MobileNetwork.host[41] coordZ:vector:min 0
scalar MobileNetwork.host[41] coordZ:vector:max 0
scalar MobileNetwork.host[41] coordZ:vector:starttime 0
scalar MobileNetwork.host[41] coordZ:vector:endtime 900
scalar MobileNetwork.host[42] coordX:vector:count 9009
scalar MobileNetwork.host[42] coordX:vector:sum 1069009.821983
scalar MobileNetwork.host[42] coordX:vector:sumweights 9009
scalar MobileNetwork.host[42] coordX:vector:mean 118.66020890033
scalar MobileNetwork.host[42] coordX:vector:stddev 62.47721052536
scalar MobileNetwork.host[42] coordX:vector:min 28.971417211501
scalar MobileNetwork.host[42] coordX:vector:max 198.06491271041
scalar MobileNetwork.host[42] coordX:vector:starttime 0
scalar MobileNetwork.host[42] coordX:vector:endtime 900
scalar MobileNetwork.host[42] coordY:vector:count 9009
scalar MobileNetwork.host[42] coordY:vector:sum 814787.87654245
scalar MobileNetwork.host[42] coordY:vector:sumweights 9009
scalar MobileNetwork.host[42] coordY:vector:mean 90.441544737757
scalar MobileNetwork.host[42] coordY:vector:stddev 53.663173837794
scalar MobileNetwork.host[42] coordY:vector:min 0.25687733825015
scalar MobileNetwork.host[42] coordY:vector:max 180.99406998459
scalar MobileNetwork.host[42] coordY:vector:starttime 0
scalar MobileNetwork.host[42] coordY:vector:endtime 900
scalar MobileNetwork.host[42] coordZ:vector:count 9009
scalar MobileNetwork.host[42] coordZ:vector:sum 0
scalar MobileNetwork.host[42] coordZ:vector:sumweights 9009
scalar MobileNetwork.host[42] coordZ:vector:mean 0
scalar MobileNetwork.host[42] coordZ:vector:stddev 0
scalar MobileNetwork.host[42] coordZ:vector:min 0
scalar MobileNetwork.host[42] coordZ:vector:max 0
scalar MobileNetwork.host[42] coordZ:vector:starttime 0
scalar MobileNetwork.host[42] coordZ:vector:endtime 900
scalar MobileNetwork.host[43] coordX:vector:count 9010
scalar MobileNetwork.host[43] coordX:vector:sum 778984.9178809
scalar MobileNetwork.host[43] coordX:vector:sumweights 9010
scalar MobileNetwork.host[43] coordX:vector:mean 86.457815525072
scalar MobileNetwork.host[43] coordX:vector:stddev 51.969392046049
scalar MobileNetwork.host[43] coordX:vector:min 4.9104825078431
scalar MobileNetwork.host[43] coordX:vector:max 194.7611444278
scalar MobileNetwork.host[43] coordX:vector:starttime 0
scalar MobileNetwork.host[43] coordX:vector:endtime 900
scalar MobileNetwork.host[43] coordY:vector:count 9010
scalar MobileNetwork.host[43] coordY:vector:sum 959722.00834343
scalar MobileNetwork.host[43] coordY:vector:sumweights 9010
scalar MobileNetwork.host[43] coordY:vector:mean 106.51742600926
scalar MobileNetwork.host[43] coordY:vector:stddev 51.553327311739
scalar MobileNetwork.host[43] coordY:vector:min 4.6449608213186
scalar MobileNetwork.host[43] coordY:vector:max 172.15188277035
scalar MobileNetwork.host[43] coordY:vector:starttime 0
scalar MobileNetwork.host[43] coordY:vector:endtime 900
scalar MobileNetwork.host[43] coordZ:vector:count 9010
scalar MobileNetwork.host[43] coordZ:vector:sum 0
scalar MobileNetwork.host[43] coordZ:vector:sumweights 9010
scalar MobileNetwork.host[43] coordZ:vector:mean 0
scalar MobileNetwork.host[43] coordZ:vector:stddev 0
scalar MobileNetwork.host[43] coordZ:vector:min 0
scalar MobileNetwork.host[43] coordZ:vector:max 0
scalar MobileNetwork.host[43] coordZ:vector:starttime 0
scalar MobileNetwork.host[43] coordZ:vector:endtime 900
scalar MobileNetwork.host[44] coordX:vector:count 9005
scalar MobileNetwork.host[44] coordX:vector:sum 950042.77392651
scalar MobileNetwork.host[44] coordX:vector:sumweights 9005
scalar MobileNetwork.host[44] coordX:vector:mean 105.50169616063
scalar MobileNetwork.host[44] coordX:vector:stddev 42.323127122054
scalar MobileNetwork.host[44] coordX:vector:min 19.517606662902
scalar MobileNetwork.host[44] coordX:vector:max 163.25170785661
scalar MobileNetwork.host[44] coordX:vector:starttime 0
scalar MobileNetwork.host[44] coordX:vector:endtime 900
scalar MobileNetwork.host[44] coordY:vector:count 9005
scalar MobileNetwork.host[44] coordY:vector:sum 879742.63135973
scalar MobileNetwork.host[44] coordY:vector:sumweights 9005
scalar MobileNetwork.host[44] coordY:vector:mean 97.69490631424
scalar MobileNetwork.host[44] coordY:vector:stddev 44.566552367137
scalar MobileNetwork.host[44] coordY:vector:min 32.898731718539
scalar MobileNetwork.host[44] coordY:vector:max 180.80578538679
scalar MobileNetwork.host[44] coordY:vector:starttime 0
scalar MobileNetwork.host[44] coordY:vector:endtime 900
scalar MobileNetwork.host[44] coordZ:vector:count 9005
scalar MobileNetwork.host[44] coordZ:vector:sum 0
scalar MobileNetwork.host[44] coordZ:vector:sumweights 9005
scalar MobileNetwork.host[44] coordZ:vector:mean 0
scalar MobileNetwork.host[44] coordZ:vector:stddev 0
scalar MobileNetwork.host[44] coordZ:vector:min 0
scalar MobileNetwork.host[44] coordZ:vector:max 0
scalar MobileNetwork.host[44] coordZ:vector:starttime 0
scalar MobileNetwork.host[44] coordZ:vector:endtime 900
scalar MobileNetwork.host[45] coordX:vector:count 9007
scalar MobileNetwork.host[45] coordX:vector:sum 410143.7380084
scalar MobileNetwork.host[45] coordX:vector:sumweights 9007
scalar MobileNetwork.host[45] coordX:vector:mean 45.536109471345
scalar MobileNetwork.host[45] coordX:vector:stddev 23.289586561189
scalar MobileNetwork.host[45] coordX:vector:min 4.6000639867523
scalar MobileNetwork.host[45] coordX:vector:max 80.34755436762
scalar MobileNetwork.host[45] coordX:vector:starttime 0
scalar MobileNetwork.host[45] coordX:vector:endtime 900
scalar MobileNetwork.host[45] coordY:vector:count 9007
scalar MobileNetwork.host[45] coordY:vector:sum 716376.50025078
scalar MobileNetwork.host[45] coordY:vector:sumweights 9007
scalar MobileNetwork.host[45] coordY:vector:mean 79.53552795057
scalar MobileNetwork.host[45] coordY:vector:stddev 43.325727386986
scalar MobileNetwork.host[45] coordY:vector:min 13.195594706797
scalar MobileNetwork.host[45] coordY:vector:max 149.70431320819
scalar MobileNetwork.host[45] coordY:vector:starttime 0
scalar MobileNetwork.host[45] coordY:vector:endtime 900
scalar MobileNetwork.host[45] coordZ:vector:count 9007
scalar MobileNetwork.host[45] coordZ:vector:sum 0
scalar MobileNetwork.host[45] coordZ:vector:sumweights 9007
scalar MobileNetwork.host[45] coordZ:vector:mean 0
scalar MobileNetwork.host[45] coordZ:vector:stddev 0
scalar MobileNetwork.host[45] coordZ:vector:min 0
scalar MobileNetwork.host[45] coordZ:vector:max 0
scalar MobileNetwork.host[45] coordZ:vector:starttime 0
scalar MobileNetwork.host[45] coordZ:vector:endtime 900
scalar MobileNetwork.host[46] coordX:vector:count 8912
scalar MobileNetwork.host[46] coordX:vector:sum 754976.6851038
scalar MobileNetwork.host[46] coordX:vector:sumweights 8912
scalar MobileNetwork.host[46] coordX:vector:mean 84.714619064609
scalar MobileNetwork.host[46] coordX:vector:stddev 44.447933955519
scalar MobileNetwork.host[46] coordX:vector:min 13.381063952722
scalar MobileNetwork.host[46] coordX:vector:max 191.13559225235
scalar MobileNetwork.host[46] coordX:vector:starttime 0
scalar MobileNetwork.host[46] coordX:vector:endtime 890.18831552423
scalar MobileNetwork.host[46] coordY:vector:count 8912
scalar MobileNetwork.host[46] coordY:vector:sum 979607.92145383
scalar MobileNetwork.host[46] coordY:vector:sumweights 8912
scalar MobileNetwork.host[46] coordY:vector:mean 109.9200989064
scalar MobileNetwork.host[46] coordY:vector:stddev 39.751695719495
scalar MobileNetwork.host[46] coordY:vector:min 26.690000378388
scalar MobileNetwork.host[46] coordY:vector:max 160.66460935949
scalar MobileNetwork.host[46] coordY:vector:starttime 0
scalar MobileNetwork.host[46] coordY:vector:endtime 890.18831552423
scalar MobileNetwork.host[46] coordZ:vector:count 8912
scalar MobileNetwork.host[46] coordZ:vector:sum 0
scalar MobileNetwork.host[46] coordZ:vector:sumweights 8912
scalar MobileNetwork.host[46] coordZ:vector:mean 0
scalar MobileNetwork.host[46] coordZ:vector:stddev 0
scalar MobileNetwork.host[46] coordZ:vector:min 0
scalar MobileNetwork.host[46] coordZ:vector:max 0
scalar MobileNetwork.host[46] coordZ:vector:starttime 0
scalar MobileNetwork.host[46] coordZ:vector:endtime 890.18831552423
scalar MobileNetwork.host[47] coordX:vector:count 9009
scalar MobileNetwork.host[47] coordX:vector:sum 927911.3072841
scalar MobileNetwork.host[47] coordX:vector:sumweights 9009
scalar MobileNetwork.host[47] coordX:vector:mean 102.99825810679
scalar MobileNetwork.host[47] coordX:vector:stddev 47.538551135064
scalar MobileNetwork.host[47] coordX:vector:min 16.93091491039
scalar MobileNetwork.host[47] coordX:vector:max 189.31817700153
scalar MobileNetwork.host[47] coordX:vector:starttime 0
scalar MobileNetwork.host[47] coordX:vector:endtime 900
scalar MobileNetwork.host[47] coordY:vector:count 9009
scalar MobileNetwork.host[47] coordY:vector:sum 1011784.7418428
scalar MobileNetwork.host[47] coordY:vector:sumweights 9009
scalar MobileNetwork.host[47] coordY:vector:mean 112.30821865277
scalar MobileNetwork.host[47] coordY:vector:stddev 45.498882643958
scalar MobileNetwork.host[47] coordY:vector:min 17.181148466802
scalar MobileNetwork.host[47] coordY:vector:max 170.19047696519
scalar MobileNetwork.host[47] coordY:vector:starttime 0
scalar MobileNetwork.host[47] coordY:vector:endtime 900
scalar MobileNetwork.host[47] coordZ:vector:count 9009
scalar MobileNetwork.host[47] coordZ:vector:sum 0
scalar MobileNetwork.host[47] coordZ:vector:sumweights 9009
scalar MobileNetwork.host[47] coordZ:vector:mean 0
scalar MobileNetwork.host[47] coordZ:vector:stddev 0
scalar MobileNetwork.host[47] coordZ:vector:min 0
scalar MobileNetwork.host[47] coordZ:vector:max 0
scalar MobileNetwork.host[47] coordZ:vector:starttime 0
scalar MobileNetwork.host[47] coordZ:vector:endtime 900
scalar MobileNetwork.host[48] coordX:vector:count 9009
scalar MobileNetwork.host[48] coordX:vector:sum 748954.46204603
scalar MobileNetwork.host[48] coordX:vector:sumweights 9009
scalar MobileNetwork.host[48] coordX:vector:mean 83.134028421138
scalar MobileNetwork.host[48] coordX:vector:stddev 40.065829578374
scalar MobileNetwork.host[48] coordX:vector:min 27.115607885697
scalar MobileNetwork.host[48] coordX:vector:max 149.73543409632
scalar MobileNetwork.host[48] coordX:vector:starttime 0
scalar MobileNetwork.host[48] coordX:vector:endtime 900
scalar MobileNetwork.host[48] coordY:vector:count 9009
scalar MobileNetwork.host[48] coordY:vector:sum 974541.00739974
scalar MobileNetwork.host[48] coordY:vector:sumweights 9009
scalar MobileNetwork.host[48] coordY:vector:mean 108.17415999553
scalar MobileNetwork.host[48] coordY:vector:stddev 47.70842051329
scalar MobileNetwork.host[48] coordY:vector:min 17.563738523067
scalar MobileNetwork.host[48] coordY:vector:max 189.33687891408
scalar MobileNetwork.host[48] coordY:vector:starttime 0
scalar MobileNetwork.host[48] coordY:vector:endtime 900
scalar MobileNetwork.host[48] coordZ:vector:count 9009
scalar MobileNetwork.host[48] coordZ:vector:sum 0
scalar MobileNetwork.host[48] coordZ:vector:sumweights 9009
scalar MobileNetwork.host[48] coordZ:vector:mean 0
scalar MobileNetwork.host[48] coordZ:vector:stddev 0
scalar MobileNetwork.host[48] coordZ:vector:min 0
scalar MobileNetwork.host[48] coordZ:vector:max 0
scalar MobileNetwork.host[48] coordZ:vector:starttime 0
scalar MobileNetwork.host[48] coordZ:vector:endtime 900
scalar MobileNetwork.host[49] coordX:vector:count 9007
scalar MobileNetwork.host[49] coordX:vector:sum 814415.9345156
scalar MobileNetwork.host[49] coordX:vector:sumweights 9007
scalar MobileNetwork.host[49] coordX:vector:mean 90.420332465371
scalar MobileNetwork.host[49] coordX:vector:stddev 55.60579798394
scalar MobileNetwork.host[49] coordX:vector:min 5.6997649021316
scalar MobileNetwork.host[49] coordX:vector:max 180.84787206992
scalar MobileNetwork.host[49] coordX:vector:starttime 0
scalar MobileNetwork.host[49] coordX:vector:endtime 900
scalar MobileNetwork.host[49] coordY:vector:count 9007
scalar MobileNetwork.host[49] coordY:vector:sum 1185697.7509402
scalar MobileNetwork.host[49] coordY:vector:sumweights 9007
scalar MobileNetwork.host[49] coordY:vector:mean 131.6418064772
scalar MobileNetwork.host[49] coordY:vector:stddev 21.446682749359
scalar MobileNetwork.host[49] coordY:vector:min 76.931544860199
scalar MobileNetwork.host[49] coordY:vector:max 168.1687109914
scalar MobileNetwork.host[49] coordY:vector:starttime 0
[...]
scalar MobileNetwork.host[87] coordY:vector:sumweights 9008
scalar MobileNetwork.host[87] coordY:vector:mean 104.03206656403
scalar MobileNetwork.host[87] coordY:vector:stddev 38.195798833627
scalar MobileNetwork.host[87] coordY:vector:min 46.879850981508
scalar MobileNetwork.host[87] coordY:vector:max 169.82179431021
scalar MobileNetwork.host[87] coordY:vector:starttime 0
scalar MobileNetwork.host[87] coordY:vector:endtime 900
scalar MobileNetwork.host[87] coordZ:vector:count 9008
scalar MobileNetwork.host[87] coordZ:vector:sum 0
scalar MobileNetwork.host[87] coordZ:vector:sumweights 9008
scalar MobileNetwork.host[87] coordZ:vector:mean 0
scalar MobileNetwork.host[87] coordZ:vector:stddev 0
scalar MobileNetwork.host[87] coordZ:vector:min 0
scalar MobileNetwork.host[87] coordZ:vector:max 0
scalar MobileNetwork.host[87] coordZ:vector:starttime 0
scalar MobileNetwork.host[87] coordZ:vector:endtime 900
scalar MobileNetwork.host[88] coordX:vector:count 9009
scalar MobileNetwork.host[88] coordX:vector:sum 1414250.8857448
scalar MobileNetwork.host[88] coordX:vector:sumweights 9009
scalar MobileNetwork.host[88] coordX:vector:mean 156.98200529968
scalar MobileNetwork.host[88] coordX:vector:stddev 27.632745766013
scalar MobileNetwork.host[88] coordX:vector:min 107.39657598338
scalar MobileNetwork.host[88] coordX:vector:max 195.79546225229
scalar MobileNetwork.host[88] coordX:vector:starttime 0
scalar MobileNetwork.host[88] coordX:vector:endtime 900
scalar MobileNetwork.host[88] coordY:vector:count 9009
scalar MobileNetwork.host[88] coordY:vector:sum 727649.60613094
scalar MobileNetwork.host[88] coordY:vector:sumweights 9009
scalar MobileNetwork.host[88] coordY:vector:mean 80.769187049722
scalar MobileNetwork.host[88] coordY:vector:stddev 41.048520117841
scalar MobileNetwork.host[88] coordY:vector:min 7.9768519472905
scalar MobileNetwork.host[88] coordY:vector:max 146.94925620063
scalar MobileNetwork.host[88] coordY:vector:starttime 0
scalar MobileNetwork.host[88] coordY:vector:endtime 900
scalar MobileNetwork.host[88] coordZ:vector:count 9009
scalar MobileNetwork.host[88] coordZ:vector:sum 0
scalar MobileNetwork.host[88] coordZ:vector:sumweights 9009
scalar MobileNetwork.host[88] coordZ:vector:mean 0
scalar MobileNetwork.host[88] coordZ:vector:stddev 0
scalar MobileNetwork.host[88] coordZ:vector:min 0
scalar MobileNetwork.host[88] coordZ:vector:max 0
scalar MobileNetwork.host[88] coordZ:vector:starttime 0
scalar MobileNetwork.host[88] coordZ:vector:endtime 900
scalar MobileNetwork.host[89] coordX:vector:count 9007
scalar MobileNetwork.host[89] coordX:vector:sum 1072138.0330398
scalar MobileNetwork.host[89] coordX:vector:sumweights 9007
scalar MobileNetwork.host[89] coordX:vector:mean 119.03386621958
scalar MobileNetwork.host[89] coordX:vector:stddev 47.82964039238
scalar MobileNetwork.host[89] coordX:vector:min 37.824902292274
scalar MobileNetwork.host[89] coordX:vector:max 182.92969220362
scalar MobileNetwork.host[89] coordX:vector:starttime 0
scalar MobileNetwork.host[89] coordX:vector:endtime 900
scalar MobileNetwork.host[89] coordY:vector:count 9007
scalar MobileNetwork.host[89] coordY:vector:sum 998204.87448981
scalar MobileNetwork.host[89] coordY:vector:sumweights 9007
scalar MobileNetwork.host[89] coordY:vector:mean 110.82545514487
scalar MobileNetwork.host[89] coordY:vector:stddev 49.430931514797
scalar MobileNetwork.host[89] coordY:vector:min 2.7791507506137
scalar MobileNetwork.host[89] coordY:vector:max 183.2616500985
scalar MobileNetwork.host[89] coordY:vector:starttime 0
scalar MobileNetwork.host[89] coordY:vector:endtime 900
scalar MobileNetwork.host[89] coordZ:vector:count 9007
scalar MobileNetwork.host[89] coordZ:vector:sum 0
scalar MobileNetwork.host[89] coordZ:vector:sumweights 9007
scalar MobileNetwork.host[89] coordZ:vector:mean 0
scalar MobileNetwork.host[89] coordZ:vector:stddev 0
scalar MobileNetwork.host[89] coordZ:vector:min 0
scalar MobileNetwork.host[89] coordZ:vector:max 0
scalar MobileNetwork.host[89] coordZ:vector:starttime 0
scalar MobileNetwork.host[89] coordZ:vector:endtime 900
scalar MobileNetwork.host[90] coordX:vector:count 9007
scalar MobileNetwork.host[90] coordX:vector:sum 888411.43183387
scalar MobileNetwork.host[90] coordX:vector:sumweights 9007
scalar MobileNetwork.host[90] coordX:vector:mean 98.635664686785
scalar MobileNetwork.host[90] coordX:vector:stddev 41.033639903954
scalar MobileNetwork.host[90] coordX:vector:min 25.776457154313
scalar MobileNetwork.host[90] coordX:vector:max 171.89989005524
scalar MobileNetwork.host[90] coordX:vector:starttime 0
scalar MobileNetwork.host[90] coordX:vector:endtime 900
scalar MobileNetwork.host[90] coordY:vector:count 9007
scalar MobileNetwork.host[90] coordY:vector:sum 1148183.2468599
scalar MobileNetwork.host[90] coordY:vector:sumweights 9007
scalar MobileNetwork.host[90] coordY:vector:mean 127.47676772066
scalar MobileNetwork.host[90] coordY:vector:stddev 51.290688253899
scalar MobileNetwork.host[90] coordY:vector:min 28.234839632667
scalar MobileNetwork.host[90] coordY:vector:max 192.40889012614
scalar MobileNetwork.host[90] coordY:vector:starttime 0
scalar MobileNetwork.host[90] coordY:vector:endtime 900
scalar MobileNetwork.host[90] coordZ:vector:count 9007
scalar MobileNetwork.host[90] coordZ:vector:sum 0
scalar MobileNetwork.host[90] coordZ:vector:sumweights 9007
scalar MobileNetwork.host[90] coordZ:vector:mean 0
scalar MobileNetwork.host[90] coordZ:vector:stddev 0
scalar MobileNetwork.host[90] coordZ:vector:min 0
scalar MobileNetwork.host[90] coordZ:vector:max 0
scalar MobileNetwork.host[90] coordZ:vector:starttime 0
scalar MobileNetwork.host[90] coordZ:vector:endtime 900
scalar MobileNetwork.host[91] coordX:vector:count 9009
scalar MobileNetwork.host[91] coordX:vector:sum 702609.61327503
scalar MobileNetwork.host[91] coordX:vector:sumweights 9009
scalar MobileNetwork.host[91] coordX:vector:mean 77.989745063273
scalar MobileNetwork.host[91] coordX:vector:stddev 45.099995001519
scalar MobileNetwork.host[91] coordX:vector:min 0.1475608024492
scalar MobileNetwork.host[91] coordX:vector:max 155.02567828082
scalar MobileNetwork.host[91] coordX:vector:starttime 0
scalar MobileNetwork.host[91] coordX:vector:endtime 900
scalar MobileNetwork.host[91] coordY:vector:count 9009
scalar MobileNetwork.host[91] coordY:vector:sum 748304.96074479
scalar MobileNetwork.host[91] coordY:vector:sumweights 9009
scalar MobileNetwork.host[91] coordY:vector:mean 83.061933704606
scalar MobileNetwork.host[91] coordY:vector:stddev 42.206974998562
scalar MobileNetwork.host[91] coordY:vector:min 11.484160892033
scalar MobileNetwork.host[91] coordY:vector:max 148.33907375972
scalar MobileNetwork.host[91] coordY:vector:starttime 0
scalar MobileNetwork.host[91] coordY:vector:endtime 900
scalar MobileNetwork.host[91] coordZ:vector:count 9009
scalar MobileNetwork.host[91] coordZ:vector:sum 0
scalar MobileNetwork.host[91] coordZ:vector:sumweights 9009
scalar MobileNetwork.host[91] coordZ:vector:mean 0
scalar MobileNetwork.host[91] coordZ:vector:stddev 0
scalar MobileNetwork.host[91] coordZ:vector:min 0
scalar MobileNetwork.host[91] coordZ:vector:max 0
scalar MobileNetwork.host[91] coordZ:vector:starttime 0
scalar MobileNetwork.host[91] coordZ:vector:endtime 900
scalar MobileNetwork.host[92] coordX:vector:count 9007
scalar MobileNetwork.host[92] coordX:vector:sum 1000553.4513069
scalar MobileNetwork.host[92] coordX:vector:sumweights 9007
scalar MobileNetwork.host[92] coordX:vector:mean 111.08620531886
scalar MobileNetwork.host[92] coordX:vector:stddev 56.960894559748
scalar MobileNetwork.host[92] coordX:vector:min 1.9341469499619
scalar MobileNetwork.host[92] coordX:vector:max 189.24772246694
scalar MobileNetwork.host[92] coordX:vector:starttime 0
scalar MobileNetwork.host[92] coordX:vector:endtime 900
scalar MobileNetwork.host[92] coordY:vector:count 9007
scalar MobileNetwork.host[92] coordY:vector:sum 1174674.1210372
scalar MobileNetwork.host[92] coordY:vector:sumweights 9007
scalar MobileNetwork.host[92] coordY:vector:mean 130.4179106292
scalar MobileNetwork.host[92] coordY:vector:stddev 53.168265139685
scalar MobileNetwork.host[92] coordY:vector:min 18.78941037696
scalar MobileNetwork.host[92] coordY:vector:max 194.26812751684
scalar MobileNetwork.host[92] coordY:vector:starttime 0
scalar MobileNetwork.host[92] coordY:vector:endtime 900
scalar MobileNetwork.host[92] coordZ:vector:count 9007
scalar MobileNetwork.host[92] coordZ:vector:sum 0
scalar MobileNetwork.host[92] coordZ:vector:sumweights 9007
scalar MobileNetwork.host[92] coordZ:vector:mean 0
scalar MobileNetwork.host[92] coordZ:vector:stddev 0
scalar MobileNetwork.host[92] coordZ:vector:min 0
scalar MobileNetwork.host[92] coordZ:vector:max 0
scalar MobileNetwork.host[92] coordZ:vector:starttime 0
scalar MobileNetwork.host[92] coordZ:vector:endtime 900
scalar MobileNetwork.host[93] coordX:vector:count 8709
scalar MobileNetwork.host[93] coordX:vector:sum 688595.35898075
scalar MobileNetwork.host[93] coordX:vector:sumweights 8709
scalar MobileNetwork.host[93] coordX:vector:mean 79.067098286916
scalar MobileNetwork.host[93] coordX:vector:stddev 59.726199594063
scalar MobileNetwork.host[93] coordX:vector:min 8.4394715904053
scalar MobileNetwork.host[93] coordX:vector:max 193.93081359444
scalar MobileNetwork.host[93] coordX:vector:starttime 0
scalar MobileNetwork.host[93] coordX:vector:endtime 870.04826008356
scalar MobileNetwork.host[93] coordY:vector:count 8709
scalar MobileNetwork.host[93] coordY:vector:sum 1287344.8279865
scalar MobileNetwork.host[93] coordY:vector:sumweights 8709
scalar MobileNetwork.host[93] coordY:vector:mean 147.81775496458
scalar MobileNetwork.host[93] coordY:vector:stddev 21.028406896644
scalar MobileNetwork.host[93] coordY:vector:min 91.151242044463
scalar MobileNetwork.host[93] coordY:vector:max 198.22135293591
scalar MobileNetwork.host[93] coordY:vector:starttime 0
scalar MobileNetwork.host[93] coordY:vector:endtime 870.04826008356
scalar MobileNetwork.host[93] coordZ:vector:count 8709
scalar MobileNetwork.host[93] coordZ:vector:sum 0
scalar MobileNetwork.host[93] coordZ:vector:sumweights 8709
scalar MobileNetwork.host[93] coordZ:vector:mean 0
scalar MobileNetwork.host[93] coordZ:vector:stddev 0
scalar MobileNetwork.host[93] coordZ:vector:min 0
scalar MobileNetwork.host[93] coordZ:vector:max 0
scalar MobileNetwork.host[93] coordZ:vector:starttime 0
scalar MobileNetwork.host[93] coordZ:vector:endtime 870.04826008356
scalar MobileNetwork.host[94] coordX:vector:count 8513
scalar MobileNetwork.host[94] coordX:vector:sum 663007.168902
scalar MobileNetwork.host[94] coordX:vector:sumweights 8513
scalar MobileNetwork.host[94] coordX:vector:mean 77.881730165865
scalar MobileNetwork.host[94] coordX:vector:stddev 36.389183612595
scalar MobileNetwork.host[94] coordX:vector:min 26.549312557184
scalar MobileNetwork.host[94] coordX:vector:max 161.93299207634
scalar MobileNetwork.host[94] coordX:vector:starttime 0
scalar MobileNetwork.host[94] coordX:vector:endtime 850.55350472606
scalar MobileNetwork.host[94] coordY:vector:count 8513
scalar MobileNetwork.host[94] coordY:vector:sum 620030.95907118
scalar MobileNetwork.host[94] coordY:vector:sumweights 8513
scalar MobileNetwork.host[94] coordY:vector:mean 72.833426415033
scalar MobileNetwork.host[94] coordY:vector:stddev 48.528151924913
scalar MobileNetwork.host[94] coordY:vector:min 0.014344712863212
scalar MobileNetwork.host[94] coordY:vector:max 155.55880839096
scalar MobileNetwork.host[94] coordY:vector:starttime 0
scalar MobileNetwork.host[94] coordY:vector:endtime 850.55350472606
scalar MobileNetwork.host[94] coordZ:vector:count 8513
scalar MobileNetwork.host[94] coordZ:vector:sum 0
scalar MobileNetwork.host[94] coordZ:vector:sumweights 8513
scalar MobileNetwork.host[94] coordZ:vector:mean 0
scalar MobileNetwork.host[94] coordZ:vector:stddev 0
scalar MobileNetwork.host[94] coordZ:vector:min 0
scalar MobileNetwork.host[94] coordZ:vector:max 0
scalar MobileNetwork.host[94] coordZ:vector:starttime 0
scalar MobileNetwork.host[94] coordZ:vector:endtime 850.55350472606
scalar MobileNetwork.host[95] coordX:vector:count 9004
scalar MobileNetwork.host[95] coordX:vector:sum 1250306.9434316
scalar MobileNetwork.host[95] coordX:vector:sumweights 9004
scalar MobileNetwork.host[95] coordX:vector:mean 138.86127759125
scalar MobileNetwork.host[95] coordX:vector:stddev 23.940547771583
scalar MobileNetwork.host[95] coordX:vector:min 74.975080004618
scalar MobileNetwork.host[95] coordX:vector:max 177.18360257442
scalar MobileNetwork.host[95] coordX:vector:starttime 0
scalar MobileNetwork.host[95] coordX:vector:endtime 900
scalar MobileNetwork.host[95] coordY:vector:count 9004
scalar MobileNetwork.host[95] coordY:vector:sum 959119.55342112
scalar MobileNetwork.host[95] coordY:vector:sumweights 9004
scalar MobileNetwork.host[95] coordY:vector:mean 106.52149638173
scalar MobileNetwork.host[95] coordY:vector:stddev 44.928742310081
scalar MobileNetwork.host[95] coordY:vector:min 11.89194810439
scalar MobileNetwork.host[95] coordY:vector:max 159.77499934857
scalar MobileNetwork.host[95] coordY:vector:starttime 0
scalar MobileNetwork.host[95] coordY:vector:endtime 900
scalar MobileNetwork.host[95] coordZ:vector:count 9004
scalar MobileNetwork.host[95] coordZ:vector:sum 0
scalar MobileNetwork.host[95] coordZ:vector:sumweights 9004
scalar MobileNetwork.host[95] coordZ:vector:mean 0
scalar MobileNetwork.host[95] coordZ:vector:stddev 0
scalar MobileNetwork.host[95] coordZ:vector:min 0
scalar MobileNetwork.host[95] coordZ:vector:max 0
scalar MobileNetwork.host[95] coordZ:vector:starttime 0
scalar MobileNetwork.host[95] coordZ:vector:endtime 900
scalar MobileNetwork.host[96] coordX:vector:count 9009
scalar MobileNetwork.host[96] coordX:vector:sum 1050957.1656744
scalar MobileNetwork.host[96] coordX:vector:sumweights 9009
scalar MobileNetwork.host[96] coordX:vector:mean 116.65636204622
scalar MobileNetwork.host[96] coordX:vector:stddev 50.86389036589
scalar MobileNetwork.host[96] coordX:vector:min 32.912275907246
scalar MobileNetwork.host[96] coordX:vector:max 179.89986297084
scalar MobileNetwork.host[96] coordX:vector:starttime 0
scalar MobileNetwork.host[96] coordX:vector:endtime 900
scalar MobileNetwork.host[96] coordY:vector:count 9009
scalar MobileNetwork.host[96] coordY:vector:sum 1139153.4792465
scalar MobileNetwork.host[96] coordY:vector:sumweights 9009
scalar MobileNetwork.host[96] coordY:vector:mean 126.44616264252
scalar MobileNetwork.host[96] coordY:vector:stddev 49.641923267169
scalar MobileNetwork.host[96] coordY:vector:min 34.326103284015
scalar MobileNetwork.host[96] coordY:vector:max 185.74365524509
scalar MobileNetwork.host[96] coordY:vector:starttime 0
scalar MobileNetwork.host[96] coordY:vector:endtime 900
scalar MobileNetwork.host[96] coordZ:vector:count 9009
scalar MobileNetwork.host[96] coordZ:vector:sum 0
scalar MobileNetwork.host[96] coordZ:vector:sumweights 9009
scalar MobileNetwork.host[96] coordZ:vector:mean 0
scalar MobileNetwork.host[96] coordZ:vector:stddev 0
scalar MobileNetwork.host[96] coordZ:vector:min 0
scalar MobileNetwork.host[96] coordZ:vector:max 0
scalar MobileNetwork.host[96] coordZ:vector:starttime 0
scalar MobileNetwork.host[96] coordZ:vector:endtime 900
scalar MobileNetwork.host[97] coordX:vector:count 9009
scalar MobileNetwork.host[97] coordX:vector:sum 609091.45171839
scalar MobileNetwork.host[97] coordX:vector:sumweights 9009
scalar MobileNetwork.host[97] coordX:vector:mean 67.60921874996
scalar MobileNetwork.host[97] coordX:vector:stddev 39.795447262457
scalar MobileNetwork.host[97] coordX:vector:min 8.6336337055569
scalar MobileNetwork.host[97] coordX:vector:max 155.18273167705
scalar MobileNetwork.host[97] coordX:vector:starttime 0
scalar MobileNetwork.host[97] coordX:vector:endtime 900
scalar MobileNetwork.host[97] coordY:vector:count 9009
scalar MobileNetwork.host[97] coordY:vector:sum 932389.06424598
scalar MobileNetwork.host[97] coordY:vector:sumweights 9009
scalar MobileNetwork.host[97] coordY:vector:mean 103.49528962659
scalar MobileNetwork.host[97] coordY:vector:stddev 39.482810417214
scalar MobileNetwork.host[97] coordY:vector:min 61.108777329456
scalar MobileNetwork.host[97] coordY:vector:max 190.76022130444
scalar MobileNetwork.host[97] coordY:vector:starttime 0
scalar MobileNetwork.host[97] coordY:vector:endtime 900
scalar MobileNetwork.host[97] coordZ:vector:count 9009
scalar MobileNetwork.host[97] coordZ:vector:sum 0
scalar MobileNetwork.host[97] coordZ:vector:sumweights 9009
scalar MobileNetwork.host[97] coordZ:vector:mean 0
scalar MobileNetwork.host[97] coordZ:vector:stddev 0
scalar MobileNetwork.host[97] coordZ:vector:min 0
scalar MobileNetwork.host[97] coordZ:vector:max 0
scalar MobileNetwork.host[97] coordZ:vector:starttime 0
scalar MobileNetwork.host[97] coordZ:vector:endtime 900
scalar MobileNetwork.host[98] coordX:vector:count 9008
scalar MobileNetwork.host[98] coordX:vector:sum 862348.49779267
scalar MobileNetwork.host[98] coordX:vector:sumweights 9008
scalar MobileNetwork.host[98] coordX:vector:mean 95.731405172365
scalar MobileNetwork.host[98] coordX:vector:stddev 55.730989579679
scalar MobileNetwork.host[98] coordX:vector:min 1.4629306541708
scalar MobileNetwork.host[98] coordX:vector:max 180.10752006756
scalar MobileNetwork.host[98] coordX:vector:starttime 0
scalar MobileNetwork.host[98] coordX:vector:endtime 900
scalar MobileNetwork.host[98] coordY:vector:count 9008
scalar MobileNetwork.host[98] coordY:vector:sum 870731.09864183
scalar MobileNetwork.host[98] coordY:vector:sumweights 9008
scalar MobileNetwork.host[98] coordY:vector:mean 96.661978090789
scalar MobileNetwork.host[98] coordY:vector:stddev 40.496144528211
scalar MobileNetwork.host[98] coordY:vector:min 30.76320373116
scalar MobileNetwork.host[98] coordY:vector:max 197.66041928048
scalar MobileNetwork.host[98] coordY:vector:starttime 0
scalar MobileNetwork.host[98] coordY:vector:endtime 900
scalar MobileNetwork.host[98] coordZ:vector:count 9008
scalar MobileNetwork.host[98] coordZ:vector:sum 0
scalar MobileNetwork.host[98] coordZ:vector:sumweights 9008
scalar MobileNetwork.host[98] coordZ:vector:mean 0
scalar MobileNetwork.host[98] coordZ:vector:stddev 0
scalar MobileNetwork.host[98] coordZ:vector:min 0
scalar MobileNetwork.host[98] coordZ:vector:max 0
scalar MobileNetwork.host[98] coordZ:vector:starttime 0
scalar MobileNetwork.host[98] coordZ:vector:endtime 900
scalar MobileNetwork.host[99] coordX:vector:count 9010
scalar MobileNetwork.host[99] coordX:vector:sum 1333603.5487073
scalar MobileNetwork.host[99] coordX:vector:sumweights 9010
scalar MobileNetwork.host[99] coordX:vector:mean 148.01371239814
scalar MobileNetwork.host[99] coordX:vector:stddev 30.654141347162
scalar MobileNetwork.host[99] coordX:vector:min 68.377281047602
scalar MobileNetwork.host[99] coordX:vector:max 195.43363623539
scalar MobileNetwork.host[99] coordX:vector:starttime 0
scalar MobileNetwork.host[99] coordX:vector:endtime 900
scalar MobileNetwork.host[99] coordY:vector:count 9010
scalar MobileNetwork.host[99] coordY:vector:sum 871941.45871955
scalar MobileNetwork.host[99] coordY:vector:sumweights 9010
scalar MobileNetwork.host[99] coordY:vector:mean 96.774856683635
scalar MobileNetwork.host[99] coordY:vector:stddev 44.884884010872
scalar MobileNetwork.host[99] coordY:vector:min 9.5190582537429
scalar MobileNetwork.host[99] coordY:vector:max 169.73995779705
scalar MobileNetwork.host[99] coordY:vector:starttime 0
scalar MobileNetwork.host[99] coordY:vector:endtime 900
scalar MobileNetwork.host[99] coordZ:vector:count 9010
scalar MobileNetwork.host[99] coordZ:vector:sum 0
scalar MobileNetwork.host[99] coordZ:vector:sumweights 9010
scalar MobileNetwork.host[99] coordZ:vector:mean 0
scalar MobileNetwork.host[99] coordZ:vector:stddev 0
scalar MobileNetwork.host[99] coordZ:vector:min 0
scalar MobileNetwork.host[99] coordZ:vector:max 0
scalar MobileNetwork.host[99] coordZ:vector:starttime 0
scalar MobileNetwork.host[99] coordZ:vector:endtime 900

