version 3
run GaussMarkovMobility-0-20260430-09:18:47-1846318
attr configname GaussMarkovMobility
attr datetime 20260430-09:18:47
attr datetimef 20260430-091847
attr experiment GaussMarkovMobility
attr inifile omnetpp.ini
attr iterationvars ""
attr iterationvarsd ""
attr iterationvarsf ""
attr measurement ""
attr network MobileNetwork
attr processid 1846318
attr repetition 0
attr replication #0
attr resultdir results
attr runnumber 0
attr seedset 0
config **.param-recording false
config image-path /home/zoli/Projects/OMNET/inet/images
config output-scalar-file results/omnetpp.ini-GaussMarkovMobility-#0.sca
config output-scalar-precision 17
config output-vector-file results/omnetpp.ini-GaussMarkovMobility-#0.vec
config output-vector-precision 17
config record-eventlog false
config sim-time-limit 1000s
config extends "MobileNetwork, Area, Update"
config *.numHosts 1
config **.host[*].mobility.typename GaussMarkovMobility
config **.host[*].mobility.alpha 0.9
config **.host[*].mobility.speed 10mps
config **.host[*].mobility.speedStdDev 40mps
config **.host[*].mobility.angle 0deg
config **.host[*].mobility.angleStdDev 40deg
config **.host[*].mobility.margin 30m
config network MobileNetwork
config *.numHosts 2
config **.constraintAreaMinX 0m
config **.constraintAreaMinY 0m
config **.constraintAreaMinZ 0m
config **.constraintAreaMaxX 600m
config **.constraintAreaMaxY 600m
config **.constraintAreaMaxZ 0m
config **.updateInterval 0.1s
config sim-time-limit 1000s

scalar MobileNetwork.host[0] coordX:vector:count 10001
scalar MobileNetwork.host[0] coordX:vector:sum 3350953.4178621089
scalar MobileNetwork.host[0] coordX:vector:sumweights 10001
scalar MobileNetwork.host[0] coordX:vector:mean 335.0618356026506
scalar MobileNetwork.host[0] coordX:vector:stddev 206.80471339805914
scalar MobileNetwork.host[0] coordX:vector:min 0.023334487267675286
scalar MobileNetwork.host[0] coordX:vector:max 599.990766293251
scalar MobileNetwork.host[0] coordX:vector:starttime 0
scalar MobileNetwork.host[0] coordX:vector:endtime 1000
scalar MobileNetwork.host[0] coordY:vector:count 10001
scalar MobileNetwork.host[0] coordY:vector:sum 4079338.4143220093
scalar MobileNetwork.host[0] coordY:vector:sumweights 10001
scalar MobileNetwork.host[0] coordY:vector:mean 407.89305212698821
scalar MobileNetwork.host[0] coordY:vector:stddev 87.282509081080221
scalar MobileNetwork.host[0] coordY:vector:min 180.83969749001483
scalar MobileNetwork.host[0] coordY:vector:max 599.9840844803764
scalar MobileNetwork.host[0] coordY:vector:starttime 0
scalar MobileNetwork.host[0] coordY:vector:endtime 1000
scalar MobileNetwork.host[0] coordZ:vector:count 10001
scalar MobileNetwork.host[0] coordZ:vector:sum 0
scalar MobileNetwork.host[0] coordZ:vector:sumweights 10001
scalar MobileNetwork.host[0] coordZ:vector:mean 0
scalar MobileNetwork.host[0] coordZ:vector:stddev 0
scalar MobileNetwork.host[0] coordZ:vector:min 0
scalar MobileNetwork.host[0] coordZ:vector:max 0
scalar MobileNetwork.host[0] coordZ:vector:starttime 0
scalar MobileNetwork.host[0] coordZ:vector:endtime 1000

