version 3
run AttachedMobility-0-20260430-09:18:41-1846238
attr configname AttachedMobility
attr datetime 20260430-09:18:41
attr datetimef 20260430-091841
attr experiment AttachedMobility
attr inifile omnetpp.ini
attr iterationvars ""
attr iterationvarsd ""
attr iterationvarsf ""
attr measurement ""
attr network MobileNetwork
attr processid 1846238
attr repetition 0
attr replication #0
attr resultdir results
attr runnumber 0
attr seedset 0
config **.param-recording false
config image-path /home/zoli/Projects/OMNET/inet/images
config output-scalar-file results/omnetpp.ini-AttachedMobility-#0.sca
config output-scalar-precision 17
config output-vector-file results/omnetpp.ini-AttachedMobility-#0.vec
config output-vector-precision 17
config record-eventlog false
config sim-time-limit 1000s
config extends "MobileNetwork, Area, Update"
config description attached
config *.numHosts 3
config *.hasVisualizer true
config *.visualizer.mobilityVisualizer.moduleFilter "\"**.mobility\""
config *.visualizer.mobilityVisualizer.displayMovementTrails true
config *.visualizer.mobilityVisualizer.displayOrientations true
config *.visualizer.mobilityVisualizer.displayVelocities true
config **.host[0].mobility.typename CircleMobility
config **.host[0].mobility.cx 300m
config **.host[0].mobility.cy 200m
config **.host[0].mobility.r 150m
config **.host[0].mobility.speed 40mps
config **.host[*].mobility.typename AttachedMobility
config **.host[*].mobility.mobilityModule "\"^.^.host[0].mobility\""
config **.host[1].mobility.offsetX 50m
config **.host[1].mobility.offsetHeading 90deg
config **.host[2].mobility.offsetX -50m
config **.host[2].mobility.offsetHeading -90deg
config network MobileNetwork
config *.numHosts 2
config **.constraintAreaMinX 0m
config **.constraintAreaMinY 0m
config **.constraintAreaMinZ 0m
config **.constraintAreaMaxX 600m
config **.constraintAreaMaxY 600m
config **.constraintAreaMaxZ 0m
config **.updateInterval 0.1s
config sim-time-limit 1000s

scalar MobileNetwork.host[0] coordX:vector:count 10001
scalar MobileNetwork.host[0] coordX:vector:sum 3001653.0141557944
scalar MobileNetwork.host[0] coordX:vector:sumweights 10001
scalar MobileNetwork.host[0] coordX:vector:mean 300.13528788679076
scalar MobileNetwork.host[0] coordX:vector:stddev 106.00649234235804
scalar MobileNetwork.host[0] coordX:vector:min 150.00001229788472
scalar MobileNetwork.host[0] coordX:vector:max 449.99999358142691
scalar MobileNetwork.host[0] coordX:vector:starttime 0
scalar MobileNetwork.host[0] coordX:vector:endtime 1000
scalar MobileNetwork.host[0] coordY:vector:count 10001
scalar MobileNetwork.host[0] coordY:vector:sum 1989196.6660945667
scalar MobileNetwork.host[0] coordY:vector:sumweights 10001
scalar MobileNetwork.host[0] coordY:vector:mean 198.89977663179349
scalar MobileNetwork.host[0] coordY:vector:stddev 106.13031925005168
scalar MobileNetwork.host[0] coordY:vector:min 50.000009121379406
scalar MobileNetwork.host[0] coordY:vector:max 349.9999958105343
scalar MobileNetwork.host[0] coordY:vector:starttime 0
scalar MobileNetwork.host[0] coordY:vector:endtime 1000
scalar MobileNetwork.host[0] coordZ:vector:count 10001
scalar MobileNetwork.host[0] coordZ:vector:sum 0
scalar MobileNetwork.host[0] coordZ:vector:sumweights 10001
scalar MobileNetwork.host[0] coordZ:vector:mean 0
scalar MobileNetwork.host[0] coordZ:vector:stddev 0
scalar MobileNetwork.host[0] coordZ:vector:min 0
scalar MobileNetwork.host[0] coordZ:vector:max 0
scalar MobileNetwork.host[0] coordZ:vector:starttime 0
scalar MobileNetwork.host[0] coordZ:vector:endtime 1000
scalar MobileNetwork.host[1] coordX:vector:count 10002
scalar MobileNetwork.host[1] coordX:vector:sum 3005492.8879747596
scalar MobileNetwork.host[1] coordX:vector:sumweights 10002
scalar MobileNetwork.host[1] coordX:vector:mean 300.48919095928409
scalar MobileNetwork.host[1] coordX:vector:stddev 111.76528271151552
scalar MobileNetwork.host[1] coordX:vector:min 141.88612057594989
scalar MobileNetwork.host[1] coordX:vector:max 458.11387464148498
scalar MobileNetwork.host[1] coordX:vector:starttime 0
scalar MobileNetwork.host[1] coordX:vector:endtime 1000
scalar MobileNetwork.host[1] coordY:vector:count 10002
scalar MobileNetwork.host[1] coordY:vector:sum 1989754.7163698201
scalar MobileNetwork.host[1] coordY:vector:sumweights 10002
scalar MobileNetwork.host[1] coordY:vector:mean 198.93568450008198
scalar MobileNetwork.host[1] coordY:vector:stddev 111.84654271799467
scalar MobileNetwork.host[1] coordY:vector:min 41.886122717571162
scalar MobileNetwork.host[1] coordY:vector:max 358.11388106634888
scalar MobileNetwork.host[1] coordY:vector:starttime 0
scalar MobileNetwork.host[1] coordY:vector:endtime 1000
scalar MobileNetwork.host[1] coordZ:vector:count 10002
scalar MobileNetwork.host[1] coordZ:vector:sum 0
scalar MobileNetwork.host[1] coordZ:vector:sumweights 10002
scalar MobileNetwork.host[1] coordZ:vector:mean 0
scalar MobileNetwork.host[1] coordZ:vector:stddev 0
scalar MobileNetwork.host[1] coordZ:vector:min 0
scalar MobileNetwork.host[1] coordZ:vector:max 0
scalar MobileNetwork.host[1] coordZ:vector:starttime 0
scalar MobileNetwork.host[1] coordZ:vector:endtime 1000
scalar MobileNetwork.host[2] coordX:vector:count 10002
scalar MobileNetwork.host[2] coordX:vector:sum 2998127.1402016999
scalar MobileNetwork.host[2] coordX:vector:sumweights 10002
scalar MobileNetwork.host[2] coordX:vector:mean 299.75276346747648
scalar MobileNetwork.host[2] coordX:vector:stddev 111.74949281503288
scalar MobileNetwork.host[2] coordX:vector:min 141.8861173090871
scalar MobileNetwork.host[2] coordX:vector:max 458.11388281845757
scalar MobileNetwork.host[2] coordX:vector:starttime 0
scalar MobileNetwork.host[2] coordX:vector:endtime 1000
scalar MobileNetwork.host[2] coordY:vector:count 10002
scalar MobileNetwork.host[2] coordY:vector:sum 1988948.0403110003
scalar MobileNetwork.host[2] coordY:vector:sumweights 10002
scalar MobileNetwork.host[2] coordY:vector:mean 198.85503302449513
scalar MobileNetwork.host[2] coordY:vector:stddev 111.86231891542428
scalar MobileNetwork.host[2] coordY:vector:min 41.88611699565346
scalar MobileNetwork.host[2] coordY:vector:max 358.11388213324597
scalar MobileNetwork.host[2] coordY:vector:starttime 0
scalar MobileNetwork.host[2] coordY:vector:endtime 1000
scalar MobileNetwork.host[2] coordZ:vector:count 10002
scalar MobileNetwork.host[2] coordZ:vector:sum 0
scalar MobileNetwork.host[2] coordZ:vector:sumweights 10002
scalar MobileNetwork.host[2] coordZ:vector:mean 0
scalar MobileNetwork.host[2] coordZ:vector:stddev 0
scalar MobileNetwork.host[2] coordZ:vector:min 0
scalar MobileNetwork.host[2] coordZ:vector:max 0
scalar MobileNetwork.host[2] coordZ:vector:starttime 0
scalar MobileNetwork.host[2] coordZ:vector:endtime 1000

