version 3
run BurstyTraffic-0-20230511-14:02:50-51705
attr configname BurstyTraffic
attr datetime 20230511-14:02:50
attr datetimef 20230511-140250
attr experiment BurstyTraffic
attr inifile omnetpp.ini
attr iterationvars ""
attr iterationvarsd ""
attr iterationvarsf ""
attr measurement ""
attr network TcpAppExample
attr processid 51705
attr repetition 0
attr replication #0
attr resultdir results
attr runnumber 0
attr seedset 0
config **.param-recording false
config **.vector-recording false
config image-path /home/levy/workspace/inet/images
config output-scalar-file results/omnetpp.ini-BurstyTraffic-#0.sca
config sim-time-limit 100s
config sim-time-limit 100s
config *.server.app[0].connection[*].source.typename BurstyPacketProducer
config *.server.app[0].connection[*].source.normalProducer.productionInterval 1s
config *.server.app[0].connection[*].source.normalProducer.packetLength 100B
config *.server.app[0].connection[*].source.burstProducer.productionInterval 0.1s
config *.server.app[0].connection[*].source.burstProducer.packetLength 1000B
config *.server.app[0].connection[*].source.scheduler.waitIntervals "\"40 4\""
config *.server.app[0].connection[*].source.scheduler.transitionProbabilities "\"0 1 1 0\""
config network TcpAppExample
config *.*.numApps 1
config *.client.app[0].typename TcpClientApp
config *.client.app[0].io.connectAddress "\"server\""
config *.client.app[0].io.connectPort 1000
config *.client.app[0].source.productionInterval "uniform(0s, 20s)"
config *.client.app[0].source.packetLength "intuniform(100B, 200B)"
config *.client.app[0].source.packetData "intuniform(0, 1)"
config *.server.app[0].typename TcpServerApp
config *.server.app[0].listener.localPort 1000

scalar TcpAppExample.client.lo[0].lo rcvdPkFromHl:count 0
attr interpolationmode none
attr recordingmode count
attr source packetReceivedFromUpper
attr title "packets received from higher layer, count"
scalar TcpAppExample.client.lo[0].lo rcvdPkFromHl:sum(packetBytes) 0
attr interpolationmode none
attr recordingmode sum(packetBytes)
attr source packetReceivedFromUpper
attr title "packets received from higher layer, sum(packetBytes)"
scalar TcpAppExample.client.lo[0].lo passedUpPk:count 0
attr interpolationmode none
attr recordingmode count
attr source packetSentToUpper
attr title "packets passed to higher layer, count"
scalar TcpAppExample.client.lo[0].lo passedUpPk:sum(packetBytes) 0
attr interpolationmode none
attr recordingmode sum(packetBytes)
attr source packetSentToUpper
attr title "packets passed to higher layer, sum(packetBytes)"
scalar TcpAppExample.client.lo[0] packetDropInterfaceDown:count 0
attr interpolationmode none
attr recordingmode count
attr source packetDropReasonIsInterfaceDown(packetDropped)
attr title "packet drops: interface down, count"
scalar TcpAppExample.client.lo[0] packetDropInterfaceDown:sum(packetBytes) 0
attr interpolationmode none
attr recordingmode sum(packetBytes)
attr source packetDropReasonIsInterfaceDown(packetDropped)
attr title "packet drops: interface down, sum(packetBytes)"
scalar TcpAppExample.client.lo[0] packetDropNoCarrier:count 0
attr interpolationmode none
attr recordingmode count
attr source packetDropReasonIsNoCarrier(packetDropped)
attr title "packet drops: no carrier, count"
scalar TcpAppExample.client.lo[0] packetDropNoCarrier:sum(packetBytes) 0
attr interpolationmode none
attr recordingmode sum(packetBytes)
attr source packetDropReasonIsNoCarrier(packetDropped)
attr title "packet drops: no carrier, sum(packetBytes)"
scalar TcpAppExample.client.ppp[0].queue queueLength:last 0
attr autoWarmupFilter false
attr interpolationmode sample-hold
attr recordingmode last
attr source "warmup(atomic(constant0(packetPushEnded) + count(packetPushStarted) - count(packetPulled) - count(packetRemoved) - count(packetDropped)))"
attr title "queue length, last"
attr unit pk
scalar TcpAppExample.client.ppp[0].queue queueLength:max 0
attr autoWarmupFilter false
attr interpolationmode sample-hold
attr recordingmode max
attr source "warmup(atomic(constant0(packetPushEnded) + count(packetPushStarted) - count(packetPulled) - count(packetRemoved) - count(packetDropped)))"
attr title "queue length, max"
attr unit pk
scalar TcpAppExample.client.ppp[0].queue queueLength:timeavg 0
attr autoWarmupFilter false
attr interpolationmode sample-hold
attr recordingmode timeavg
attr source "warmup(atomic(constant0(packetPushEnded) + count(packetPushStarted) - count(packetPulled) - count(packetRemoved) - count(packetDropped)))"
attr title "queue length, timeavg"
attr unit pk
scalar TcpAppExample.client.ppp[0].queue queueBitLength:last 0
attr autoWarmupFilter false
attr interpolationmode sample-hold
attr recordingmode last
attr source "warmup(atomic(constant0(packetPushEnded) + sum(packetLength(packetPushStarted)) - sum(packetLength(packetPulled)) - sum(packetLength(packetRemoved)) - sum(packetLength(packetDropped))))"
attr title "queue bit length, last"
attr unit b
scalar TcpAppExample.client.ppp[0].queue queueBitLength:max 0
attr autoWarmupFilter false
attr interpolationmode sample-hold
attr recordingmode max
attr source "warmup(atomic(constant0(packetPushEnded) + sum(packetLength(packetPushStarted)) - sum(packetLength(packetPulled)) - sum(packetLength(packetRemoved)) - sum(packetLength(packetDropped))))"
attr title "queue bit length, max"
attr unit b
scalar TcpAppExample.client.ppp[0].queue queueBitLength:timeavg 0
attr autoWarmupFilter false
attr interpolationmode sample-hold
attr recordingmode timeavg
attr source "warmup(atomic(constant0(packetPushEnded) + sum(packetLength(packetPushStarted)) - sum(packetLength(packetPulled)) - sum(packetLength(packetRemoved)) - sum(packetLength(packetDropped))))"
attr title "queue bit length, timeavg"
attr unit b
statistic TcpAppExample.client.ppp[0].queue queueingTime:histogram
field count 262
field mean 0
field stddev 0
field min 0
field max 0
field sum 0
field sqrsum 0
attr interpolationmode none
attr recordingmode histogram
attr source queueingTime(packetPulled)
attr title "queueing times"
attr unit s
bin	-inf	0
bin	-0.5	0
bin	-0.48	0
bin	-0.46	0
bin	-0.44	0
bin	-0.42	0
bin	-0.4	0
bin	-0.38	0
bin	-0.36	0
bin	-0.34	0
bin	-0.32	0
bin	-0.3	0
bin	-0.28	0
bin	-0.26	0
bin	-0.24	0
bin	-0.22	0
bin	-0.2	0
bin	-0.18	0
bin	-0.16	0
bin	-0.14	0
bin	-0.12	0
bin	-0.1	0
bin	-0.08	0
bin	-0.06	0
bin	-0.04	0
bin	-0.02	0
bin	0	262
bin	0.02	0
bin	0.04	0
bin	0.06	0
bin	0.08	0
bin	0.1	0
bin	0.12	0
bin	0.14	0
bin	0.16	0
bin	0.18	0
bin	0.2	0
bin	0.22	0
bin	0.24	0
bin	0.26	0
bin	0.28	0
bin	0.3	0
bin	0.32	0
bin	0.34	0
bin	0.36	0
bin	0.38	0
bin	0.4	0
bin	0.42	0
bin	0.44	0
bin	0.46	0
bin	0.48	0
bin	0.5	0
scalar TcpAppExample.client.ppp[0].queue outgoingPackets:count 262
attr recordingmode count
attr source packetPulled
attr title "outgoing packets, count"
attr unit pk
scalar TcpAppExample.client.ppp[0].queue outgoingPacketLengths:sum 94672
attr interpolationmode none
attr recordingmode sum
attr source packetLength(packetPulled)
attr title "outgoing packet lengths, sum"
attr unit b
statistic TcpAppExample.client.ppp[0].queue outgoingPacketLengths:histogram
field count 262
field mean 361.34351145038
field stddev 222.60683933658
field min 320
field max 1824
field sum 94672
field sqrsum 47142656
attr interpolationmode none
attr recordingmode histogram
attr source packetLength(packetPulled)
attr title "outgoing packet lengths"
attr unit b
bin	-inf	0
bin	0	0
bin	20	0
bin	40	0
bin	60	0
bin	80	0
bin	100	0
bin	120	0
bin	140	0
bin	160	0
bin	180	0
bin	200	0
bin	220	0
bin	240	0
bin	260	0
bin	280	0
bin	300	0
bin	320	252
bin	340	1
bin	360	0
bin	380	0
bin	400	0
bin	420	0
bin	440	0
bin	460	0
bin	480	0
bin	500	0
bin	520	0
bin	540	0
bin	560	0
bin	580	0
bin	600	0
bin	620	0
bin	640	0
bin	660	0
bin	680	0
bin	700	0
bin	720	0
bin	740	0
bin	760	0
bin	780	0
bin	800	0
bin	820	0
bin	840	0
bin	860	0
bin	880	0
bin	900	0
bin	920	0
bin	940	0
bin	960	0
bin	980	0
bin	1000	0
bin	1020	0
bin	1040	0
bin	1060	0
bin	1080	0
bin	1100	0
bin	1120	0
bin	1140	0
bin	1160	0
bin	1180	1
bin	1200	1
bin	1220	0
bin	1240	0
bin	1260	0
bin	1280	0
bin	1300	0
bin	1320	0
bin	1340	0
bin	1360	0
bin	1380	0
bin	1400	1
bin	1420	1
bin	1440	0
bin	1460	0
bin	1480	1
bin	1500	0
bin	1520	0
bin	1540	0
bin	1560	0
bin	1580	0
bin	1600	0
bin	1620	0
bin	1640	1
bin	1660	0
bin	1680	1
bin	1700	0
bin	1720	0
bin	1740	0
bin	1760	1
bin	1780	0
bin	1800	0
bin	1820	1
bin	1840	0
bin	1860	0
bin	1880	0
bin	1900	0
bin	1920	0
bin	1940	0
bin	1960	0
bin	1980	0
bin	2000	0
statistic TcpAppExample.client.ppp[0].queue flowQueueingTime:histogram
field count 0
field mean -nan
field stddev nan
field min nan
field max nan
field sum 0
field sqrsum 0
attr interpolationmode none
attr recordingmode histogram
attr source queueingTime(demuxFlow(packetPulled))
attr title "flow queueing times"
attr unit s
bin	-inf	0
bin	0	0
bin	1	0
scalar TcpAppExample.client.ppp[0].queue incomingPackets:count 262
attr recordingmode count
attr source packetPushStarted
attr title "incoming packets, count"
attr unit pk
scalar TcpAppExample.client.ppp[0].queue incomingPacketLengths:sum 94672
attr interpolationmode none
attr recordingmode sum
attr source packetLength(packetPushStarted)
attr title "incoming packet lengths, sum"
attr unit b
statistic TcpAppExample.client.ppp[0].queue incomingPacketLengths:histogram
field count 262
field mean 361.34351145038
field stddev 222.60683933658
field min 320
field max 1824
field sum 94672
field sqrsum 47142656
attr interpolationmode none
attr recordingmode histogram
attr source packetLength(packetPushStarted)
attr title "incoming packet lengths"
attr unit b
bin	-inf	0
bin	0	0
bin	20	0
bin	40	0
bin	60	0
bin	80	0
bin	100	0
bin	120	0
bin	140	0
bin	160	0
bin	180	0
bin	200	0
bin	220	0
bin	240	0
bin	260	0
bin	280	0
bin	300	0
bin	320	252
bin	340	1
bin	360	0
bin	380	0
bin	400	0
bin	420	0
bin	440	0
bin	460	0
bin	480	0
bin	500	0
bin	520	0
bin	540	0
bin	560	0
bin	580	0
bin	600	0
bin	620	0
bin	640	0
bin	660	0
bin	680	0
bin	700	0
bin	720	0
bin	740	0
bin	760	0
bin	780	0
bin	800	0
bin	820	0
bin	840	0
bin	860	0
bin	880	0
bin	900	0
bin	920	0
bin	940	0
bin	960	0
bin	980	0
bin	1000	0
bin	1020	0
bin	1040	0
bin	1060	0
bin	1080	0
bin	1100	0
bin	1120	0
bin	1140	0
bin	1160	0
bin	1180	1
bin	1200	1
bin	1220	0
bin	1240	0
bin	1260	0
bin	1280	0
bin	1300	0
bin	1320	0
bin	1340	0
bin	1360	0
bin	1380	0
bin	1400	1
bin	1420	1
bin	1440	0
bin	1460	0
bin	1480	1
bin	1500	0
bin	1520	0
bin	1540	0
bin	1560	0
bin	1580	0
bin	1600	0
bin	1620	0
bin	1640	1
bin	1660	0
bin	1680	1
bin	1700	0
bin	1720	0
bin	1740	0
bin	1760	1
bin	1780	0
bin	1800	0
bin	1820	1
bin	1840	0
bin	1860	0
bin	1880	0
bin	1900	0
bin	1920	0
bin	1940	0
bin	1960	0
bin	1980	0
bin	2000	0
scalar TcpAppExample.client.ppp[0].queue droppedPacketsQueueOverflow:count 0
attr interpolationmode none
attr recordingmode count
attr source packetDropReasonIsQueueOverflow(packetDropped)
attr title "dropped packets: queue overflow, count"
attr unit pk
scalar TcpAppExample.client.ppp[0].queue droppedPacketLengthsQueueOverflow:sum 0
attr interpolationmode none
attr recordingmode sum
attr source packetLength(packetDropReasonIsQueueOverflow(packetDropped))
attr title "dropped packet lengths: queue overflow, sum"
attr unit b
scalar TcpAppExample.client.ppp[0].ppp transmissionState:timeavg 0.000109344
attr interpolationmode sample-hold
attr recordingmode timeavg
attr source transmissionStateChanged
attr title "tx state, timeavg"
scalar TcpAppExample.client.ppp[0].ppp rxPkOk:count 262
attr interpolationmode none
attr recordingmode count
attr source rxPkOk
attr title "packets received OK, count"
scalar TcpAppExample.client.ppp[0].ppp rxPkOk:sum(packetBytes) 101518
attr interpolationmode none
attr recordingmode sum(packetBytes)
attr source rxPkOk
attr title "packets received OK, sum(packetBytes)"
scalar TcpAppExample.client.ppp[0].ppp txPk:count 262
attr interpolationmode none
attr recordingmode count
attr source packetSentToLower
attr title "packets transmitted, count"
scalar TcpAppExample.client.ppp[0].ppp txPk:sum(packetBytes) 13668
attr interpolationmode none
attr recordingmode sum(packetBytes)
attr source packetSentToLower
attr title "packets transmitted, sum(packetBytes)"
scalar TcpAppExample.client.ppp[0].ppp rcvdPkFromHl:count 262
attr interpolationmode none
attr recordingmode count
attr source packetReceivedFromUpper
attr title "packets received from higher layer, count"
scalar TcpAppExample.client.ppp[0].ppp rcvdPkFromHl:sum(packetBytes) 11834
attr interpolationmode none
attr recordingmode sum(packetBytes)
attr source packetReceivedFromUpper
attr title "packets received from higher layer, sum(packetBytes)"
scalar TcpAppExample.client.ppp[0].ppp passedUpPk:count 262
attr interpolationmode none
attr recordingmode count
attr source packetSentToUpper
attr title "packets passed to higher layer, count"
scalar TcpAppExample.client.ppp[0].ppp passedUpPk:sum(packetBytes) 99684
attr interpolationmode none
attr recordingmode sum(packetBytes)
attr source packetSentToUpper
attr title "packets passed to higher layer, sum(packetBytes)"
scalar TcpAppExample.client.ppp[0].ppp packetDropIncorrectlyReceived:count 0
attr interpolationmode none
attr recordingmode count
attr source packetDropReasonIsIncorrectlyReceived(packetDropped)
attr title "packet drop: incorrectly received, count"
scalar TcpAppExample.client.ppp[0].ppp packetDropIncorrectlyReceived:sum(packetBytes) 0
attr interpolationmode none
attr recordingmode sum(packetBytes)
attr source packetDropReasonIsIncorrectlyReceived(packetDropped)
attr title "packet drop: incorrectly received, sum(packetBytes)"
scalar TcpAppExample.client.ppp[0].ppp packetDropInterfaceDown:count 0
attr interpolationmode none
attr recordingmode count
attr source packetDropReasonIsInterfaceDown(packetDropped)
attr title "packet drop: interface down, count"
scalar TcpAppExample.client.ppp[0].ppp packetDropInterfaceDown:sum(packetBytes) 0
attr interpolationmode none
attr recordingmode sum(packetBytes)
attr source packetDropReasonIsInterfaceDown(packetDropped)
attr title "packet drop: interface down, sum(packetBytes)"
scalar TcpAppExample.client.ppp[0] packetDropInterfaceDown:count 0
attr interpolationmode none
attr recordingmode count
attr source packetDropReasonIsInterfaceDown(packetDropped)
attr title "packet drops: interface down, count"
scalar TcpAppExample.client.ppp[0] packetDropInterfaceDown:sum(packetBytes) 0
attr interpolationmode none
attr recordingmode sum(packetBytes)
attr source packetDropReasonIsInterfaceDown(packetDropped)
attr title "packet drops: interface down, sum(packetBytes)"
scalar TcpAppExample.client.ppp[0] packetDropNoCarrier:count 0
attr interpolationmode none
attr recordingmode count
attr source packetDropReasonIsNoCarrier(packetDropped)
attr title "packet drops: no carrier, count"
scalar TcpAppExample.client.ppp[0] packetDropNoCarrier:sum(packetBytes) 0
attr interpolationmode none
attr recordingmode sum(packetBytes)
attr source packetDropReasonIsNoCarrier(packetDropped)
attr title "packet drops: no carrier, sum(packetBytes)"
scalar TcpAppExample.client.ipv4.ip packetDropAddressResolutionFailed:count 0
attr interpolationmode none
attr recordingmode count
attr source packetDropReasonIsAddressResolutionFailed(packetDropped)
attr title "packet drop: address resolution failed, count"
scalar TcpAppExample.client.ipv4.ip packetDropAddressResolutionFailed:sum(packetBytes) 0
attr interpolationmode none
attr recordingmode sum(packetBytes)
attr source packetDropReasonIsAddressResolutionFailed(packetDropped)
attr title "packet drop: address resolution failed, sum(packetBytes)"
scalar TcpAppExample.client.ipv4.ip packetDropHopLimitReached:count 0
attr interpolationmode none
attr recordingmode count
attr source packetDropReasonIsHopLimitReached(packetDropped)
attr title "packet drop: hop limit reached, count"
scalar TcpAppExample.client.ipv4.ip packetDropHopLimitReached:sum(packetBytes) 0
attr interpolationmode none
attr recordingmode sum(packetBytes)
attr source packetDropReasonIsHopLimitReached(packetDropped)
attr title "packet drop: hop limit reached, sum(packetBytes)"
scalar TcpAppExample.client.ipv4.ip packetDropForwardingDisabled:count 0
attr interpolationmode none
attr recordingmode count
attr source packetDropReasonIsForwardingDisabled(packetDropped)
attr title "packet drop: forwarding disabled, count"
scalar TcpAppExample.client.ipv4.ip packetDropForwardingDisabled:sum(packetBytes) 0
attr interpolationmode none
attr recordingmode sum(packetBytes)
attr source packetDropReasonIsForwardingDisabled(packetDropped)
attr title "packet drop: forwarding disabled, sum(packetBytes)"
scalar TcpAppExample.client.ipv4.ip packetDropNoInterfaceFound:count 0
attr interpolationmode none
attr recordingmode count
attr source packetDropReasonIsNoInterfaceFound(packetDropped)
attr title "packet drop: no interface found, count"
scalar TcpAppExample.client.ipv4.ip packetDropNoInterfaceFound:sum(packetBytes) 0
attr interpolationmode none
attr recordingmode sum(packetBytes)
attr source packetDropReasonIsNoInterfaceFound(packetDropped)
attr title "packet drop: no interface found, sum(packetBytes)"
scalar TcpAppExample.client.ipv4.ip packetDropNoRouteFound:count 0
attr interpolationmode none
attr recordingmode count
attr source packetDropReasonIsNoRouteFound(packetDropped)
attr title "packet drop: no route found, count"
scalar TcpAppExample.client.ipv4.ip packetDropNoRouteFound:sum(packetBytes) 0
attr interpolationmode none
attr recordingmode sum(packetBytes)
attr source packetDropReasonIsNoRouteFound(packetDropped)
attr title "packet drop: no route found, sum(packetBytes)"
scalar TcpAppExample.client.ipv4.ip packetDropUndefined:count 0
attr interpolationmode none
attr recordingmode count
attr source packetDropReasonIsUndefined(packetDropped)
attr title "packet drop: undefined, count"
scalar TcpAppExample.client.ipv4.ip packetDropUndefined:sum(packetBytes) 0
attr interpolationmode none
attr recordingmode sum(packetBytes)
attr source packetDropReasonIsUndefined(packetDropped)
attr title "packet drop: undefined, sum(packetBytes)"
scalar TcpAppExample.client.ipv4.arp arpResolutionFailed:count 0
attr recordingmode count
attr title "ARP failed resolutions, count"
scalar TcpAppExample.client.ipv4.arp arpResolutionCompleted:count 0
attr recordingmode count
attr title "ARP completed resolutions, count"
scalar TcpAppExample.client.ipv4.arp arpResolutionInitiated:count 0
attr recordingmode count
attr title "ARP initiated resolutions, count"
scalar TcpAppExample.client.ipv4.arp arpReplySent:count 0
attr recordingmode count
attr source arpReplySent
attr title "ARP replies sent, count"
scalar TcpAppExample.client.ipv4.arp arpReplySent:sum(packetBytes) 0
attr recordingmode sum(packetBytes)
attr source arpReplySent
attr title "ARP replies sent, sum(packetBytes)"
scalar TcpAppExample.client.ipv4.arp arpRequestSent:count 0
attr recordingmode count
attr source arpRequestSent
attr title "ARP request sent, count"
scalar TcpAppExample.client.ipv4.arp arpRequestSent:sum(packetBytes) 0
attr recordingmode sum(packetBytes)
attr source arpRequestSent
attr title "ARP request sent, sum(packetBytes)"
scalar TcpAppExample.client.udp packetReceived:count 0
attr interpolationmode none
attr recordingmode count
attr source packetReceived
attr title "packets received, count"
scalar TcpAppExample.client.udp packetReceived:sum(packetBytes) 0
attr interpolationmode none
attr recordingmode sum(packetBytes)
attr source packetReceived
attr title "packets received, sum(packetBytes)"
scalar TcpAppExample.client.udp packetSent:count 0
attr interpolationmode none
attr recordingmode count
attr source packetSent
attr title "packets sent, count"
scalar TcpAppExample.client.udp packetSent:sum(packetBytes) 0
attr interpolationmode none
attr recordingmode sum(packetBytes)
attr source packetSent
attr title "packets sent, sum(packetBytes)"
scalar TcpAppExample.client.udp passedUpPk:count 0
attr interpolationmode none
attr recordingmode count
attr source packetSentToUpper
attr title "packets passed up, count"
scalar TcpAppExample.client.udp droppedPkWrongPort:count 0
attr interpolationmode none
attr recordingmode count
attr source packetDropReasonIsNoPortFound(packetDropped)
attr title "packets dropped (wrong port), count"
scalar TcpAppExample.client.udp droppedPkBadChecksum:count 0
attr interpolationmode none
attr recordingmode count
attr source packetDropReasonIsIncorrectlyReceived(packetDropped)
attr title "packets dropped (checksum error), count"
scalar TcpAppExample.client.app[0].source packets:count 9
attr recordingmode count
attr source packetPushed
attr title "packets, count"
attr unit pk
scalar TcpAppExample.client.app[0].source packetLengths:sum 10800
attr interpolationmode none
attr recordingmode sum
attr source packetLength(packetPushed)
attr title "packet lengths, sum"
attr unit b
statistic TcpAppExample.client.app[0].source packetLengths:histogram
field count 9
field mean 1200
field stddev 229.22478051031
field min 872
field max 1504
field sum 10800
field sqrsum 13380352
attr interpolationmode none
attr recordingmode histogram
attr source packetLength(packetPushed)
attr title "packet lengths"
attr unit b
bin	-inf	0
bin	700	0
bin	720	0
bin	740	0
bin	760	0
bin	780	0
bin	800	0
bin	820	0
bin	840	0
bin	860	1
bin	880	1
bin	900	0
bin	920	0
bin	940	0
bin	960	0
bin	980	0
bin	1000	0
bin	1020	0
bin	1040	0
bin	1060	0
bin	1080	1
bin	1100	1
bin	1120	0
bin	1140	0
bin	1160	1
bin	1180	0
bin	1200	0
bin	1220	0
bin	1240	0
bin	1260	0
bin	1280	0
bin	1300	0
bin	1320	1
bin	1340	0
bin	1360	1
bin	1380	0
bin	1400	0
bin	1420	0
bin	1440	1
bin	1460	0
bin	1480	0
bin	1500	1
bin	1520	0
bin	1540	0
bin	1560	0
bin	1580	0
bin	1600	0
bin	1620	0
bin	1640	0
bin	1660	0
bin	1680	0
scalar TcpAppExample.client.app[0].sink packets:count 252
attr recordingmode count
attr source packetPushed
attr title "packets, count"
attr unit pk
scalar TcpAppExample.client.app[0].sink packetLengths:sum 713600
attr interpolationmode none
attr recordingmode sum
attr source packetLength(packetPushed)
attr title "packet lengths, sum"
attr unit b
statistic TcpAppExample.client.app[0].sink packetLengths:histogram
field count 252
field mean 2831.746031746
field stddev 1560.7448826216
field min 800
field max 4288
field sum 713600
field sqrsum 2632151040
attr interpolationmode none
attr recordingmode histogram
attr source packetLength(packetPushed)
attr title "packet lengths"
attr unit b
bin	-inf	0
bin	0	0
bin	100	0
bin	200	0
bin	300	0
bin	400	0
bin	500	0
bin	600	0
bin	700	0
bin	800	92
bin	900	0
bin	1000	0
bin	1100	0
bin	1200	0
bin	1300	0
bin	1400	0
bin	1500	0
bin	1600	0
bin	1700	0
bin	1800	0
bin	1900	0
bin	2000	0
bin	2100	0
bin	2200	0
bin	2300	0
bin	2400	0
bin	2500	0
bin	2600	0
bin	2700	0
bin	2800	0
bin	2900	0
bin	3000	0
bin	3100	0
bin	3200	0
bin	3300	0
bin	3400	0
bin	3500	0
bin	3600	0
bin	3700	80
bin	3800	0
bin	3900	0
bin	4000	0
bin	4100	0
bin	4200	80
bin	4300	0
bin	4400	0
bin	4500	0
bin	4600	0
bin	4700	0
bin	4800	0
bin	4900	0
bin	5000	0
bin	5100	0
bin	5200	0
statistic TcpAppExample.client.app[0].sink meanBitLifeTimePerPacket:histogram
field count 252
field mean 0.0004810873015873
field stddev 0.00032840638001677
field min 0.0001177
field max 0.0009131
field sum 0.121234
field sqrsum 8.539467628e-05
attr interpolationmode none
attr recordingmode histogram
attr source weightedMeanPerGroup(groupRegionsPerPacket(lifeTimePerRegion(packetPushed)))
attr title "mean bit life time per packet"
attr unit s
bin	-inf	0
bin	0	0
bin	2e-05	0
bin	4e-05	0
bin	6e-05	0
bin	8e-05	0
bin	0.0001	91
bin	0.00012	0
bin	0.00014	1
bin	0.00016	0
bin	0.00018	0
bin	0.0002	0
bin	0.00022	0
bin	0.00024	0
bin	0.00026	0
bin	0.00028	0
bin	0.0003	0
bin	0.00032	0
bin	0.00034	0
bin	0.00036	0
bin	0.00038	0
bin	0.0004	0
bin	0.00042	0
bin	0.00044	0
bin	0.00046	80
bin	0.00048	0
bin	0.0005	0
bin	0.00052	0
bin	0.00054	0
bin	0.00056	0
bin	0.00058	0
bin	0.0006	0
bin	0.00062	0
bin	0.00064	0
bin	0.00066	0
bin	0.00068	0
bin	0.0007	0
bin	0.00072	0
bin	0.00074	0
bin	0.00076	0
bin	0.00078	0
bin	0.0008	0
bin	0.00082	0
bin	0.00084	0
bin	0.00086	0
bin	0.00088	0
bin	0.0009	80
bin	0.00092	0
bin	0.00094	0
bin	0.00096	0
bin	0.00098	0
bin	0.001	0
bin	0.00102	0
bin	0.00104	0
bin	0.00106	0
bin	0.00108	0
bin	0.0011	0
bin	0.00112	0
statistic TcpAppExample.client.app[0].sink packetJitter:histogram
field count 252
field mean 4.6706349206349e-07
field stddev 0.00036285427011563
field min -0.0007954
field max 0.0004466
field sum 0.0001177
field sqrsum 3.304752353e-05
attr interpolationmode none
attr recordingmode histogram
attr source jitter(weightedMeanPerGroup(groupRegionsPerPacket(lifeTimePerRegion(packetPushed))))
attr title "packet jitter"
attr unit s
bin	-inf	0
bin	-0.0008	2
bin	-0.00078	0
bin	-0.00076	0
bin	-0.00074	0
bin	-0.00072	0
bin	-0.0007	0
bin	-0.00068	0
bin	-0.00066	0
bin	-0.00064	0
bin	-0.00062	0
bin	-0.0006	0
bin	-0.00058	0
bin	-0.00056	0
bin	-0.00054	0
bin	-0.00052	0
bin	-0.0005	0
bin	-0.00048	0
bin	-0.00046	78
bin	-0.00044	0
bin	-0.00042	0
bin	-0.0004	0
bin	-0.00038	0
bin	-0.00036	0
bin	-0.00034	0
bin	-0.00032	0
bin	-0.0003	0
bin	-0.00028	0
bin	-0.00026	0
bin	-0.00024	0
bin	-0.00022	0
bin	-0.0002	0
bin	-0.00018	0
bin	-0.00016	0
bin	-0.00014	0
bin	-0.00012	0
bin	-0.0001	0
bin	-8e-05	0
bin	-6e-05	0
bin	-4e-05	1
bin	-2e-05	0
bin	0	88
bin	2e-05	0
bin	4e-05	0
bin	6e-05	0
bin	8e-05	0
bin	0.0001	0
bin	0.00012	0
bin	0.00014	1
bin	0.00016	0
bin	0.00018	0
bin	0.0002	0
bin	0.00022	0
bin	0.00024	0
bin	0.00026	0
bin	0.00028	0
bin	0.0003	0
bin	0.00032	0
bin	0.00034	2
bin	0.00036	0
bin	0.00038	0
bin	0.0004	0
bin	0.00042	0
bin	0.00044	80
bin	0.00046	0
bin	0.00048	0
bin	0.0005	0
bin	0.00052	0
bin	0.00054	0
bin	0.00056	0
bin	0.00058	0
bin	0.0006	0
bin	0.00062	0
bin	0.00064	0
bin	0.00066	0
bin	0.00068	0
statistic TcpAppExample.client.app[0].sink packetDelayDifferenceToMean:histogram
field count 252
field mean -0.0001026210759317
field stddev 0.00031011087769369
field min -0.0007672619047619
field max 0.0003799734439834
field sum -0.025860511134789
field sqrsum 2.6792191349247e-05
attr interpolationmode none
attr recordingmode histogram
attr source differenceToMean(weightedMeanPerGroup(groupRegionsPerPacket(lifeTimePerRegion(packetPushed))))
attr title "packet delay difference to mean"
attr unit s
bin	-inf	0
bin	-0.00098	0
bin	-0.00096	0
bin	-0.00094	0
bin	-0.00092	0
bin	-0.0009	0
bin	-0.00088	0
bin	-0.00086	0
bin	-0.00084	0
bin	-0.00082	0
bin	-0.0008	0
bin	-0.00078	1
bin	-0.00076	1
bin	-0.00074	0
bin	-0.00072	1
bin	-0.0007	2
bin	-0.00068	1
bin	-0.00066	1
bin	-0.00064	1
bin	-0.00062	2
bin	-0.0006	2
bin	-0.00058	1
bin	-0.00056	3
bin	-0.00054	2
bin	-0.00052	5
bin	-0.0005	10
bin	-0.00048	11
bin	-0.00046	13
bin	-0.00044	17
bin	-0.00042	6
bin	-0.0004	0
bin	-0.00038	0
bin	-0.00036	0
bin	-0.00034	1
bin	-0.00032	1
bin	-0.0003	1
bin	-0.00028	1
bin	-0.00026	1
bin	-0.00024	1
bin	-0.00022	1
bin	-0.0002	2
bin	-0.00018	1
bin	-0.00016	2
bin	-0.00014	2
bin	-0.00012	2
bin	-0.0001	2
bin	-8e-05	4
bin	-6e-05	9
bin	-4e-05	10
bin	-2e-05	14
bin	0	55
bin	2e-05	10
bin	4e-05	0
bin	6e-05	0
bin	8e-05	0
bin	0.0001	0
bin	0.00012	0
bin	0.00014	0
bin	0.00016	0
bin	0.00018	0
bin	0.0002	0
bin	0.00022	0
bin	0.00024	0
bin	0.00026	0
bin	0.00028	8
bin	0.0003	9
bin	0.00032	9
bin	0.00034	7
bin	0.00036	19
bin	0.00038	0
statistic TcpAppExample.client.app[0].sink packetDelayVariation:histogram
field count 252
field mean 0.00026828368339359
field stddev 0.0001172765687905
field min 0
field max 0.00032943926361663
field sum 0.067607488215185
field sqrsum 2.1590188153764e-05
attr recordingmode histogram
attr source stddev(weightedMeanPerGroup(groupRegionsPerPacket(lifeTimePerRegion(packetPushed))))
attr title "packet delay variation"
attr unit s
bin	-inf	0
bin	0	1
bin	5e-06	27
bin	1e-05	8
bin	1.5e-05	4
bin	2e-05	0
bin	2.5e-05	0
bin	3e-05	0
bin	3.5e-05	0
bin	4e-05	0
bin	4.5e-05	0
bin	5e-05	1
bin	5.5e-05	0
bin	6e-05	0
bin	6.5e-05	0
bin	7e-05	0
bin	7.5e-05	0
bin	8e-05	0
bin	8.5e-05	0
bin	9e-05	0
bin	9.5e-05	0
bin	0.0001	0
bin	0.000105	0
bin	0.00011	0
bin	0.000115	0
bin	0.00012	0
bin	0.000125	0
bin	0.00013	1
bin	0.000135	1
bin	0.00014	0
bin	0.000145	0
bin	0.00015	0
bin	0.000155	0
bin	0.00016	0
bin	0.000165	0
bin	0.00017	0
bin	0.000175	1
bin	0.00018	1
bin	0.000185	0
bin	0.00019	0
bin	0.000195	0
bin	0.0002	0
bin	0.000205	1
bin	0.00021	1
bin	0.000215	0
bin	0.00022	0
bin	0.000225	0
bin	0.00023	2
bin	0.000235	0
bin	0.00024	0
bin	0.000245	2
bin	0.00025	0
bin	0.000255	0
bin	0.00026	2
bin	0.000265	0
bin	0.00027	2
bin	0.000275	0
bin	0.00028	2
bin	0.000285	0
bin	0.00029	2
bin	0.000295	2
bin	0.0003	2
bin	0.000305	2
bin	0.00031	3
bin	0.000315	4
bin	0.00032	10
bin	0.000325	170
bin	0.00033	0
bin	0.000335	0
bin	0.00034	0
bin	0.000345	0
bin	0.00035	0
bin	0.000355	0
bin	0.00036	0
bin	0.000365	0
bin	0.00037	0
bin	0.000375	0
bin	0.00038	0
bin	0.000385	0
bin	0.00039	0
bin	0.000395	0
bin	0.0004	0
bin	0.000405	0
bin	0.00041	0
bin	0.000415	0
scalar TcpAppExample.client.app[0].sink droppedPackets:count 252
attr recordingmode count
attr source packetDropped
attr title "dropped packets, count"
attr unit pk
scalar TcpAppExample.client.app[0].sink droppedPacketLengths:sum 713600
attr interpolationmode none
attr recordingmode sum
attr source packetLength(packetDropped)
attr title "dropped packet lengths, sum"
attr unit b
statistic TcpAppExample.client.app[0].sink droppedPacketLengths:histogram
field count 252
field mean 2831.746031746
field stddev 1560.7448826216
field min 800
field max 4288
field sum 713600
field sqrsum 2632151040
attr interpolationmode none
attr recordingmode histogram
attr source packetLength(packetDropped)
attr title "dropped packet lengths"
attr unit b
bin	-inf	0
bin	0	0
bin	100	0
bin	200	0
bin	300	0
bin	400	0
bin	500	0
bin	600	0
bin	700	0
bin	800	92
bin	900	0
bin	1000	0
bin	1100	0
bin	1200	0
bin	1300	0
bin	1400	0
bin	1500	0
bin	1600	0
bin	1700	0
bin	1800	0
bin	1900	0
bin	2000	0
bin	2100	0
bin	2200	0
bin	2300	0
bin	2400	0
bin	2500	0
bin	2600	0
bin	2700	0
bin	2800	0
bin	2900	0
bin	3000	0
bin	3100	0
bin	3200	0
bin	3300	0
bin	3400	0
bin	3500	0
bin	3600	0
bin	3700	80
bin	3800	0
bin	3900	0
bin	4000	0
bin	4100	0
bin	4200	80
bin	4300	0
bin	4400	0
bin	4500	0
bin	4600	0
bin	4700	0
bin	4800	0
bin	4900	0
bin	5000	0
bin	5100	0
bin	5200	0
scalar TcpAppExample.server.lo[0].lo rcvdPkFromHl:count 0
attr interpolationmode none
attr recordingmode count
attr source packetReceivedFromUpper
attr title "packets received from higher layer, count"
scalar TcpAppExample.server.lo[0].lo rcvdPkFromHl:sum(packetBytes) 0
attr interpolationmode none
attr recordingmode sum(packetBytes)
attr source packetReceivedFromUpper
attr title "packets received from higher layer, sum(packetBytes)"
scalar TcpAppExample.server.lo[0].lo passedUpPk:count 0
attr interpolationmode none
attr recordingmode count
attr source packetSentToUpper
attr title "packets passed to higher layer, count"
scalar TcpAppExample.server.lo[0].lo passedUpPk:sum(packetBytes) 0
attr interpolationmode none
attr recordingmode sum(packetBytes)
attr source packetSentToUpper
attr title "packets passed to higher layer, sum(packetBytes)"
scalar TcpAppExample.server.lo[0] packetDropInterfaceDown:count 0
attr interpolationmode none
attr recordingmode count
attr source packetDropReasonIsInterfaceDown(packetDropped)
attr title "packet drops: interface down, count"
scalar TcpAppExample.server.lo[0] packetDropInterfaceDown:sum(packetBytes) 0
attr interpolationmode none
attr recordingmode sum(packetBytes)
attr source packetDropReasonIsInterfaceDown(packetDropped)
attr title "packet drops: interface down, sum(packetBytes)"
scalar TcpAppExample.server.lo[0] packetDropNoCarrier:count 0
attr interpolationmode none
attr recordingmode count
attr source packetDropReasonIsNoCarrier(packetDropped)
attr title "packet drops: no carrier, count"
scalar TcpAppExample.server.lo[0] packetDropNoCarrier:sum(packetBytes) 0
attr interpolationmode none
attr recordingmode sum(packetBytes)
attr source packetDropReasonIsNoCarrier(packetDropped)
attr title "packet drops: no carrier, sum(packetBytes)"
scalar TcpAppExample.server.ppp[0].queue queueLength:last 0
attr autoWarmupFilter false
attr interpolationmode sample-hold
attr recordingmode last
attr source "warmup(atomic(constant0(packetPushEnded) + count(packetPushStarted) - count(packetPulled) - count(packetRemoved) - count(packetDropped)))"
attr title "queue length, last"
attr unit pk
scalar TcpAppExample.server.ppp[0].queue queueLength:max 1
attr autoWarmupFilter false
attr interpolationmode sample-hold
attr recordingmode max
attr source "warmup(atomic(constant0(packetPushEnded) + count(packetPushStarted) - count(packetPulled) - count(packetRemoved) - count(packetDropped)))"
attr title "queue length, max"
attr unit pk
scalar TcpAppExample.server.ppp[0].queue queueLength:timeavg 3.76e-07
attr autoWarmupFilter false
attr interpolationmode sample-hold
attr recordingmode timeavg
attr source "warmup(atomic(constant0(packetPushEnded) + count(packetPushStarted) - count(packetPulled) - count(packetRemoved) - count(packetDropped)))"
attr title "queue length, timeavg"
attr unit pk
scalar TcpAppExample.server.ppp[0].queue queueBitLength:last 0
attr autoWarmupFilter false
attr interpolationmode sample-hold
attr recordingmode last
attr source "warmup(atomic(constant0(packetPushEnded) + sum(packetLength(packetPushStarted)) - sum(packetLength(packetPulled)) - sum(packetLength(packetRemoved)) - sum(packetLength(packetDropped))))"
attr title "queue bit length, last"
attr unit b
scalar TcpAppExample.server.ppp[0].queue queueBitLength:max 1120
attr autoWarmupFilter false
attr interpolationmode sample-hold
attr recordingmode max
attr source "warmup(atomic(constant0(packetPushEnded) + sum(packetLength(packetPushStarted)) - sum(packetLength(packetPulled)) - sum(packetLength(packetRemoved)) - sum(packetLength(packetDropped))))"
attr title "queue bit length, max"
attr unit b
scalar TcpAppExample.server.ppp[0].queue queueBitLength:timeavg 0.00042112
attr autoWarmupFilter false
attr interpolationmode sample-hold
attr recordingmode timeavg
attr source "warmup(atomic(constant0(packetPushEnded) + sum(packetLength(packetPushStarted)) - sum(packetLength(packetPulled)) - sum(packetLength(packetRemoved)) - sum(packetLength(packetDropped))))"
attr title "queue bit length, timeavg"
attr unit b
statistic TcpAppExample.server.ppp[0].queue queueingTime:histogram
field count 262
field mean 1.4351145038168e-07
field stddev 2.3229357576892e-06
field min 0
field max 3.76e-05
field sum 3.76e-05
field sqrsum 1.41376e-09
attr interpolationmode none
attr recordingmode histogram
attr source queueingTime(packetPulled)
attr title "queueing times"
attr unit s
bin	-inf	0
bin	0	261
bin	1e-06	0
bin	2e-06	0
bin	3e-06	0
bin	4e-06	0
bin	5e-06	0
bin	6e-06	0
bin	7e-06	0
bin	8e-06	0
bin	9e-06	0
bin	1e-05	0
bin	1.1e-05	0
bin	1.2e-05	0
bin	1.3e-05	0
bin	1.4e-05	0
bin	1.5e-05	0
bin	1.6e-05	0
bin	1.7e-05	0
bin	1.8e-05	0
bin	1.9e-05	0
bin	2e-05	0
bin	2.1e-05	0
bin	2.2e-05	0
bin	2.3e-05	0
bin	2.4e-05	0
bin	2.5e-05	0
bin	2.6e-05	0
bin	2.7e-05	0
bin	2.8e-05	0
bin	2.9e-05	0
bin	3e-05	0
bin	3.1e-05	0
bin	3.2e-05	0
bin	3.3e-05	0
bin	3.4e-05	0
bin	3.5e-05	0
bin	3.6e-05	0
bin	3.7e-05	1
bin	3.8e-05	0
bin	3.9e-05	0
bin	4e-05	0
bin	4.1e-05	0
bin	4.2e-05	0
bin	4.3e-05	0
bin	4.4e-05	0
bin	4.5e-05	0
bin	4.6e-05	0
bin	4.7e-05	0
scalar TcpAppExample.server.ppp[0].queue outgoingPackets:count 262
attr recordingmode count
attr source packetPulled
attr title "outgoing packets, count"
attr unit pk
scalar TcpAppExample.server.ppp[0].queue outgoingPacketLengths:sum 797472
attr interpolationmode none
attr recordingmode sum
attr source packetLength(packetPulled)
attr title "outgoing packet lengths, sum"
attr unit b
statistic TcpAppExample.server.ppp[0].queue outgoingPacketLengths:histogram
field count 262
field mean 3043.786259542
field stddev 1624.0187465069
field min 320
field max 4608
field sum 797472
field sqrsum 3115705344
attr interpolationmode none
attr recordingmode histogram
attr source packetLength(packetPulled)
attr title "outgoing packet lengths"
attr unit b
bin	-inf	0
bin	0	0
bin	100	0
bin	200	0
bin	300	10
bin	400	0
bin	500	0
bin	600	0
bin	700	0
bin	800	0
bin	900	0
bin	1000	0
bin	1100	92
bin	1200	0
bin	1300	0
bin	1400	0
bin	1500	0
bin	1600	0
bin	1700	0
bin	1800	0
bin	1900	0
bin	2000	0
bin	2100	0
bin	2200	0
bin	2300	0
bin	2400	0
bin	2500	0
bin	2600	0
bin	2700	0
bin	2800	0
bin	2900	0
bin	3000	0
bin	3100	0
bin	3200	0
bin	3300	0
bin	3400	0
bin	3500	0
bin	3600	0
bin	3700	0
bin	3800	0
bin	3900	0
bin	4000	80
bin	4100	0
bin	4200	0
bin	4300	0
bin	4400	0
bin	4500	0
bin	4600	80
bin	4700	0
bin	4800	0
bin	4900	0
bin	5000	0
bin	5100	0
bin	5200	0
bin	5300	0
bin	5400	0
bin	5500	0
bin	5600	0
bin	5700	0
statistic TcpAppExample.server.ppp[0].queue flowQueueingTime:histogram
field count 0
field mean -nan
field stddev nan
field min nan
field max nan
field sum 0
field sqrsum 0
attr interpolationmode none
attr recordingmode histogram
attr source queueingTime(demuxFlow(packetPulled))
attr title "flow queueing times"
attr unit s
bin	-inf	0
bin	0	0
bin	1	0
scalar TcpAppExample.server.ppp[0].queue incomingPackets:count 262
attr recordingmode count
attr source packetPushStarted
attr title "incoming packets, count"
attr unit pk
scalar TcpAppExample.server.ppp[0].queue incomingPacketLengths:sum 797472
attr interpolationmode none
attr recordingmode sum
attr source packetLength(packetPushStarted)
attr title "incoming packet lengths, sum"
attr unit b
statistic TcpAppExample.server.ppp[0].queue incomingPacketLengths:histogram
field count 262
field mean 3043.786259542
field stddev 1624.0187465069
field min 320
field max 4608
field sum 797472
field sqrsum 3115705344
attr interpolationmode none
attr recordingmode histogram
attr source packetLength(packetPushStarted)
attr title "incoming packet lengths"
attr unit b
bin	-inf	0
bin	0	0
bin	100	0
bin	200	0
bin	300	10
bin	400	0
bin	500	0
bin	600	0
bin	700	0
bin	800	0
bin	900	0
bin	1000	0
bin	1100	92
bin	1200	0
bin	1300	0
bin	1400	0
bin	1500	0
bin	1600	0
bin	1700	0
bin	1800	0
bin	1900	0
bin	2000	0
bin	2100	0
bin	2200	0
bin	2300	0
bin	2400	0
bin	2500	0
bin	2600	0
bin	2700	0
bin	2800	0
bin	2900	0
bin	3000	0
bin	3100	0
bin	3200	0
bin	3300	0
bin	3400	0
bin	3500	0
bin	3600	0
bin	3700	0
bin	3800	0
bin	3900	0
bin	4000	80
bin	4100	0
bin	4200	0
bin	4300	0
bin	4400	0
bin	4500	0
bin	4600	80
bin	4700	0
bin	4800	0
bin	4900	0
bin	5000	0
bin	5100	0
bin	5200	0
bin	5300	0
bin	5400	0
bin	5500	0
bin	5600	0
bin	5700	0
scalar TcpAppExample.server.ppp[0].queue droppedPacketsQueueOverflow:count 0
attr interpolationmode none
attr recordingmode count
attr source packetDropReasonIsQueueOverflow(packetDropped)
attr title "dropped packets: queue overflow, count"
attr unit pk
scalar TcpAppExample.server.ppp[0].queue droppedPacketLengthsQueueOverflow:sum 0
attr interpolationmode none
attr recordingmode sum
attr source packetLength(packetDropReasonIsQueueOverflow(packetDropped))
attr title "dropped packet lengths: queue overflow, sum"
attr unit b
scalar TcpAppExample.server.ppp[0].ppp transmissionState:timeavg 0.000812144
attr interpolationmode sample-hold
attr recordingmode timeavg
attr source transmissionStateChanged
attr title "tx state, timeavg"
scalar TcpAppExample.server.ppp[0].ppp rxPkOk:count 262
attr interpolationmode none
attr recordingmode count
attr source rxPkOk
attr title "packets received OK, count"
scalar TcpAppExample.server.ppp[0].ppp rxPkOk:sum(packetBytes) 13668
attr interpolationmode none
attr recordingmode sum(packetBytes)
attr source rxPkOk
attr title "packets received OK, sum(packetBytes)"
scalar TcpAppExample.server.ppp[0].ppp txPk:count 262
attr interpolationmode none
attr recordingmode count
attr source packetSentToLower
attr title "packets transmitted, count"
scalar TcpAppExample.server.ppp[0].ppp txPk:sum(packetBytes) 101518
attr interpolationmode none
attr recordingmode sum(packetBytes)
attr source packetSentToLower
attr title "packets transmitted, sum(packetBytes)"
scalar TcpAppExample.server.ppp[0].ppp rcvdPkFromHl:count 262
attr interpolationmode none
attr recordingmode count
attr source packetReceivedFromUpper
attr title "packets received from higher layer, count"
scalar TcpAppExample.server.ppp[0].ppp rcvdPkFromHl:sum(packetBytes) 99684
attr interpolationmode none
attr recordingmode sum(packetBytes)
attr source packetReceivedFromUpper
attr title "packets received from higher layer, sum(packetBytes)"
scalar TcpAppExample.server.ppp[0].ppp passedUpPk:count 262
attr interpolationmode none
attr recordingmode count
attr source packetSentToUpper
attr title "packets passed to higher layer, count"
scalar TcpAppExample.server.ppp[0].ppp passedUpPk:sum(packetBytes) 11834
attr interpolationmode none
attr recordingmode sum(packetBytes)
attr source packetSentToUpper
attr title "packets passed to higher layer, sum(packetBytes)"
scalar TcpAppExample.server.ppp[0].ppp packetDropIncorrectlyReceived:count 0
attr interpolationmode none
attr recordingmode count
attr source packetDropReasonIsIncorrectlyReceived(packetDropped)
attr title "packet drop: incorrectly received, count"
scalar TcpAppExample.server.ppp[0].ppp packetDropIncorrectlyReceived:sum(packetBytes) 0
attr interpolationmode none
attr recordingmode sum(packetBytes)
attr source packetDropReasonIsIncorrectlyReceived(packetDropped)
attr title "packet drop: incorrectly received, sum(packetBytes)"
scalar TcpAppExample.server.ppp[0].ppp packetDropInterfaceDown:count 0
attr interpolationmode none
attr recordingmode count
attr source packetDropReasonIsInterfaceDown(packetDropped)
attr title "packet drop: interface down, count"
scalar TcpAppExample.server.ppp[0].ppp packetDropInterfaceDown:sum(packetBytes) 0
attr interpolationmode none
attr recordingmode sum(packetBytes)
attr source packetDropReasonIsInterfaceDown(packetDropped)
attr title "packet drop: interface down, sum(packetBytes)"
scalar TcpAppExample.server.ppp[0] packetDropInterfaceDown:count 0
attr interpolationmode none
attr recordingmode count
attr source packetDropReasonIsInterfaceDown(packetDropped)
attr title "packet drops: interface down, count"
scalar TcpAppExample.server.ppp[0] packetDropInterfaceDown:sum(packetBytes) 0
attr interpolationmode none
attr recordingmode sum(packetBytes)
attr source packetDropReasonIsInterfaceDown(packetDropped)
attr title "packet drops: interface down, sum(packetBytes)"
scalar TcpAppExample.server.ppp[0] packetDropNoCarrier:count 0
attr interpolationmode none
attr recordingmode count
attr source packetDropReasonIsNoCarrier(packetDropped)
attr title "packet drops: no carrier, count"
scalar TcpAppExample.server.ppp[0] packetDropNoCarrier:sum(packetBytes) 0
attr interpolationmode none
attr recordingmode sum(packetBytes)
attr source packetDropReasonIsNoCarrier(packetDropped)
attr title "packet drops: no carrier, sum(packetBytes)"
scalar TcpAppExample.server.ipv4.ip packetDropAddressResolutionFailed:count 0
attr interpolationmode none
attr recordingmode count
attr source packetDropReasonIsAddressResolutionFailed(packetDropped)
attr title "packet drop: address resolution failed, count"
scalar TcpAppExample.server.ipv4.ip packetDropAddressResolutionFailed:sum(packetBytes) 0
attr interpolationmode none
attr recordingmode sum(packetBytes)
attr source packetDropReasonIsAddressResolutionFailed(packetDropped)
attr title "packet drop: address resolution failed, sum(packetBytes)"
scalar TcpAppExample.server.ipv4.ip packetDropHopLimitReached:count 0
attr interpolationmode none
attr recordingmode count
attr source packetDropReasonIsHopLimitReached(packetDropped)
attr title "packet drop: hop limit reached, count"
scalar TcpAppExample.server.ipv4.ip packetDropHopLimitReached:sum(packetBytes) 0
attr interpolationmode none
attr recordingmode sum(packetBytes)
attr source packetDropReasonIsHopLimitReached(packetDropped)
attr title "packet drop: hop limit reached, sum(packetBytes)"
scalar TcpAppExample.server.ipv4.ip packetDropForwardingDisabled:count 0
attr interpolationmode none
attr recordingmode count
attr source packetDropReasonIsForwardingDisabled(packetDropped)
attr title "packet drop: forwarding disabled, count"
scalar TcpAppExample.server.ipv4.ip packetDropForwardingDisabled:sum(packetBytes) 0
attr interpolationmode none
attr recordingmode sum(packetBytes)
attr source packetDropReasonIsForwardingDisabled(packetDropped)
attr title "packet drop: forwarding disabled, sum(packetBytes)"
scalar TcpAppExample.server.ipv4.ip packetDropNoInterfaceFound:count 0
attr interpolationmode none
attr recordingmode count
attr source packetDropReasonIsNoInterfaceFound(packetDropped)
attr title "packet drop: no interface found, count"
scalar TcpAppExample.server.ipv4.ip packetDropNoInterfaceFound:sum(packetBytes) 0
attr interpolationmode none
attr recordingmode sum(packetBytes)
attr source packetDropReasonIsNoInterfaceFound(packetDropped)
attr title "packet drop: no interface found, sum(packetBytes)"
scalar TcpAppExample.server.ipv4.ip packetDropNoRouteFound:count 0
attr interpolationmode none
attr recordingmode count
attr source packetDropReasonIsNoRouteFound(packetDropped)
attr title "packet drop: no route found, count"
scalar TcpAppExample.server.ipv4.ip packetDropNoRouteFound:sum(packetBytes) 0
attr interpolationmode none
attr recordingmode sum(packetBytes)
attr source packetDropReasonIsNoRouteFound(packetDropped)
attr title "packet drop: no route found, sum(packetBytes)"
scalar TcpAppExample.server.ipv4.ip packetDropUndefined:count 0
attr interpolationmode none
attr recordingmode count
attr source packetDropReasonIsUndefined(packetDropped)
attr title "packet drop: undefined, count"
scalar TcpAppExample.server.ipv4.ip packetDropUndefined:sum(packetBytes) 0
attr interpolationmode none
attr recordingmode sum(packetBytes)
attr source packetDropReasonIsUndefined(packetDropped)
attr title "packet drop: undefined, sum(packetBytes)"
scalar TcpAppExample.server.ipv4.arp arpResolutionFailed:count 0
attr recordingmode count
attr title "ARP failed resolutions, count"
scalar TcpAppExample.server.ipv4.arp arpResolutionCompleted:count 0
attr recordingmode count
attr title "ARP completed resolutions, count"
scalar TcpAppExample.server.ipv4.arp arpResolutionInitiated:count 0
attr recordingmode count
attr title "ARP initiated resolutions, count"
scalar TcpAppExample.server.ipv4.arp arpReplySent:count 0
attr recordingmode count
attr source arpReplySent
attr title "ARP replies sent, count"
scalar TcpAppExample.server.ipv4.arp arpReplySent:sum(packetBytes) 0
attr recordingmode sum(packetBytes)
attr source arpReplySent
attr title "ARP replies sent, sum(packetBytes)"
scalar TcpAppExample.server.ipv4.arp arpRequestSent:count 0
attr recordingmode count
attr source arpRequestSent
attr title "ARP request sent, count"
scalar TcpAppExample.server.ipv4.arp arpRequestSent:sum(packetBytes) 0
attr recordingmode sum(packetBytes)
attr source arpRequestSent
attr title "ARP request sent, sum(packetBytes)"
scalar TcpAppExample.server.udp packetReceived:count 0
attr interpolationmode none
attr recordingmode count
attr source packetReceived
attr title "packets received, count"
scalar TcpAppExample.server.udp packetReceived:sum(packetBytes) 0
attr interpolationmode none
attr recordingmode sum(packetBytes)
attr source packetReceived
attr title "packets received, sum(packetBytes)"
scalar TcpAppExample.server.udp packetSent:count 0
attr interpolationmode none
attr recordingmode count
attr source packetSent
attr title "packets sent, count"
scalar TcpAppExample.server.udp packetSent:sum(packetBytes) 0
attr interpolationmode none
attr recordingmode sum(packetBytes)
attr source packetSent
attr title "packets sent, sum(packetBytes)"
scalar TcpAppExample.server.udp passedUpPk:count 0
attr interpolationmode none
attr recordingmode count
attr source packetSentToUpper
attr title "packets passed up, count"
scalar TcpAppExample.server.udp droppedPkWrongPort:count 0
attr interpolationmode none
attr recordingmode count
attr source packetDropReasonIsNoPortFound(packetDropped)
attr title "packets dropped (wrong port), count"
scalar TcpAppExample.server.udp droppedPkBadChecksum:count 0
attr interpolationmode none
attr recordingmode count
attr source packetDropReasonIsIncorrectlyReceived(packetDropped)
attr title "packets dropped (checksum error), count"
scalar TcpAppExample.server.app[0].connection[0].source.normalProducer packets:count 92
attr recordingmode count
attr source packetPushed
attr title "packets, count"
attr unit pk
scalar TcpAppExample.server.app[0].connection[0].source.normalProducer packetLengths:sum 73600
attr interpolationmode none
attr recordingmode sum
attr source packetLength(packetPushed)
attr title "packet lengths, sum"
attr unit b
statistic TcpAppExample.server.app[0].connection[0].source.normalProducer packetLengths:histogram
field count 92
field mean 800
field stddev 0
field min 800
field max 800
field sum 73600
field sqrsum 58880000
attr interpolationmode none
attr recordingmode histogram
attr source packetLength(packetPushed)
attr title "packet lengths"
attr unit b
bin	-inf	0
bin	799	0
bin	800	92
bin	801	0
scalar TcpAppExample.server.app[0].connection[0].source.burstProducer packets:count 80
attr recordingmode count
attr source packetPushed
attr title "packets, count"
attr unit pk
scalar TcpAppExample.server.app[0].connection[0].source.burstProducer packetLengths:sum 640000
attr interpolationmode none
attr recordingmode sum
attr source packetLength(packetPushed)
attr title "packet lengths, sum"
attr unit b
statistic TcpAppExample.server.app[0].connection[0].source.burstProducer packetLengths:histogram
field count 80
field mean 8000
field stddev 0
field min 8000
field max 8000
field sum 640000
field sqrsum 5120000000
attr interpolationmode none
attr recordingmode histogram
attr source packetLength(packetPushed)
attr title "packet lengths"
attr unit b
bin	-inf	0
bin	7999	0
bin	8000	80
bin	8001	0
scalar TcpAppExample.server.app[0].connection[0].source.scheduler packets:count 0
attr recordingmode count
attr source packetPulled
attr title "packets, count"
attr unit pk
scalar TcpAppExample.server.app[0].connection[0].source.scheduler packetLengths:sum 0
attr interpolationmode none
attr recordingmode sum
attr source packetLength(packetPulled)
attr title "packet lengths, sum"
attr unit b
statistic TcpAppExample.server.app[0].connection[0].source.scheduler packetLengths:histogram
field count 0
field mean -nan
field stddev nan
field min nan
field max nan
field sum 0
field sqrsum 0
attr interpolationmode none
attr recordingmode histogram
attr source packetLength(packetPulled)
attr title "packet lengths"
attr unit b
bin	-inf	0
bin	0	0
bin	1	0
scalar TcpAppExample.server.app[0].connection[0].sink packets:count 9
attr recordingmode count
attr source packetPushed
attr title "packets, count"
attr unit pk
scalar TcpAppExample.server.app[0].connection[0].sink packetLengths:sum 10800
attr interpolationmode none
attr recordingmode sum
attr source packetLength(packetPushed)
attr title "packet lengths, sum"
attr unit b
statistic TcpAppExample.server.app[0].connection[0].sink packetLengths:histogram
field count 9
field mean 1200
field stddev 229.22478051031
field min 872
field max 1504
field sum 10800
field sqrsum 13380352
attr interpolationmode none
attr recordingmode histogram
attr source packetLength(packetPushed)
attr title "packet lengths"
attr unit b
bin	-inf	0
bin	700	0
bin	720	0
bin	740	0
bin	760	0
bin	780	0
bin	800	0
bin	820	0
bin	840	0
bin	860	1
bin	880	1
bin	900	0
bin	920	0
bin	940	0
bin	960	0
bin	980	0
bin	1000	0
bin	1020	0
bin	1040	0
bin	1060	0
bin	1080	1
bin	1100	1
bin	1120	0
bin	1140	0
bin	1160	1
bin	1180	0
bin	1200	0
bin	1220	0
bin	1240	0
bin	1260	0
bin	1280	0
bin	1300	0
bin	1320	1
bin	1340	0
bin	1360	1
bin	1380	0
bin	1400	0
bin	1420	0
bin	1440	1
bin	1460	0
bin	1480	0
bin	1500	1
bin	1520	0
bin	1540	0
bin	1560	0
bin	1580	0
bin	1600	0
bin	1620	0
bin	1640	0
bin	1660	0
bin	1680	0
statistic TcpAppExample.server.app[0].connection[0].sink meanBitLifeTimePerPacket:histogram
field count 9
field mean 0.00016678888888889
field stddev 3.4926080672058e-05
field min 0.0001249
field max 0.0002371
field sum 0.0015011
field sqrsum 2.6012545e-07
attr interpolationmode none
attr recordingmode histogram
attr source weightedMeanPerGroup(groupRegionsPerPacket(lifeTimePerRegion(packetPushed)))
attr title "mean bit life time per packet"
attr unit s
bin	-inf	0
bin	9.6e-05	0
bin	9.8e-05	0
bin	0.0001	0
bin	0.000102	0
bin	0.000104	0
bin	0.000106	0
bin	0.000108	0
bin	0.00011	0
bin	0.000112	0
bin	0.000114	0
bin	0.000116	0
bin	0.000118	0
bin	0.00012	0
bin	0.000122	0
bin	0.000124	1
bin	0.000126	1
bin	0.000128	0
bin	0.00013	0
bin	0.000132	0
bin	0.000134	0
bin	0.000136	0
bin	0.000138	0
bin	0.00014	0
bin	0.000142	0
bin	0.000144	0
bin	0.000146	1
bin	0.000148	1
bin	0.00015	0
bin	0.000152	0
bin	0.000154	0
bin	0.000156	0
bin	0.000158	0
bin	0.00016	0
bin	0.000162	0
bin	0.000164	0
bin	0.000166	0
bin	0.000168	0
bin	0.00017	1
bin	0.000172	0
bin	0.000174	1
bin	0.000176	0
bin	0.000178	0
bin	0.00018	1
bin	0.000182	0
bin	0.000184	0
bin	0.000186	0
bin	0.000188	1
bin	0.00019	0
bin	0.000192	0
bin	0.000194	0
bin	0.000196	0
bin	0.000198	0
bin	0.0002	0
bin	0.000202	0
bin	0.000204	0
bin	0.000206	0
bin	0.000208	0
bin	0.00021	0
bin	0.000212	0
bin	0.000214	0
bin	0.000216	0
bin	0.000218	0
bin	0.00022	0
bin	0.000222	0
bin	0.000224	0
bin	0.000226	0
bin	0.000228	0
bin	0.00023	0
bin	0.000232	0
bin	0.000234	0
bin	0.000236	1
bin	0.000238	0
bin	0.00024	0
bin	0.000242	0
bin	0.000244	0
bin	0.000246	0
bin	0.000248	0
bin	0.00025	0
bin	0.000252	0
bin	0.000254	0
bin	0.000256	0
bin	0.000258	0
bin	0.00026	0
bin	0.000262	0
bin	0.000264	0
bin	0.000266	0
statistic TcpAppExample.server.app[0].connection[0].sink packetJitter:histogram
field count 9
field mean 2.0188888888889e-05
field stddev 8.8086526274517e-05
field min -6.58e-05
field max 0.0002371
field sum 0.0001817
field sqrsum 6.574221e-08
attr interpolationmode none
attr recordingmode histogram
attr source jitter(weightedMeanPerGroup(groupRegionsPerPacket(lifeTimePerRegion(packetPushed))))
attr title "packet jitter"
attr unit s
bin	-inf	0
bin	-0.00015	0
bin	-0.00014	0
bin	-0.00013	0
bin	-0.00012	0
bin	-0.00011	0
bin	-0.0001	0
bin	-9e-05	0
bin	-8e-05	0
bin	-7e-05	1
bin	-6e-05	0
bin	-5e-05	1
bin	-4e-05	0
bin	-3e-05	0
bin	-2e-05	2
bin	-1e-05	0
bin	0	1
bin	1e-05	0
bin	2e-05	2
bin	3e-05	1
bin	4e-05	0
bin	5e-05	0
bin	6e-05	0
bin	7e-05	0
bin	8e-05	0
bin	9e-05	0
bin	0.0001	0
bin	0.00011	0
bin	0.00012	0
bin	0.00013	0
bin	0.00014	0
bin	0.00015	0
bin	0.00016	0
bin	0.00017	0
bin	0.00018	0
bin	0.00019	0
bin	0.0002	0
bin	0.00021	0
bin	0.00022	0
bin	0.00023	1
bin	0.00024	0
bin	0.00025	0
bin	0.00026	0
bin	0.00027	0
bin	0.00028	0
bin	0.00029	0
bin	0.0003	0
bin	0.00031	0
bin	0.00032	0
statistic TcpAppExample.server.app[0].connection[0].sink packetDelayDifferenceToMean:histogram
field count 9
field mean 1.1536305114638e-05
field stddev 2.6077781062266e-05
field min -2.4657142857143e-05
field max 5.2866666666667e-05
field sum 0.00010382674603175
field sqrsum 6.6381823423343e-09
attr interpolationmode none
attr recordingmode histogram
attr source differenceToMean(weightedMeanPerGroup(groupRegionsPerPacket(lifeTimePerRegion(packetPushed))))
attr title "packet delay difference to mean"
attr unit s
bin	-inf	0
bin	-4.6e-05	0
bin	-4.4e-05	0
bin	-4.2e-05	0
bin	-4e-05	0
bin	-3.8e-05	0
bin	-3.6e-05	0
bin	-3.4e-05	0
bin	-3.2e-05	0
bin	-3e-05	0
bin	-2.8e-05	0
bin	-2.6e-05	1
bin	-2.4e-05	0
bin	-2.2e-05	0
bin	-2e-05	0
bin	-1.8e-05	0
bin	-1.6e-05	1
bin	-1.4e-05	0
bin	-1.2e-05	1
bin	-1e-05	0
bin	-8e-06	0
bin	-6e-06	0
bin	-4e-06	0
bin	-2e-06	0
bin	0	1
bin	2e-06	0
bin	4e-06	0
bin	6e-06	0
bin	8e-06	0
bin	1e-05	1
bin	1.2e-05	0
bin	1.4e-05	0
bin	1.6e-05	0
bin	1.8e-05	0
bin	2e-05	0
bin	2.2e-05	1
bin	2.4e-05	0
bin	2.6e-05	0
bin	2.8e-05	0
bin	3e-05	0
bin	3.2e-05	1
bin	3.4e-05	1
bin	3.6e-05	0
bin	3.8e-05	0
bin	4e-05	0
bin	4.2e-05	0
bin	4.4e-05	0
bin	4.6e-05	0
bin	4.8e-05	0
bin	5e-05	0
bin	5.2e-05	1
bin	5.4e-05	0
bin	5.6e-05	0
bin	5.8e-05	0
bin	6e-05	0
bin	6.2e-05	0
bin	6.4e-05	0
bin	6.6e-05	0
bin	6.8e-05	0
bin	7e-05	0
bin	7.2e-05	0
bin	7.4e-05	0
statistic TcpAppExample.server.app[0].connection[0].sink packetDelayVariation:histogram
field count 9
field mean 3.3824924094347e-05
field stddev 1.344296699446e-05
field min 0
field max 4.6033128426243e-05
field sum 0.00030442431684912
field sqrsum 1.1742836302808e-08
attr recordingmode histogram
attr source stddev(weightedMeanPerGroup(groupRegionsPerPacket(lifeTimePerRegion(packetPushed))))
attr title "packet delay variation"
attr unit s
bin	-inf	0
bin	0	1
bin	1e-06	0
bin	2e-06	0
bin	3e-06	0
bin	4e-06	0
bin	5e-06	0
bin	6e-06	0
bin	7e-06	0
bin	8e-06	0
bin	9e-06	0
bin	1e-05	0
bin	1.1e-05	0
bin	1.2e-05	0
bin	1.3e-05	0
bin	1.4e-05	0
bin	1.5e-05	0
bin	1.6e-05	0
bin	1.7e-05	0
bin	1.8e-05	0
bin	1.9e-05	0
bin	2e-05	0
bin	2.1e-05	0
bin	2.2e-05	0
bin	2.3e-05	0
bin	2.4e-05	0
bin	2.5e-05	0
bin	2.6e-05	0
bin	2.7e-05	0
bin	2.8e-05	0
bin	2.9e-05	0
bin	3e-05	0
bin	3.1e-05	0
bin	3.2e-05	2
bin	3.3e-05	0
bin	3.4e-05	1
bin	3.5e-05	0
bin	3.6e-05	1
bin	3.7e-05	0
bin	3.8e-05	1
bin	3.9e-05	0
bin	4e-05	0
bin	4.1e-05	1
bin	4.2e-05	1
bin	4.3e-05	0
bin	4.4e-05	0
bin	4.5e-05	0
bin	4.6e-05	1
bin	4.7e-05	0
bin	4.8e-05	0
bin	4.9e-05	0
bin	5e-05	0
bin	5.1e-05	0
bin	5.2e-05	0
bin	5.3e-05	0
bin	5.4e-05	0
bin	5.5e-05	0
bin	5.6e-05	0
bin	5.7e-05	0
bin	5.8e-05	0
scalar TcpAppExample.server.app[0].connection[0].sink droppedPackets:count 9
attr recordingmode count
attr source packetDropped
attr title "dropped packets, count"
attr unit pk
scalar TcpAppExample.server.app[0].connection[0].sink droppedPacketLengths:sum 10800
attr interpolationmode none
attr recordingmode sum
attr source packetLength(packetDropped)
attr title "dropped packet lengths, sum"
attr unit b
statistic TcpAppExample.server.app[0].connection[0].sink droppedPacketLengths:histogram
field count 9
field mean 1200
field stddev 229.22478051031
field min 872
field max 1504
field sum 10800
field sqrsum 13380352
attr interpolationmode none
attr recordingmode histogram
attr source packetLength(packetDropped)
attr title "dropped packet lengths"
attr unit b
bin	-inf	0
bin	700	0
bin	720	0
bin	740	0
bin	760	0
bin	780	0
bin	800	0
bin	820	0
bin	840	0
bin	860	1
bin	880	1
bin	900	0
bin	920	0
bin	940	0
bin	960	0
bin	980	0
bin	1000	0
bin	1020	0
bin	1040	0
bin	1060	0
bin	1080	1
bin	1100	1
bin	1120	0
bin	1140	0
bin	1160	1
bin	1180	0
bin	1200	0
bin	1220	0
bin	1240	0
bin	1260	0
bin	1280	0
bin	1300	0
bin	1320	1
bin	1340	0
bin	1360	1
bin	1380	0
bin	1400	0
bin	1420	0
bin	1440	1
bin	1460	0
bin	1480	0
bin	1500	1
bin	1520	0
bin	1540	0
bin	1560	0
bin	1580	0
bin	1600	0
bin	1620	0
bin	1640	0
bin	1660	0
bin	1680	0

