version 3
run RequestResponseTraffic-0-20260206-21:54:28-3558660
attr configname RequestResponseTraffic
attr datetime 20260206-21:54:28
attr datetimef 20260206-215428
attr experiment RequestResponseTraffic
attr inifile omnetpp.ini
attr iterationvars ""
attr iterationvarsd ""
attr iterationvarsf ""
attr measurement ""
attr network TcpAppExample
attr processid 3558660
attr repetition 0
attr replication #0
attr resultdir results
attr runnumber 0
attr seedset 0
config **.param-recording false
config image-path /home/attila/projects/inet/images
config output-scalar-file results/omnetpp.ini-RequestResponseTraffic-#0.sca
config output-scalar-precision 17
config output-vector-file results/omnetpp.ini-RequestResponseTraffic-#0.vec
config output-vector-precision 17
config record-eventlog false
config sim-time-limit 100s
config sim-time-limit 100s
config *.server.app[0].listener.serverConnectionModuleType "\"inet.applications.tcpapp.TcpRequestResponseApp\""
config *.server.app[0].connection[*].sink.tokenGenerator[0].numTokensPerPacket "intuniform(1, 5)"
config *.server.app[0].connection[*].source.provider[0].providingInterval "uniform(0s, 2s)"
config *.server.app[0].connection[*].source.provider[0].packetLength "intuniform(100B, 1000B)"
config *.server.app[0].connection[*].sink.tokenGenerator[1].numTokensPerPacket "intuniform(10, 20)"
config *.server.app[0].connection[*].source.provider[1].providingInterval "uniform(0s, 0.2s)"
config *.server.app[0].connection[*].source.provider[1].packetLength "intuniform(1000B, 10000B)"
config network TcpAppExample
config *.*.numApps 1
config *.client.app[0].typename TcpClientApp
config *.client.app[0].io.connectAddress "\"server\""
config *.client.app[0].io.connectPort 1000
config *.client.app[0].source.productionInterval "uniform(0s, 20s)"
config *.client.app[0].source.packetLength "intuniform(100B, 200B)"
config *.client.app[0].source.packetData "intuniform(0, 1)"
config *.server.app[0].typename TcpServerApp
config *.server.app[0].listener.localPort 1000

scalar TcpAppExample.client.lo[0].lo rcvdPkFromHl:count 0
scalar TcpAppExample.client.lo[0].lo rcvdPkFromHl:sum(packetBytes) 0
scalar TcpAppExample.client.lo[0].lo passedUpPk:count 0
scalar TcpAppExample.client.lo[0].lo passedUpPk:sum(packetBytes) 0
scalar TcpAppExample.client.lo[0] packetDropInterfaceDown:count 0
scalar TcpAppExample.client.lo[0] packetDropInterfaceDown:sum(packetBytes) 0
scalar TcpAppExample.client.lo[0] packetDropNoCarrier:count 0
scalar TcpAppExample.client.lo[0] packetDropNoCarrier:sum(packetBytes) 0
scalar TcpAppExample.client.ppp[0].queue queueLength:last 0
scalar TcpAppExample.client.ppp[0].queue queueLength:max 0
scalar TcpAppExample.client.ppp[0].queue queueLength:timeavg 0
scalar TcpAppExample.client.ppp[0].queue queueBitLength:last 0
scalar TcpAppExample.client.ppp[0].queue queueBitLength:max 0
scalar TcpAppExample.client.ppp[0].queue queueBitLength:timeavg 0
scalar TcpAppExample.client.ppp[0].queue outgoingPackets:count 973
scalar TcpAppExample.client.ppp[0].queue outgoingPacketLengths:sum 322688
scalar TcpAppExample.client.ppp[0].queue incomingPackets:count 973
scalar TcpAppExample.client.ppp[0].queue incomingPacketLengths:sum 322688
scalar TcpAppExample.client.ppp[0].queue droppedPacketsQueueOverflow:count 0
scalar TcpAppExample.client.ppp[0].queue droppedPacketLengthsQueueOverflow:sum 0
scalar TcpAppExample.client.ppp[0].ppp transmissionState:timeavg 0.00037717599999999361
scalar TcpAppExample.client.ppp[0].ppp rxPkOk:count 973
scalar TcpAppExample.client.ppp[0].ppp rxPkOk:sum(packetBytes) 534393
scalar TcpAppExample.client.ppp[0].ppp txPk:count 973
scalar TcpAppExample.client.ppp[0].ppp txPk:sum(packetBytes) 47147
scalar TcpAppExample.client.ppp[0].ppp rcvdPkFromHl:count 973
scalar TcpAppExample.client.ppp[0].ppp rcvdPkFromHl:sum(packetBytes) 40336
scalar TcpAppExample.client.ppp[0].ppp passedUpPk:count 973
scalar TcpAppExample.client.ppp[0].ppp passedUpPk:sum(packetBytes) 527582
scalar TcpAppExample.client.ppp[0].ppp packetDropIncorrectlyReceived:count 0
scalar TcpAppExample.client.ppp[0].ppp packetDropIncorrectlyReceived:sum(packetBytes) 0
scalar TcpAppExample.client.ppp[0].ppp packetDropInterfaceDown:count 0
scalar TcpAppExample.client.ppp[0].ppp packetDropInterfaceDown:sum(packetBytes) 0
scalar TcpAppExample.client.ppp[0] packetDropInterfaceDown:count 0
scalar TcpAppExample.client.ppp[0] packetDropInterfaceDown:sum(packetBytes) 0
scalar TcpAppExample.client.ppp[0] packetDropNoCarrier:count 0
scalar TcpAppExample.client.ppp[0] packetDropNoCarrier:sum(packetBytes) 0
scalar TcpAppExample.client.ipv4.ip packetDropAddressResolutionFailed:count 0
scalar TcpAppExample.client.ipv4.ip packetDropAddressResolutionFailed:sum(packetBytes) 0
scalar TcpAppExample.client.ipv4.ip packetDropHopLimitReached:count 0
scalar TcpAppExample.client.ipv4.ip packetDropHopLimitReached:sum(packetBytes) 0
scalar TcpAppExample.client.ipv4.ip packetDropForwardingDisabled:count 0
scalar TcpAppExample.client.ipv4.ip packetDropForwardingDisabled:sum(packetBytes) 0
scalar TcpAppExample.client.ipv4.ip packetDropLifetimeExpired:count 0
scalar TcpAppExample.client.ipv4.ip packetDropLifetimeExpired:sum(packetBytes) 0
scalar TcpAppExample.client.ipv4.ip packetDropNoInterfaceFound:count 0
scalar TcpAppExample.client.ipv4.ip packetDropNoInterfaceFound:sum(packetBytes) 0
scalar TcpAppExample.client.ipv4.ip packetDropNoRouteFound:count 0
scalar TcpAppExample.client.ipv4.ip packetDropNoRouteFound:sum(packetBytes) 0
scalar TcpAppExample.client.ipv4.ip packetDropUndefined:count 0
scalar TcpAppExample.client.ipv4.ip packetDropUndefined:sum(packetBytes) 0
scalar TcpAppExample.client.ipv4.arp arpResolutionFailed:count 0
scalar TcpAppExample.client.ipv4.arp arpResolutionCompleted:count 0
scalar TcpAppExample.client.ipv4.arp arpResolutionInitiated:count 0
scalar TcpAppExample.client.ipv4.arp arpReplySent:count 0
scalar TcpAppExample.client.ipv4.arp arpReplySent:sum(packetBytes) 0
scalar TcpAppExample.client.ipv4.arp arpRequestSent:count 0
scalar TcpAppExample.client.ipv4.arp arpRequestSent:sum(packetBytes) 0
scalar TcpAppExample.client.udp packetReceived:count 0
scalar TcpAppExample.client.udp packetReceived:sum(packetBytes) 0
scalar TcpAppExample.client.udp packetSent:count 0
scalar TcpAppExample.client.udp packetSent:sum(packetBytes) 0
scalar TcpAppExample.client.udp passedUpPk:count 0
scalar TcpAppExample.client.udp droppedPkWrongPort:count 0
scalar TcpAppExample.client.udp droppedPkBadChecksum:count 0
scalar TcpAppExample.client.app[0].source packets:count 10
scalar TcpAppExample.client.app[0].source packetLengths:sum 11296
scalar TcpAppExample.client.app[0].sink packets:count 962
scalar TcpAppExample.client.app[0].sink packetLengths:sum 3909264
scalar TcpAppExample.client.app[0].sink droppedPackets:count 962
scalar TcpAppExample.client.app[0].sink droppedPacketLengths:sum 3909264
scalar TcpAppExample.server.lo[0].lo rcvdPkFromHl:count 0
scalar TcpAppExample.server.lo[0].lo rcvdPkFromHl:sum(packetBytes) 0
scalar TcpAppExample.server.lo[0].lo passedUpPk:count 0
scalar TcpAppExample.server.lo[0].lo passedUpPk:sum(packetBytes) 0
scalar TcpAppExample.server.lo[0] packetDropInterfaceDown:count 0
scalar TcpAppExample.server.lo[0] packetDropInterfaceDown:sum(packetBytes) 0
scalar TcpAppExample.server.lo[0] packetDropNoCarrier:count 0
scalar TcpAppExample.server.lo[0] packetDropNoCarrier:sum(packetBytes) 0
scalar TcpAppExample.server.ppp[0].queue queueLength:last 0
scalar TcpAppExample.server.ppp[0].queue queueLength:max 13
scalar TcpAppExample.server.ppp[0].queue queueLength:timeavg 0.022841018092490034
scalar TcpAppExample.server.ppp[0].queue queueBitLength:last 0
scalar TcpAppExample.server.ppp[0].queue queueBitLength:max 59904
scalar TcpAppExample.server.ppp[0].queue queueBitLength:timeavg 105.24922756219412
scalar TcpAppExample.server.ppp[0].queue outgoingPackets:count 973
scalar TcpAppExample.server.ppp[0].queue outgoingPacketLengths:sum 4220656
scalar TcpAppExample.server.ppp[0].queue incomingPackets:count 973
scalar TcpAppExample.server.ppp[0].queue incomingPacketLengths:sum 4220656
scalar TcpAppExample.server.ppp[0].queue droppedPacketsQueueOverflow:count 0
scalar TcpAppExample.server.ppp[0].queue droppedPacketLengthsQueueOverflow:sum 0
scalar TcpAppExample.server.ppp[0].ppp transmissionState:timeavg 0.0042751439999999434
scalar TcpAppExample.server.ppp[0].ppp rxPkOk:count 973
scalar TcpAppExample.server.ppp[0].ppp rxPkOk:sum(packetBytes) 47147
scalar TcpAppExample.server.ppp[0].ppp txPk:count 973
scalar TcpAppExample.server.ppp[0].ppp txPk:sum(packetBytes) 534393
scalar TcpAppExample.server.ppp[0].ppp rcvdPkFromHl:count 973
scalar TcpAppExample.server.ppp[0].ppp rcvdPkFromHl:sum(packetBytes) 527582
scalar TcpAppExample.server.ppp[0].ppp passedUpPk:count 973
scalar TcpAppExample.server.ppp[0].ppp passedUpPk:sum(packetBytes) 40336
scalar TcpAppExample.server.ppp[0].ppp packetDropIncorrectlyReceived:count 0
scalar TcpAppExample.server.ppp[0].ppp packetDropIncorrectlyReceived:sum(packetBytes) 0
scalar TcpAppExample.server.ppp[0].ppp packetDropInterfaceDown:count 0
scalar TcpAppExample.server.ppp[0].ppp packetDropInterfaceDown:sum(packetBytes) 0
scalar TcpAppExample.server.ppp[0] packetDropInterfaceDown:count 0
scalar TcpAppExample.server.ppp[0] packetDropInterfaceDown:sum(packetBytes) 0
scalar TcpAppExample.server.ppp[0] packetDropNoCarrier:count 0
scalar TcpAppExample.server.ppp[0] packetDropNoCarrier:sum(packetBytes) 0
scalar TcpAppExample.server.ipv4.ip packetDropAddressResolutionFailed:count 0
scalar TcpAppExample.server.ipv4.ip packetDropAddressResolutionFailed:sum(packetBytes) 0
scalar TcpAppExample.server.ipv4.ip packetDropHopLimitReached:count 0
scalar TcpAppExample.server.ipv4.ip packetDropHopLimitReached:sum(packetBytes) 0
scalar TcpAppExample.server.ipv4.ip packetDropForwardingDisabled:count 0
scalar TcpAppExample.server.ipv4.ip packetDropForwardingDisabled:sum(packetBytes) 0
scalar TcpAppExample.server.ipv4.ip packetDropLifetimeExpired:count 0
scalar TcpAppExample.server.ipv4.ip packetDropLifetimeExpired:sum(packetBytes) 0
scalar TcpAppExample.server.ipv4.ip packetDropNoInterfaceFound:count 0
scalar TcpAppExample.server.ipv4.ip packetDropNoInterfaceFound:sum(packetBytes) 0
scalar TcpAppExample.server.ipv4.ip packetDropNoRouteFound:count 0
scalar TcpAppExample.server.ipv4.ip packetDropNoRouteFound:sum(packetBytes) 0
scalar TcpAppExample.server.ipv4.ip packetDropUndefined:count 0
scalar TcpAppExample.server.ipv4.ip packetDropUndefined:sum(packetBytes) 0
scalar TcpAppExample.server.ipv4.arp arpResolutionFailed:count 0
scalar TcpAppExample.server.ipv4.arp arpResolutionCompleted:count 0
scalar TcpAppExample.server.ipv4.arp arpResolutionInitiated:count 0
scalar TcpAppExample.server.ipv4.arp arpReplySent:count 0
scalar TcpAppExample.server.ipv4.arp arpReplySent:sum(packetBytes) 0
scalar TcpAppExample.server.ipv4.arp arpRequestSent:count 0
scalar TcpAppExample.server.ipv4.arp arpRequestSent:sum(packetBytes) 0
scalar TcpAppExample.server.udp packetReceived:count 0
scalar TcpAppExample.server.udp packetReceived:sum(packetBytes) 0
scalar TcpAppExample.server.udp packetSent:count 0
scalar TcpAppExample.server.udp packetSent:sum(packetBytes) 0
scalar TcpAppExample.server.udp passedUpPk:count 0
scalar TcpAppExample.server.udp droppedPkWrongPort:count 0
scalar TcpAppExample.server.udp droppedPkBadChecksum:count 0
scalar TcpAppExample.server.app[0].connection[0].source.provider[0] packets:count 14
scalar TcpAppExample.server.app[0].connection[0].source.provider[0] packetLengths:sum 50584
scalar TcpAppExample.server.app[0].connection[0].source.provider[1] packets:count 82
scalar TcpAppExample.server.app[0].connection[0].source.provider[1] packetLengths:sum 3858680
scalar TcpAppExample.server.app[0].connection[0].source.server[0] numTokensDepleted:count 4
scalar TcpAppExample.server.app[0].connection[0].source.server[0] removedTokens:sum 19
scalar TcpAppExample.server.app[0].connection[0].source.server[0] addedTokens:sum 15
scalar TcpAppExample.server.app[0].connection[0].source.server[0] incomingPackets:count 14
scalar TcpAppExample.server.app[0].connection[0].source.server[0] incomingPacketLengths:sum 50584
scalar TcpAppExample.server.app[0].connection[0].source.server[0] outgoingPackets:count 14
scalar TcpAppExample.server.app[0].connection[0].source.server[0] outgoingPacketLengths:sum 50584
scalar TcpAppExample.server.app[0].connection[0].source.server[1] numTokensDepleted:count 5
scalar TcpAppExample.server.app[0].connection[0].source.server[1] removedTokens:sum 658
scalar TcpAppExample.server.app[0].connection[0].source.server[1] addedTokens:sum 82
scalar TcpAppExample.server.app[0].connection[0].source.server[1] incomingPackets:count 82
scalar TcpAppExample.server.app[0].connection[0].source.server[1] incomingPacketLengths:sum 3858680
scalar TcpAppExample.server.app[0].connection[0].source.server[1] outgoingPackets:count 82
scalar TcpAppExample.server.app[0].connection[0].source.server[1] outgoingPacketLengths:sum 3858680
scalar TcpAppExample.server.app[0].connection[0].source.multiplexer packets:count 0
scalar TcpAppExample.server.app[0].connection[0].source.multiplexer packetLengths:sum 0
scalar TcpAppExample.server.app[0].connection[0].source.tokenGenerator tokensCreated:count 10
scalar TcpAppExample.server.app[0].connection[0].source.tokenGenerator numTokensCreated:sum 9
scalar TcpAppExample.server.app[0].connection[0].sink.queue queueLength:last 0
scalar TcpAppExample.server.app[0].connection[0].sink.queue queueLength:max 0
scalar TcpAppExample.server.app[0].connection[0].sink.queue queueLength:timeavg 0
scalar TcpAppExample.server.app[0].connection[0].sink.queue queueBitLength:last 0
scalar TcpAppExample.server.app[0].connection[0].sink.queue queueBitLength:max 0
scalar TcpAppExample.server.app[0].connection[0].sink.queue queueBitLength:timeavg 0
scalar TcpAppExample.server.app[0].connection[0].sink.queue outgoingPackets:count 10
scalar TcpAppExample.server.app[0].connection[0].sink.queue outgoingPacketLengths:sum 11296
scalar TcpAppExample.server.app[0].connection[0].sink.queue incomingPackets:count 10
scalar TcpAppExample.server.app[0].connection[0].sink.queue incomingPacketLengths:sum 11296
scalar TcpAppExample.server.app[0].connection[0].sink.queue droppedPacketsQueueOverflow:count 0
scalar TcpAppExample.server.app[0].connection[0].sink.queue droppedPacketLengthsQueueOverflow:sum 0
scalar TcpAppExample.server.app[0].connection[0].sink.server numTokensDepleted:count 0
scalar TcpAppExample.server.app[0].connection[0].sink.server removedTokens:sum 0
scalar TcpAppExample.server.app[0].connection[0].sink.server addedTokens:sum 9
scalar TcpAppExample.server.app[0].connection[0].sink.server incomingPackets:count 10
scalar TcpAppExample.server.app[0].connection[0].sink.server incomingPacketLengths:sum 11296
scalar TcpAppExample.server.app[0].connection[0].sink.server outgoingPackets:count 10
scalar TcpAppExample.server.app[0].connection[0].sink.server outgoingPacketLengths:sum 11296
scalar TcpAppExample.server.app[0].connection[0].sink.classifier packets:count 10
scalar TcpAppExample.server.app[0].connection[0].sink.classifier packetLengths:sum 11296
scalar TcpAppExample.server.app[0].connection[0].sink.tokenGenerator[0] tokensCreated:count 6
scalar TcpAppExample.server.app[0].connection[0].sink.tokenGenerator[0] numTokensCreated:sum 15
scalar TcpAppExample.server.app[0].connection[0].sink.tokenGenerator[1] tokensCreated:count 6
scalar TcpAppExample.server.app[0].connection[0].sink.tokenGenerator[1] numTokensCreated:sum 82
scalar TcpAppExample.client.ppp[0].queue queueingTime:histogram:count 973
scalar TcpAppExample.client.ppp[0].queue queueingTime:histogram:sumweights 973
scalar TcpAppExample.client.ppp[0].queue queueingTime:histogram:mean 0
scalar TcpAppExample.client.ppp[0].queue queueingTime:histogram:stddev 0
scalar TcpAppExample.client.ppp[0].queue queueingTime:histogram:min 0
scalar TcpAppExample.client.ppp[0].queue queueingTime:histogram:max 0
scalar TcpAppExample.client.ppp[0].queue queueingTime:histogram:numbins 50
scalar TcpAppExample.client.ppp[0].queue queueingTime:histogram:rangemin -0.5
scalar TcpAppExample.client.ppp[0].queue queueingTime:histogram:rangemax 0.5
scalar TcpAppExample.client.ppp[0].queue queueingTime:histogram:underflows 0
scalar TcpAppExample.client.ppp[0].queue queueingTime:histogram:overflows 0
scalar TcpAppExample.client.ppp[0].queue outgoingPacketLengths:histogram:count 973
scalar TcpAppExample.client.ppp[0].queue outgoingPacketLengths:histogram:sumweights 973
scalar TcpAppExample.client.ppp[0].queue outgoingPacketLengths:histogram:mean 331.64234326824254
scalar TcpAppExample.client.ppp[0].queue outgoingPacketLengths:histogram:stddev 115.8188752654526
scalar TcpAppExample.client.ppp[0].queue outgoingPacketLengths:histogram:min 320
scalar TcpAppExample.client.ppp[0].queue outgoingPacketLengths:histogram:max 1784
scalar TcpAppExample.client.ppp[0].queue outgoingPacketLengths:histogram:numbins 89
scalar TcpAppExample.client.ppp[0].queue outgoingPacketLengths:histogram:rangemin 20
scalar TcpAppExample.client.ppp[0].queue outgoingPacketLengths:histogram:rangemax 1800
scalar TcpAppExample.client.ppp[0].queue outgoingPacketLengths:histogram:underflows 0
scalar TcpAppExample.client.ppp[0].queue outgoingPacketLengths:histogram:overflows 0
scalar TcpAppExample.client.ppp[0].queue flowQueueingTime:histogram:count 0
scalar TcpAppExample.client.ppp[0].queue flowQueueingTime:histogram:sumweights 0
scalar TcpAppExample.client.ppp[0].queue flowQueueingTime:histogram:mean -nan
scalar TcpAppExample.client.ppp[0].queue flowQueueingTime:histogram:stddev nan
scalar TcpAppExample.client.ppp[0].queue flowQueueingTime:histogram:min nan
scalar TcpAppExample.client.ppp[0].queue flowQueueingTime:histogram:max nan
scalar TcpAppExample.client.ppp[0].queue flowQueueingTime:histogram:numbins 1
scalar TcpAppExample.client.ppp[0].queue flowQueueingTime:histogram:rangemin 0
scalar TcpAppExample.client.ppp[0].queue flowQueueingTime:histogram:rangemax 1
scalar TcpAppExample.client.ppp[0].queue flowQueueingTime:histogram:underflows 0
scalar TcpAppExample.client.ppp[0].queue flowQueueingTime:histogram:overflows 0
scalar TcpAppExample.client.ppp[0].queue incomingPacketLengths:histogram:count 973
scalar TcpAppExample.client.ppp[0].queue incomingPacketLengths:histogram:sumweights 973
scalar TcpAppExample.client.ppp[0].queue incomingPacketLengths:histogram:mean 331.64234326824254
scalar TcpAppExample.client.ppp[0].queue incomingPacketLengths:histogram:stddev 115.8188752654526
scalar TcpAppExample.client.ppp[0].queue incomingPacketLengths:histogram:min 320
scalar TcpAppExample.client.ppp[0].queue incomingPacketLengths:histogram:max 1784
scalar TcpAppExample.client.ppp[0].queue incomingPacketLengths:histogram:numbins 89
scalar TcpAppExample.client.ppp[0].queue incomingPacketLengths:histogram:rangemin 20
scalar TcpAppExample.client.ppp[0].queue incomingPacketLengths:histogram:rangemax 1800
scalar TcpAppExample.client.ppp[0].queue incomingPacketLengths:histogram:underflows 0
scalar TcpAppExample.client.ppp[0].queue incomingPacketLengths:histogram:overflows 0
scalar TcpAppExample.client.app[0].source packetLengths:histogram:count 10
scalar TcpAppExample.client.app[0].source packetLengths:histogram:sumweights 10
scalar TcpAppExample.client.app[0].source packetLengths:histogram:mean 1129.5999999999999
scalar TcpAppExample.client.app[0].source packetLengths:histogram:stddev 213.25998739149887
scalar TcpAppExample.client.app[0].source packetLengths:histogram:min 816
scalar TcpAppExample.client.app[0].source packetLengths:histogram:max 1464
scalar TcpAppExample.client.app[0].source packetLengths:histogram:numbins 50
scalar TcpAppExample.client.app[0].source packetLengths:histogram:rangemin 640
scalar TcpAppExample.client.app[0].source packetLengths:histogram:rangemax 1640
scalar TcpAppExample.client.app[0].source packetLengths:histogram:underflows 0
scalar TcpAppExample.client.app[0].source packetLengths:histogram:overflows 0
scalar TcpAppExample.client.app[0].sink packetLengths:histogram:count 962
scalar TcpAppExample.client.app[0].sink packetLengths:histogram:sumweights 962
scalar TcpAppExample.client.app[0].sink packetLengths:histogram:mean 4063.6839916839917
scalar TcpAppExample.client.app[0].sink packetLengths:histogram:stddev 773.92694329788355
scalar TcpAppExample.client.app[0].sink packetLengths:histogram:min 48
scalar TcpAppExample.client.app[0].sink packetLengths:histogram:max 4288
scalar TcpAppExample.client.app[0].sink packetLengths:histogram:numbins 54
scalar TcpAppExample.client.app[0].sink packetLengths:histogram:rangemin 0
scalar TcpAppExample.client.app[0].sink packetLengths:histogram:rangemax 5400
scalar TcpAppExample.client.app[0].sink packetLengths:histogram:underflows 0
scalar TcpAppExample.client.app[0].sink packetLengths:histogram:overflows 0
scalar TcpAppExample.client.app[0].sink meanBitLifeTimePerPacket:histogram:count 962
scalar TcpAppExample.client.app[0].sink meanBitLifeTimePerPacket:histogram:sumweights 962
scalar TcpAppExample.client.app[0].sink meanBitLifeTimePerPacket:histogram:mean 0.69561366596004359
scalar TcpAppExample.client.app[0].sink meanBitLifeTimePerPacket:histogram:stddev 3.7858425797242043
scalar TcpAppExample.client.app[0].sink meanBitLifeTimePerPacket:histogram:min 0.00014329999999999999
scalar TcpAppExample.client.app[0].sink meanBitLifeTimePerPacket:histogram:max 35.206446949098996
scalar TcpAppExample.client.app[0].sink meanBitLifeTimePerPacket:histogram:numbins 59
scalar TcpAppExample.client.app[0].sink meanBitLifeTimePerPacket:histogram:rangemin 0
scalar TcpAppExample.client.app[0].sink meanBitLifeTimePerPacket:histogram:rangemax 35.399999999999999
scalar TcpAppExample.client.app[0].sink meanBitLifeTimePerPacket:histogram:underflows 0
scalar TcpAppExample.client.app[0].sink meanBitLifeTimePerPacket:histogram:overflows 0
scalar TcpAppExample.client.app[0].sink packetLifeTime:histogram:count 960
scalar TcpAppExample.client.app[0].sink packetLifeTime:histogram:sumweights 960
scalar TcpAppExample.client.app[0].sink packetLifeTime:histogram:mean 0.69705297306389136
scalar TcpAppExample.client.app[0].sink packetLifeTime:histogram:stddev 3.7896566175564459
scalar TcpAppExample.client.app[0].sink packetLifeTime:histogram:min 0.00014329999999999999
scalar TcpAppExample.client.app[0].sink packetLifeTime:histogram:max 35.206446949098996
scalar TcpAppExample.client.app[0].sink packetLifeTime:histogram:numbins 59
scalar TcpAppExample.client.app[0].sink packetLifeTime:histogram:rangemin 0
scalar TcpAppExample.client.app[0].sink packetLifeTime:histogram:rangemax 35.399999999999999
scalar TcpAppExample.client.app[0].sink packetLifeTime:histogram:underflows 0
scalar TcpAppExample.client.app[0].sink packetLifeTime:histogram:overflows 0
scalar TcpAppExample.client.app[0].sink packetJitter:histogram:count 962
scalar TcpAppExample.client.app[0].sink packetJitter:histogram:sumweights 962
scalar TcpAppExample.client.app[0].sink packetJitter:histogram:mean 7.7785862786242634e-07
scalar TcpAppExample.client.app[0].sink packetJitter:histogram:stddev 2.7164277143187125
scalar TcpAppExample.client.app[0].sink packetJitter:histogram:min -35.206303649098999
scalar TcpAppExample.client.app[0].sink packetJitter:histogram:max 35.199244249098996
scalar TcpAppExample.client.app[0].sink packetJitter:histogram:numbins 89
scalar TcpAppExample.client.app[0].sink packetJitter:histogram:rangemin -35.799999999999997
scalar TcpAppExample.client.app[0].sink packetJitter:histogram:rangemax 35.400000000000006
scalar TcpAppExample.client.app[0].sink packetJitter:histogram:underflows 0
scalar TcpAppExample.client.app[0].sink packetJitter:histogram:overflows 0
scalar TcpAppExample.client.app[0].sink packetDelayDifferenceToMean:histogram:count 962
scalar TcpAppExample.client.app[0].sink packetDelayDifferenceToMean:histogram:sumweights 962
scalar TcpAppExample.client.app[0].sink packetDelayDifferenceToMean:histogram:mean -0.10408147974336503
scalar TcpAppExample.client.app[0].sink packetDelayDifferenceToMean:histogram:stddev 3.7782207016628129
scalar TcpAppExample.client.app[0].sink packetDelayDifferenceToMean:histogram:min -34.689156330382808
scalar TcpAppExample.client.app[0].sink packetDelayDifferenceToMean:histogram:max 1.1338636154489137
scalar TcpAppExample.client.app[0].sink packetDelayDifferenceToMean:histogram:numbins 46
scalar TcpAppExample.client.app[0].sink packetDelayDifferenceToMean:histogram:rangemin -35
scalar TcpAppExample.client.app[0].sink packetDelayDifferenceToMean:histogram:rangemax 1.8000000000000003
scalar TcpAppExample.client.app[0].sink packetDelayDifferenceToMean:histogram:underflows 0
scalar TcpAppExample.client.app[0].sink packetDelayDifferenceToMean:histogram:overflows 0
scalar TcpAppExample.client.app[0].sink packetDelayVariation:histogram:count 962
scalar TcpAppExample.client.app[0].sink packetDelayVariation:histogram:sumweights 962
scalar TcpAppExample.client.app[0].sink packetDelayVariation:histogram:mean 3.3633763743666121
scalar TcpAppExample.client.app[0].sink packetDelayVariation:histogram:stddev 1.5022599572022375
scalar TcpAppExample.client.app[0].sink packetDelayVariation:histogram:min 0
scalar TcpAppExample.client.app[0].sink packetDelayVariation:histogram:max 5.9284390392007404
scalar TcpAppExample.client.app[0].sink packetDelayVariation:histogram:numbins 50
scalar TcpAppExample.client.app[0].sink packetDelayVariation:histogram:rangemin 0
scalar TcpAppExample.client.app[0].sink packetDelayVariation:histogram:rangemax 5.9999999999999991
scalar TcpAppExample.client.app[0].sink packetDelayVariation:histogram:underflows 0
scalar TcpAppExample.client.app[0].sink packetDelayVariation:histogram:overflows 0
scalar TcpAppExample.client.app[0].sink droppedPacketLengths:histogram:count 962
scalar TcpAppExample.client.app[0].sink droppedPacketLengths:histogram:sumweights 962
scalar TcpAppExample.client.app[0].sink droppedPacketLengths:histogram:mean 4063.6839916839917
scalar TcpAppExample.client.app[0].sink droppedPacketLengths:histogram:stddev 773.92694329788355
scalar TcpAppExample.client.app[0].sink droppedPacketLengths:histogram:min 48
scalar TcpAppExample.client.app[0].sink droppedPacketLengths:histogram:max 4288
scalar TcpAppExample.client.app[0].sink droppedPacketLengths:histogram:numbins 54
scalar TcpAppExample.client.app[0].sink droppedPacketLengths:histogram:rangemin 0
scalar TcpAppExample.client.app[0].sink droppedPacketLengths:histogram:rangemax 5400
scalar TcpAppExample.client.app[0].sink droppedPacketLengths:histogram:underflows 0
scalar TcpAppExample.client.app[0].sink droppedPacketLengths:histogram:overflows 0
scalar TcpAppExample.server.ppp[0].queue queueingTime:histogram:count 973
scalar TcpAppExample.server.ppp[0].queue queueingTime:histogram:sumweights 973
scalar TcpAppExample.server.ppp[0].queue queueingTime:histogram:mean 0.002347483873842756
scalar TcpAppExample.server.ppp[0].queue queueingTime:histogram:stddev 0.001992351257475899
scalar TcpAppExample.server.ppp[0].queue queueingTime:histogram:min 0
scalar TcpAppExample.server.ppp[0].queue queueingTime:histogram:max 0.0060631999999999995
scalar TcpAppExample.server.ppp[0].queue queueingTime:histogram:numbins 76
scalar TcpAppExample.server.ppp[0].queue queueingTime:histogram:rangemin 0
scalar TcpAppExample.server.ppp[0].queue queueingTime:histogram:rangemax 0.0076
scalar TcpAppExample.server.ppp[0].queue queueingTime:histogram:underflows 0
scalar TcpAppExample.server.ppp[0].queue queueingTime:histogram:overflows 0
scalar TcpAppExample.server.ppp[0].queue outgoingPacketLengths:histogram:count 973
scalar TcpAppExample.server.ppp[0].queue outgoingPacketLengths:histogram:sumweights 973
scalar TcpAppExample.server.ppp[0].queue outgoingPacketLengths:histogram:mean 4337.7759506680368
scalar TcpAppExample.server.ppp[0].queue outgoingPacketLengths:histogram:stddev 881.30005164301042
scalar TcpAppExample.server.ppp[0].queue outgoingPacketLengths:histogram:min 320
scalar TcpAppExample.server.ppp[0].queue outgoingPacketLengths:histogram:max 4608
scalar TcpAppExample.server.ppp[0].queue outgoingPacketLengths:histogram:numbins 57
scalar TcpAppExample.server.ppp[0].queue outgoingPacketLengths:histogram:rangemin 0
scalar TcpAppExample.server.ppp[0].queue outgoingPacketLengths:histogram:rangemax 5700
scalar TcpAppExample.server.ppp[0].queue outgoingPacketLengths:histogram:underflows 0
scalar TcpAppExample.server.ppp[0].queue outgoingPacketLengths:histogram:overflows 0
scalar TcpAppExample.server.ppp[0].queue flowQueueingTime:histogram:count 0
scalar TcpAppExample.server.ppp[0].queue flowQueueingTime:histogram:sumweights 0
scalar TcpAppExample.server.ppp[0].queue flowQueueingTime:histogram:mean -nan
scalar TcpAppExample.server.ppp[0].queue flowQueueingTime:histogram:stddev nan
scalar TcpAppExample.server.ppp[0].queue flowQueueingTime:histogram:min nan
scalar TcpAppExample.server.ppp[0].queue flowQueueingTime:histogram:max nan
scalar TcpAppExample.server.ppp[0].queue flowQueueingTime:histogram:numbins 1
scalar TcpAppExample.server.ppp[0].queue flowQueueingTime:histogram:rangemin 0
scalar TcpAppExample.server.ppp[0].queue flowQueueingTime:histogram:rangemax 1
scalar TcpAppExample.server.ppp[0].queue flowQueueingTime:histogram:underflows 0
scalar TcpAppExample.server.ppp[0].queue flowQueueingTime:histogram:overflows 0
scalar TcpAppExample.server.ppp[0].queue incomingPacketLengths:histogram:count 973
scalar TcpAppExample.server.ppp[0].queue incomingPacketLengths:histogram:sumweights 973
scalar TcpAppExample.server.ppp[0].queue incomingPacketLengths:histogram:mean 4337.7759506680368
scalar TcpAppExample.server.ppp[0].queue incomingPacketLengths:histogram:stddev 881.30005164301042
scalar TcpAppExample.server.ppp[0].queue incomingPacketLengths:histogram:min 320
scalar TcpAppExample.server.ppp[0].queue incomingPacketLengths:histogram:max 4608
scalar TcpAppExample.server.ppp[0].queue incomingPacketLengths:histogram:numbins 57
scalar TcpAppExample.server.ppp[0].queue incomingPacketLengths:histogram:rangemin 0
scalar TcpAppExample.server.ppp[0].queue incomingPacketLengths:histogram:rangemax 5700
scalar TcpAppExample.server.ppp[0].queue incomingPacketLengths:histogram:underflows 0
scalar TcpAppExample.server.ppp[0].queue incomingPacketLengths:histogram:overflows 0
scalar TcpAppExample.server.app[0].connection[0].source.provider[0] packetLengths:histogram:count 14
scalar TcpAppExample.server.app[0].connection[0].source.provider[0] packetLengths:histogram:sumweights 14
scalar TcpAppExample.server.app[0].connection[0].source.provider[0] packetLengths:histogram:mean 3613.1428571428573
scalar TcpAppExample.server.app[0].connection[0].source.provider[0] packetLengths:histogram:stddev 2202.250277719198
scalar TcpAppExample.server.app[0].connection[0].source.provider[0] packetLengths:histogram:min 1056
scalar TcpAppExample.server.app[0].connection[0].source.provider[0] packetLengths:histogram:max 7912
scalar TcpAppExample.server.app[0].connection[0].source.provider[0] packetLengths:histogram:numbins 49
scalar TcpAppExample.server.app[0].connection[0].source.provider[0] packetLengths:histogram:rangemin 0
scalar TcpAppExample.server.app[0].connection[0].source.provider[0] packetLengths:histogram:rangemax 9800
scalar TcpAppExample.server.app[0].connection[0].source.provider[0] packetLengths:histogram:underflows 0
scalar TcpAppExample.server.app[0].connection[0].source.provider[0] packetLengths:histogram:overflows 0
scalar TcpAppExample.server.app[0].connection[0].source.provider[1] packetLengths:histogram:count 82
scalar TcpAppExample.server.app[0].connection[0].source.provider[1] packetLengths:histogram:sumweights 82
scalar TcpAppExample.server.app[0].connection[0].source.provider[1] packetLengths:histogram:mean 47057.07317073171
scalar TcpAppExample.server.app[0].connection[0].source.provider[1] packetLengths:histogram:stddev 20263.031711536358
scalar TcpAppExample.server.app[0].connection[0].source.provider[1] packetLengths:histogram:min 9656
scalar TcpAppExample.server.app[0].connection[0].source.provider[1] packetLengths:histogram:max 79952
scalar TcpAppExample.server.app[0].connection[0].source.provider[1] packetLengths:histogram:numbins 49
scalar TcpAppExample.server.app[0].connection[0].source.provider[1] packetLengths:histogram:rangemin 0
scalar TcpAppExample.server.app[0].connection[0].source.provider[1] packetLengths:histogram:rangemax 98000
scalar TcpAppExample.server.app[0].connection[0].source.provider[1] packetLengths:histogram:underflows 0
scalar TcpAppExample.server.app[0].connection[0].source.provider[1] packetLengths:histogram:overflows 0
scalar TcpAppExample.server.app[0].connection[0].source.server[0] incomingPacketLengths:histogram:count 14
scalar TcpAppExample.server.app[0].connection[0].source.server[0] incomingPacketLengths:histogram:sumweights 14
scalar TcpAppExample.server.app[0].connection[0].source.server[0] incomingPacketLengths:histogram:mean 3613.1428571428573
scalar TcpAppExample.server.app[0].connection[0].source.server[0] incomingPacketLengths:histogram:stddev 2202.250277719198
scalar TcpAppExample.server.app[0].connection[0].source.server[0] incomingPacketLengths:histogram:min 1056
scalar TcpAppExample.server.app[0].connection[0].source.server[0] incomingPacketLengths:histogram:max 7912
scalar TcpAppExample.server.app[0].connection[0].source.server[0] incomingPacketLengths:histogram:numbins 49
scalar TcpAppExample.server.app[0].connection[0].source.server[0] incomingPacketLengths:histogram:rangemin 0
scalar TcpAppExample.server.app[0].connection[0].source.server[0] incomingPacketLengths:histogram:rangemax 9800
scalar TcpAppExample.server.app[0].connection[0].source.server[0] incomingPacketLengths:histogram:underflows 0
scalar TcpAppExample.server.app[0].connection[0].source.server[0] incomingPacketLengths:histogram:overflows 0
scalar TcpAppExample.server.app[0].connection[0].source.server[0] outgoingPacketLengths:histogram:count 14
scalar TcpAppExample.server.app[0].connection[0].source.server[0] outgoingPacketLengths:histogram:sumweights 14
scalar TcpAppExample.server.app[0].connection[0].source.server[0] outgoingPacketLengths:histogram:mean 3613.1428571428573
scalar TcpAppExample.server.app[0].connection[0].source.server[0] outgoingPacketLengths:histogram:stddev 2202.250277719198
scalar TcpAppExample.server.app[0].connection[0].source.server[0] outgoingPacketLengths:histogram:min 1056
scalar TcpAppExample.server.app[0].connection[0].source.server[0] outgoingPacketLengths:histogram:max 7912
scalar TcpAppExample.server.app[0].connection[0].source.server[0] outgoingPacketLengths:histogram:numbins 49
scalar TcpAppExample.server.app[0].connection[0].source.server[0] outgoingPacketLengths:histogram:rangemin 0
scalar TcpAppExample.server.app[0].connection[0].source.server[0] outgoingPacketLengths:histogram:rangemax 9800
scalar TcpAppExample.server.app[0].connection[0].source.server[0] outgoingPacketLengths:histogram:underflows 0
scalar TcpAppExample.server.app[0].connection[0].source.server[0] outgoingPacketLengths:histogram:overflows 0
scalar TcpAppExample.server.app[0].connection[0].source.server[1] incomingPacketLengths:histogram:count 82
scalar TcpAppExample.server.app[0].connection[0].source.server[1] incomingPacketLengths:histogram:sumweights 82
scalar TcpAppExample.server.app[0].connection[0].source.server[1] incomingPacketLengths:histogram:mean 47057.07317073171
scalar TcpAppExample.server.app[0].connection[0].source.server[1] incomingPacketLengths:histogram:stddev 20263.031711536358
scalar TcpAppExample.server.app[0].connection[0].source.server[1] incomingPacketLengths:histogram:min 9656
scalar TcpAppExample.server.app[0].connection[0].source.server[1] incomingPacketLengths:histogram:max 79952
scalar TcpAppExample.server.app[0].connection[0].source.server[1] incomingPacketLengths:histogram:numbins 49
scalar TcpAppExample.server.app[0].connection[0].source.server[1] incomingPacketLengths:histogram:rangemin 0
scalar TcpAppExample.server.app[0].connection[0].source.server[1] incomingPacketLengths:histogram:rangemax 98000
scalar TcpAppExample.server.app[0].connection[0].source.server[1] incomingPacketLengths:histogram:underflows 0
scalar TcpAppExample.server.app[0].connection[0].source.server[1] incomingPacketLengths:histogram:overflows 0
scalar TcpAppExample.server.app[0].connection[0].source.server[1] outgoingPacketLengths:histogram:count 82
scalar TcpAppExample.server.app[0].connection[0].source.server[1] outgoingPacketLengths:histogram:sumweights 82
scalar TcpAppExample.server.app[0].connection[0].source.server[1] outgoingPacketLengths:histogram:mean 47057.07317073171
scalar TcpAppExample.server.app[0].connection[0].source.server[1] outgoingPacketLengths:histogram:stddev 20263.031711536358
scalar TcpAppExample.server.app[0].connection[0].source.server[1] outgoingPacketLengths:histogram:min 9656
scalar TcpAppExample.server.app[0].connection[0].source.server[1] outgoingPacketLengths:histogram:max 79952
scalar TcpAppExample.server.app[0].connection[0].source.server[1] outgoingPacketLengths:histogram:numbins 49
scalar TcpAppExample.server.app[0].connection[0].source.server[1] outgoingPacketLengths:histogram:rangemin 0
scalar TcpAppExample.server.app[0].connection[0].source.server[1] outgoingPacketLengths:histogram:rangemax 98000
scalar TcpAppExample.server.app[0].connection[0].source.server[1] outgoingPacketLengths:histogram:underflows 0
scalar TcpAppExample.server.app[0].connection[0].source.server[1] outgoingPacketLengths:histogram:overflows 0
scalar TcpAppExample.server.app[0].connection[0].source.multiplexer packetLengths:histogram:count 0
scalar TcpAppExample.server.app[0].connection[0].source.multiplexer packetLengths:histogram:sumweights 0
scalar TcpAppExample.server.app[0].connection[0].source.multiplexer packetLengths:histogram:mean -nan
scalar TcpAppExample.server.app[0].connection[0].source.multiplexer packetLengths:histogram:stddev nan
scalar TcpAppExample.server.app[0].connection[0].source.multiplexer packetLengths:histogram:min nan
scalar TcpAppExample.server.app[0].connection[0].source.multiplexer packetLengths:histogram:max nan
scalar TcpAppExample.server.app[0].connection[0].source.multiplexer packetLengths:histogram:numbins 1
scalar TcpAppExample.server.app[0].connection[0].source.multiplexer packetLengths:histogram:rangemin 0
scalar TcpAppExample.server.app[0].connection[0].source.multiplexer packetLengths:histogram:rangemax 1
scalar TcpAppExample.server.app[0].connection[0].source.multiplexer packetLengths:histogram:underflows 0
scalar TcpAppExample.server.app[0].connection[0].source.multiplexer packetLengths:histogram:overflows 0
scalar TcpAppExample.server.app[0].connection[0].sink.queue queueingTime:histogram:count 10
scalar TcpAppExample.server.app[0].connection[0].sink.queue queueingTime:histogram:sumweights 10
scalar TcpAppExample.server.app[0].connection[0].sink.queue queueingTime:histogram:mean 0
scalar TcpAppExample.server.app[0].connection[0].sink.queue queueingTime:histogram:stddev 0
scalar TcpAppExample.server.app[0].connection[0].sink.queue queueingTime:histogram:min 0
scalar TcpAppExample.server.app[0].connection[0].sink.queue queueingTime:histogram:max 0
scalar TcpAppExample.server.app[0].connection[0].sink.queue queueingTime:histogram:numbins 50
scalar TcpAppExample.server.app[0].connection[0].sink.queue queueingTime:histogram:rangemin -0.5
scalar TcpAppExample.server.app[0].connection[0].sink.queue queueingTime:histogram:rangemax 0.5
scalar TcpAppExample.server.app[0].connection[0].sink.queue queueingTime:histogram:underflows 0
scalar TcpAppExample.server.app[0].connection[0].sink.queue queueingTime:histogram:overflows 0
scalar TcpAppExample.server.app[0].connection[0].sink.queue outgoingPacketLengths:histogram:count 10
scalar TcpAppExample.server.app[0].connection[0].sink.queue outgoingPacketLengths:histogram:sumweights 10
scalar TcpAppExample.server.app[0].connection[0].sink.queue outgoingPacketLengths:histogram:mean 1129.5999999999999
scalar TcpAppExample.server.app[0].connection[0].sink.queue outgoingPacketLengths:histogram:stddev 213.25998739149887
scalar TcpAppExample.server.app[0].connection[0].sink.queue outgoingPacketLengths:histogram:min 816
scalar TcpAppExample.server.app[0].connection[0].sink.queue outgoingPacketLengths:histogram:max 1464
scalar TcpAppExample.server.app[0].connection[0].sink.queue outgoingPacketLengths:histogram:numbins 50
scalar TcpAppExample.server.app[0].connection[0].sink.queue outgoingPacketLengths:histogram:rangemin 640
scalar TcpAppExample.server.app[0].connection[0].sink.queue outgoingPacketLengths:histogram:rangemax 1640
scalar TcpAppExample.server.app[0].connection[0].sink.queue outgoingPacketLengths:histogram:underflows 0
scalar TcpAppExample.server.app[0].connection[0].sink.queue outgoingPacketLengths:histogram:overflows 0
scalar TcpAppExample.server.app[0].connection[0].sink.queue flowQueueingTime:histogram:count 0
scalar TcpAppExample.server.app[0].connection[0].sink.queue flowQueueingTime:histogram:sumweights 0
scalar TcpAppExample.server.app[0].connection[0].sink.queue flowQueueingTime:histogram:mean -nan
scalar TcpAppExample.server.app[0].connection[0].sink.queue flowQueueingTime:histogram:stddev nan
scalar TcpAppExample.server.app[0].connection[0].sink.queue flowQueueingTime:histogram:min nan
scalar TcpAppExample.server.app[0].connection[0].sink.queue flowQueueingTime:histogram:max nan
scalar TcpAppExample.server.app[0].connection[0].sink.queue flowQueueingTime:histogram:numbins 1
scalar TcpAppExample.server.app[0].connection[0].sink.queue flowQueueingTime:histogram:rangemin 0
scalar TcpAppExample.server.app[0].connection[0].sink.queue flowQueueingTime:histogram:rangemax 1
scalar TcpAppExample.server.app[0].connection[0].sink.queue flowQueueingTime:histogram:underflows 0
scalar TcpAppExample.server.app[0].connection[0].sink.queue flowQueueingTime:histogram:overflows 0
scalar TcpAppExample.server.app[0].connection[0].sink.queue incomingPacketLengths:histogram:count 10
scalar TcpAppExample.server.app[0].connection[0].sink.queue incomingPacketLengths:histogram:sumweights 10
scalar TcpAppExample.server.app[0].connection[0].sink.queue incomingPacketLengths:histogram:mean 1129.5999999999999
scalar TcpAppExample.server.app[0].connection[0].sink.queue incomingPacketLengths:histogram:stddev 213.25998739149887
scalar TcpAppExample.server.app[0].connection[0].sink.queue incomingPacketLengths:histogram:min 816
scalar TcpAppExample.server.app[0].connection[0].sink.queue incomingPacketLengths:histogram:max 1464
scalar TcpAppExample.server.app[0].connection[0].sink.queue incomingPacketLengths:histogram:numbins 50
scalar TcpAppExample.server.app[0].connection[0].sink.queue incomingPacketLengths:histogram:rangemin 640
scalar TcpAppExample.server.app[0].connection[0].sink.queue incomingPacketLengths:histogram:rangemax 1640
scalar TcpAppExample.server.app[0].connection[0].sink.queue incomingPacketLengths:histogram:underflows 0
scalar TcpAppExample.server.app[0].connection[0].sink.queue incomingPacketLengths:histogram:overflows 0
scalar TcpAppExample.server.app[0].connection[0].sink.server incomingPacketLengths:histogram:count 10
scalar TcpAppExample.server.app[0].connection[0].sink.server incomingPacketLengths:histogram:sumweights 10
scalar TcpAppExample.server.app[0].connection[0].sink.server incomingPacketLengths:histogram:mean 1129.5999999999999
scalar TcpAppExample.server.app[0].connection[0].sink.server incomingPacketLengths:histogram:stddev 213.25998739149887
scalar TcpAppExample.server.app[0].connection[0].sink.server incomingPacketLengths:histogram:min 816
scalar TcpAppExample.server.app[0].connection[0].sink.server incomingPacketLengths:histogram:max 1464
scalar TcpAppExample.server.app[0].connection[0].sink.server incomingPacketLengths:histogram:numbins 50
scalar TcpAppExample.server.app[0].connection[0].sink.server incomingPacketLengths:histogram:rangemin 640
scalar TcpAppExample.server.app[0].connection[0].sink.server incomingPacketLengths:histogram:rangemax 1640
scalar TcpAppExample.server.app[0].connection[0].sink.server incomingPacketLengths:histogram:underflows 0
scalar TcpAppExample.server.app[0].connection[0].sink.server incomingPacketLengths:histogram:overflows 0
scalar TcpAppExample.server.app[0].connection[0].sink.server outgoingPacketLengths:histogram:count 10
scalar TcpAppExample.server.app[0].connection[0].sink.server outgoingPacketLengths:histogram:sumweights 10
scalar TcpAppExample.server.app[0].connection[0].sink.server outgoingPacketLengths:histogram:mean 1129.5999999999999
scalar TcpAppExample.server.app[0].connection[0].sink.server outgoingPacketLengths:histogram:stddev 213.25998739149887
scalar TcpAppExample.server.app[0].connection[0].sink.server outgoingPacketLengths:histogram:min 816
scalar TcpAppExample.server.app[0].connection[0].sink.server outgoingPacketLengths:histogram:max 1464
scalar TcpAppExample.server.app[0].connection[0].sink.server outgoingPacketLengths:histogram:numbins 50
scalar TcpAppExample.server.app[0].connection[0].sink.server outgoingPacketLengths:histogram:rangemin 640
scalar TcpAppExample.server.app[0].connection[0].sink.server outgoingPacketLengths:histogram:rangemax 1640
scalar TcpAppExample.server.app[0].connection[0].sink.server outgoingPacketLengths:histogram:underflows 0
scalar TcpAppExample.server.app[0].connection[0].sink.server outgoingPacketLengths:histogram:overflows 0
scalar TcpAppExample.server.app[0].connection[0].sink.classifier packetLengths:histogram:count 10
scalar TcpAppExample.server.app[0].connection[0].sink.classifier packetLengths:histogram:sumweights 10
scalar TcpAppExample.server.app[0].connection[0].sink.classifier packetLengths:histogram:mean 1129.5999999999999
scalar TcpAppExample.server.app[0].connection[0].sink.classifier packetLengths:histogram:stddev 213.25998739149887
scalar TcpAppExample.server.app[0].connection[0].sink.classifier packetLengths:histogram:min 816
scalar TcpAppExample.server.app[0].connection[0].sink.classifier packetLengths:histogram:max 1464
scalar TcpAppExample.server.app[0].connection[0].sink.classifier packetLengths:histogram:numbins 50
scalar TcpAppExample.server.app[0].connection[0].sink.classifier packetLengths:histogram:rangemin 640
scalar TcpAppExample.server.app[0].connection[0].sink.classifier packetLengths:histogram:rangemax 1640
scalar TcpAppExample.server.app[0].connection[0].sink.classifier packetLengths:histogram:underflows 0
scalar TcpAppExample.server.app[0].connection[0].sink.classifier packetLengths:histogram:overflows 0
statistic TcpAppExample.client.ppp[0].queue queueingTime:histogram
field count 973
field mean 0
field stddev 0
field min 0
field max 0
field sum 0
field sqrsum 0
bin	-inf	0
bin	-0.5	0
bin	-0.47999999999999998	0
bin	-0.46000000000000002	0
bin	-0.44	0
bin	-0.41999999999999998	0
bin	-0.40000000000000002	0
bin	-0.38	0
bin	-0.35999999999999999	0
bin	-0.33999999999999997	0
bin	-0.32000000000000001	0
bin	-0.29999999999999999	0
bin	-0.28000000000000003	0
bin	-0.26000000000000001	0
bin	-0.23999999999999999	0
bin	-0.21999999999999997	0
bin	-0.20000000000000001	0
bin	-0.17999999999999999	0
bin	-0.15999999999999998	0
bin	-0.14000000000000001	0
bin	-0.12	0
bin	-0.099999999999999978	0
bin	-0.080000000000000016	0
bin	-0.059999999999999998	0
bin	-0.03999999999999998	0
bin	-0.020000000000000018	0
bin	0	973
bin	0.020000000000000018	0
bin	0.040000000000000036	0
bin	0.060000000000000053	0
bin	0.07999999999999996	0
bin	0.099999999999999978	0
bin	0.12	0
bin	0.14000000000000001	0
bin	0.16000000000000003	0
bin	0.18000000000000005	0
bin	0.20000000000000007	0
bin	0.21999999999999997	0
bin	0.23999999999999999	0
bin	0.26000000000000001	0
bin	0.28000000000000003	0
bin	0.30000000000000004	0
bin	0.32000000000000006	0
bin	0.33999999999999997	0
bin	0.35999999999999999	0
bin	0.38	0
bin	0.40000000000000002	0
bin	0.42000000000000004	0
bin	0.44000000000000006	0
bin	0.45999999999999996	0
bin	0.47999999999999998	0
bin	0.5	0
statistic TcpAppExample.client.ppp[0].queue outgoingPacketLengths:histogram
field count 973
field mean 331.64234326824254
field stddev 115.8188752654526
field min 320
field max 1784
field sum 322688
field sqrsum 120055424
bin	-inf	0
bin	20	0
bin	40	0
bin	60	0
bin	80	0
bin	100	0
bin	120	0
bin	140	0
bin	160	0
bin	180	0
bin	200	0
bin	220	0
bin	240	0
bin	260	0
bin	280	0
bin	300	0
bin	320	962
bin	340	1
bin	360	0
bin	380	0
bin	400	0
bin	420	0
bin	440	0
bin	460	0
bin	480	0
bin	500	0
bin	520	0
bin	540	0
bin	560	0
bin	580	0
bin	600	0
bin	620	0
bin	640	0
bin	660	0
bin	680	0
bin	700	0
bin	720	0
bin	740	0
bin	760	0
bin	780	0
bin	800	0
bin	820	0
bin	840	0
bin	860	0
bin	880	0
bin	900	0
bin	920	0
bin	940	0
bin	960	0
bin	980	0
bin	1000	0
bin	1020	0
bin	1040	0
bin	1060	0
bin	1080	0
bin	1100	0
bin	1120	1
bin	1140	0
bin	1160	0
bin	1180	0
bin	1200	1
bin	1220	0
bin	1240	0
bin	1260	0
bin	1280	2
bin	1300	0
bin	1320	0
bin	1340	0
bin	1360	0
bin	1380	0
bin	1400	0
bin	1420	0
bin	1440	0
bin	1460	1
bin	1480	1
bin	1500	0
bin	1520	0
bin	1540	0
bin	1560	1
bin	1580	0
bin	1600	0
bin	1620	1
bin	1640	1
bin	1660	0
bin	1680	0
bin	1700	0
bin	1720	0
bin	1740	0
bin	1760	0
bin	1780	1
bin	1800	0
statistic TcpAppExample.client.ppp[0].queue flowQueueingTime:histogram
field count 0
field mean -nan
field stddev nan
field min nan
field max nan
field sum 0
field sqrsum 0
bin	-inf	0
bin	0	0
bin	1	0
statistic TcpAppExample.client.ppp[0].queue incomingPacketLengths:histogram
field count 973
field mean 331.64234326824254
field stddev 115.8188752654526
field min 320
field max 1784
field sum 322688
field sqrsum 120055424
bin	-inf	0
bin	20	0
bin	40	0
bin	60	0
bin	80	0
bin	100	0
bin	120	0
bin	140	0
bin	160	0
bin	180	0
bin	200	0
bin	220	0
bin	240	0
bin	260	0
bin	280	0
bin	300	0
bin	320	962
bin	340	1
bin	360	0
bin	380	0
bin	400	0
bin	420	0
bin	440	0
bin	460	0
bin	480	0
bin	500	0
bin	520	0
bin	540	0
bin	560	0
bin	580	0
bin	600	0
bin	620	0
bin	640	0
bin	660	0
bin	680	0
bin	700	0
bin	720	0
bin	740	0
bin	760	0
bin	780	0
bin	800	0
bin	820	0
bin	840	0
bin	860	0
bin	880	0
bin	900	0
bin	920	0
bin	940	0
bin	960	0
bin	980	0
bin	1000	0
bin	1020	0
bin	1040	0
bin	1060	0
bin	1080	0
bin	1100	0
bin	1120	1
bin	1140	0
bin	1160	0
bin	1180	0
bin	1200	1
bin	1220	0
bin	1240	0
bin	1260	0
bin	1280	2
bin	1300	0
bin	1320	0
bin	1340	0
bin	1360	0
bin	1380	0
bin	1400	0
bin	1420	0
bin	1440	0
bin	1460	1
bin	1480	1
bin	1500	0
bin	1520	0
bin	1540	0
bin	1560	1
bin	1580	0
bin	1600	0
bin	1620	1
bin	1640	1
bin	1660	0
bin	1680	0
bin	1700	0
bin	1720	0
bin	1740	0
bin	1760	0
bin	1780	1
bin	1800	0
statistic TcpAppExample.client.app[0].source packetLengths:histogram
field count 10
field mean 1129.5999999999999
field stddev 213.25998739149887
field min 816
field max 1464
field sum 11296
field sqrsum 13169280
bin	-inf	0
bin	640	0
bin	660	0
bin	680	0
bin	700	0
bin	720	0
bin	740	0
bin	760	0
bin	780	0
bin	800	1
bin	820	0
bin	840	0
bin	860	0
bin	880	1
bin	900	0
bin	920	0
bin	940	0
bin	960	2
bin	980	0
bin	1000	0
bin	1020	0
bin	1040	0
bin	1060	0
bin	1080	0
bin	1100	0
bin	1120	0
bin	1140	1
bin	1160	1
bin	1180	0
bin	1200	0
bin	1220	0
bin	1240	1
bin	1260	0
bin	1280	0
bin	1300	1
bin	1320	1
bin	1340	0
bin	1360	0
bin	1380	0
bin	1400	0
bin	1420	0
bin	1440	0
bin	1460	1
bin	1480	0
bin	1500	0
bin	1520	0
bin	1540	0
bin	1560	0
bin	1580	0
bin	1600	0
bin	1620	0
bin	1640	0
statistic TcpAppExample.client.app[0].sink packetLengths:histogram
field count 962
field mean 4063.6839916839917
field stddev 773.92694329788355
field min 48
field max 4288
field sum 3909264
field sqrsum 16461616896
bin	-inf	0
bin	0	1
bin	100	2
bin	200	3
bin	300	2
bin	400	0
bin	500	4
bin	600	0
bin	700	7
bin	800	5
bin	900	1
bin	1000	4
bin	1100	1
bin	1200	1
bin	1300	3
bin	1400	1
bin	1500	2
bin	1600	3
bin	1700	4
bin	1800	3
bin	1900	5
bin	2000	2
bin	2100	0
bin	2200	1
bin	2300	3
bin	2400	3
bin	2500	1
bin	2600	2
bin	2700	2
bin	2800	4
bin	2900	3
bin	3000	4
bin	3100	1
bin	3200	0
bin	3300	1
bin	3400	0
bin	3500	3
bin	3600	1
bin	3700	3
bin	3800	2
bin	3900	2
bin	4000	2
bin	4100	2
bin	4200	868
bin	4300	0
bin	4400	0
bin	4500	0
bin	4600	0
bin	4700	0
bin	4800	0
bin	4900	0
bin	5000	0
bin	5100	0
bin	5200	0
bin	5300	0
bin	5400	0
statistic TcpAppExample.client.app[0].sink meanBitLifeTimePerPacket:histogram
field count 962
field mean 0.69561366596004359
field stddev 3.7858425797242043
field min 0.00014329999999999999
field max 35.206446949098996
field sum 669.18034665356197
field sqrsum 14239.123475077255
bin	-inf	0
bin	0	922
bin	0.60000000000000009	0
bin	1.2	0
bin	1.8	2
bin	2.4000000000000004	0
bin	3.0000000000000004	0
bin	3.6000000000000005	0
bin	4.2000000000000002	0
bin	4.8000000000000007	0
bin	5.4000000000000004	0
bin	6.0000000000000009	0
bin	6.6000000000000005	0
bin	7.2000000000000002	8
bin	7.8000000000000007	0
bin	8.4000000000000004	0
bin	9	0
bin	9.5999999999999996	0
bin	10.199999999999999	0
bin	10.800000000000001	11
bin	11.4	0
bin	12	0
bin	12.6	0
bin	13.199999999999999	1
bin	13.800000000000001	0
bin	14.4	0
bin	15	0
bin	15.600000000000001	0
bin	16.199999999999999	0
bin	16.800000000000001	0
bin	17.399999999999999	0
bin	18	0
bin	18.600000000000001	0
bin	19.200000000000003	0
bin	19.800000000000001	0
bin	20.399999999999999	0
bin	21	0
bin	21.600000000000001	0
bin	22.200000000000003	0
bin	22.800000000000001	1
bin	23.399999999999999	0
bin	24	0
bin	24.600000000000001	10
bin	25.200000000000003	0
bin	25.800000000000001	0
bin	26.399999999999999	0
bin	27	6
bin	27.599999999999998	0
bin	28.199999999999999	0
bin	28.799999999999997	0
bin	29.399999999999999	0
bin	30	0
bin	30.599999999999998	0
bin	31.199999999999999	0
bin	31.799999999999997	0
bin	32.399999999999999	0
bin	33	0
bin	33.600000000000001	0
bin	34.200000000000003	0
bin	34.799999999999997	1
bin	35.399999999999999	0
statistic TcpAppExample.client.app[0].sink packetLifeTime:histogram
field count 960
field mean 0.69705297306389136
field stddev 3.7896566175564459
field min 0.00014329999999999999
field max 35.206446949098996
field sum 669.17085414133567
field sqrsum 14239.123423917719
bin	-inf	0
bin	0	920
bin	0.60000000000000009	0
bin	1.2	0
bin	1.8	2
bin	2.4000000000000004	0
bin	3.0000000000000004	0
bin	3.6000000000000005	0
bin	4.2000000000000002	0
bin	4.8000000000000007	0
bin	5.4000000000000004	0
bin	6.0000000000000009	0
bin	6.6000000000000005	0
bin	7.2000000000000002	8
bin	7.8000000000000007	0
bin	8.4000000000000004	0
bin	9	0
bin	9.5999999999999996	0
bin	10.199999999999999	0
bin	10.800000000000001	11
bin	11.4	0
bin	12	0
bin	12.6	0
bin	13.199999999999999	1
bin	13.800000000000001	0
bin	14.4	0
bin	15	0
bin	15.600000000000001	0
bin	16.199999999999999	0
bin	16.800000000000001	0
bin	17.399999999999999	0
bin	18	0
bin	18.600000000000001	0
bin	19.200000000000003	0
bin	19.800000000000001	0
bin	20.399999999999999	0
bin	21	0
bin	21.600000000000001	0
bin	22.200000000000003	0
bin	22.800000000000001	1
bin	23.399999999999999	0
bin	24	0
bin	24.600000000000001	10
bin	25.200000000000003	0
bin	25.800000000000001	0
bin	26.399999999999999	0
bin	27	6
bin	27.599999999999998	0
bin	28.199999999999999	0
bin	28.799999999999997	0
bin	29.399999999999999	0
bin	30	0
bin	30.599999999999998	0
bin	31.199999999999999	0
bin	31.799999999999997	0
bin	32.399999999999999	0
bin	33	0
bin	33.600000000000001	0
bin	34.200000000000003	0
bin	34.799999999999997	1
bin	35.399999999999999	0
statistic TcpAppExample.client.app[0].sink packetJitter:histogram
field count 962
field mean 7.7785862786242634e-07
field stddev 2.7164277143187125
field min -35.206303649098999
field max 35.199244249098996
field sum 0.00074830000000365412
field sqrsum 7091.1993255617344
bin	-inf	0
bin	-35.799999999999997	1
bin	-35	0
bin	-34.200000000000003	0
bin	-33.399999999999999	0
bin	-32.600000000000001	0
bin	-31.800000000000001	0
bin	-31	0
bin	-30.200000000000003	0
bin	-29.400000000000002	0
bin	-28.600000000000001	0
bin	-27.800000000000001	1
bin	-27	0
bin	-26.200000000000003	0
bin	-25.399999999999999	1
bin	-24.600000000000001	0
bin	-23.800000000000001	1
bin	-23	0
bin	-22.200000000000003	0
bin	-21.399999999999999	0
bin	-20.600000000000001	0
bin	-19.800000000000001	0
bin	-19	0
bin	-18.199999999999999	0
bin	-17.399999999999999	0
bin	-16.600000000000001	0
bin	-15.800000000000001	0
bin	-15	0
bin	-14.199999999999999	0
bin	-13.4	1
bin	-12.6	0
bin	-11.800000000000001	0
bin	-11	2
bin	-10.199999999999999	0
bin	-9.4000000000000004	0
bin	-8.5999999999999996	0
bin	-7.8000000000000007	1
bin	-7.0000000000000009	0
bin	-6.2000000000000002	0
bin	-5.4000000000000004	0
bin	-4.6000000000000005	0
bin	-3.8000000000000003	0
bin	-3.0000000000000004	0
bin	-2.2000000000000002	0
bin	-1.4000000000000001	0
bin	-0.60000000000000009	945
bin	0.20000000000000001	0
bin	1	0
bin	1.8	1
bin	2.6000000000000005	0
bin	3.4000000000000004	0
bin	4.2000000000000002	0
bin	5.0000000000000009	0
bin	5.8000000000000007	0
bin	6.6000000000000005	0
bin	7.4000000000000004	1
bin	8.1999999999999993	0
bin	9	0
bin	9.8000000000000007	0
bin	10.6	2
bin	11.4	0
bin	12.199999999999999	0
bin	13	1
bin	13.800000000000001	0
bin	14.6	0
bin	15.4	0
bin	16.199999999999999	0
bin	17	0
bin	17.800000000000001	0
bin	18.600000000000001	0
bin	19.399999999999999	0
bin	20.200000000000003	0
bin	21	0
bin	21.800000000000001	0
bin	22.600000000000001	2
bin	23.399999999999999	0
bin	24.200000000000003	0
bin	25	0
bin	25.800000000000001	0
bin	26.600000000000001	1
bin	27.400000000000002	0
bin	28.200000000000003	0
bin	29.000000000000004	0
bin	29.800000000000004	0
bin	30.600000000000001	0
bin	31.400000000000002	0
bin	32.200000000000003	0
bin	33	0
bin	33.800000000000004	0
bin	34.600000000000001	1
bin	35.400000000000006	0
statistic TcpAppExample.client.app[0].sink packetDelayDifferenceToMean:histogram
field count 962
field mean -0.10408147974336503
field stddev 3.7782207016628129
field min -34.689156330382808
field max 1.1338636154489137
field sum -100.12638351311716
field sqrsum 13728.649857482371
bin	-inf	0
bin	-35	1
bin	-34.200000000000003	0
bin	-33.399999999999999	0
bin	-32.600000000000001	0
bin	-31.800000000000001	0
bin	-31	0
bin	-30.199999999999999	0
bin	-29.399999999999999	0
bin	-28.600000000000001	0
bin	-27.800000000000001	0
bin	-27	4
bin	-26.200000000000003	2
bin	-25.399999999999999	0
bin	-24.600000000000001	10
bin	-23.800000000000001	0
bin	-23	1
bin	-22.200000000000003	0
bin	-21.399999999999999	0
bin	-20.600000000000001	0
bin	-19.800000000000001	0
bin	-19	0
bin	-18.199999999999999	0
bin	-17.399999999999999	0
bin	-16.600000000000001	0
bin	-15.800000000000001	0
bin	-15	0
bin	-14.199999999999999	0
bin	-13.4	0
bin	-12.6	1
bin	-11.800000000000001	0
bin	-11	6
bin	-10.199999999999999	5
bin	-9.4000000000000004	0
bin	-8.5999999999999996	0
bin	-7.8000000000000007	0
bin	-7.0000000000000009	8
bin	-6.2000000000000002	0
bin	-5.4000000000000004	0
bin	-4.6000000000000005	0
bin	-3.8000000000000003	0
bin	-3.0000000000000004	0
bin	-2.2000000000000002	2
bin	-1.4000000000000001	0
bin	-0.60000000000000009	145
bin	0.20000000000000001	756
bin	1	21
bin	1.8000000000000003	0
statistic TcpAppExample.client.app[0].sink packetDelayVariation:histogram
field count 962
field mean 3.3633763743666121
field stddev 1.5022599572022375
field min 0
field max 5.9284390392007404
field sum 3235.5680721406807
field sqrsum 13051.203576324642
bin	-inf	0
bin	0	141
bin	0.12000000000000001	0
bin	0.23999999999999999	0
bin	0.36000000000000004	0
bin	0.48000000000000004	0
bin	0.59999999999999998	0
bin	0.72000000000000008	0
bin	0.84000000000000008	5
bin	0.96000000000000008	0
bin	1.0800000000000001	0
bin	1.2000000000000002	0
bin	1.3200000000000001	0
bin	1.4399999999999999	0
bin	1.5600000000000001	0
bin	1.6800000000000002	0
bin	1.8	0
bin	1.9199999999999999	0
bin	2.04	0
bin	2.1600000000000001	0
bin	2.2800000000000002	0
bin	2.3999999999999999	1
bin	2.52	0
bin	2.6400000000000001	0
bin	2.7599999999999998	0
bin	2.8799999999999999	0
bin	3	37
bin	3.1200000000000001	42
bin	3.2400000000000002	43
bin	3.3599999999999999	35
bin	3.48	50
bin	3.6000000000000001	52
bin	3.7199999999999998	98
bin	3.8399999999999999	78
bin	3.96	66
bin	4.0800000000000001	93
bin	4.1999999999999993	53
bin	4.3199999999999994	50
bin	4.4399999999999995	38
bin	4.5599999999999996	10
bin	4.6799999999999997	10
bin	4.7999999999999998	8
bin	4.9199999999999999	8
bin	5.04	7
bin	5.1600000000000001	7
bin	5.2799999999999994	7
bin	5.3999999999999995	6
bin	5.5199999999999996	5
bin	5.6399999999999997	5
bin	5.7599999999999998	5
bin	5.879999999999999	2
bin	5.9999999999999991	0
statistic TcpAppExample.client.app[0].sink droppedPacketLengths:histogram
field count 962
field mean 4063.6839916839917
field stddev 773.92694329788355
field min 48
field max 4288
field sum 3909264
field sqrsum 16461616896
bin	-inf	0
bin	0	1
bin	100	2
bin	200	3
bin	300	2
bin	400	0
bin	500	4
bin	600	0
bin	700	7
bin	800	5
bin	900	1
bin	1000	4
bin	1100	1
bin	1200	1
bin	1300	3
bin	1400	1
bin	1500	2
bin	1600	3
bin	1700	4
bin	1800	3
bin	1900	5
bin	2000	2
bin	2100	0
bin	2200	1
bin	2300	3
bin	2400	3
bin	2500	1
bin	2600	2
bin	2700	2
bin	2800	4
bin	2900	3
bin	3000	4
bin	3100	1
bin	3200	0
bin	3300	1
bin	3400	0
bin	3500	3
bin	3600	1
bin	3700	3
bin	3800	2
bin	3900	2
bin	4000	2
bin	4100	2
bin	4200	868
bin	4300	0
bin	4400	0
bin	4500	0
bin	4600	0
bin	4700	0
bin	4800	0
bin	4900	0
bin	5000	0
bin	5100	0
bin	5200	0
bin	5300	0
bin	5400	0
statistic TcpAppExample.server.ppp[0].queue queueingTime:histogram
field count 973
field mean 0.002347483873842756
field stddev 0.001992351257475899
field min 0
field max 0.0060631999999999995
field sum 2.2841018092490017
field sqrsum 0.0092202107176642487
bin	-inf	0
bin	0	193
bin	0.0001	0
bin	0.00020000000000000001	0
bin	0.00030000000000000003	0
bin	0.00040000000000000002	84
bin	0.00050000000000000001	1
bin	0.00060000000000000006	0
bin	0.00069999999999999999	0
bin	0.00080000000000000004	9
bin	0.00090000000000000008	71
bin	0.001	0
bin	0.0011000000000000001	0
bin	0.0012000000000000001	0
bin	0.0013000000000000002	75
bin	0.0014	0
bin	0.0015	0
bin	0.0016000000000000001	0
bin	0.0017000000000000001	0
bin	0.0018000000000000002	70
bin	0.0019	0
bin	0.002	1
bin	0.0021000000000000003	0
bin	0.0022000000000000001	1
bin	0.0023	65
bin	0.0024000000000000002	1
bin	0.0025000000000000001	0
bin	0.0026000000000000003	0
bin	0.0027000000000000001	58
bin	0.0028	0
bin	0.0029000000000000002	1
bin	0.0030000000000000001	0
bin	0.0031000000000000003	0
bin	0.0032000000000000002	53
bin	0.0033	0
bin	0.0034000000000000002	1
bin	0.0035000000000000001	0
bin	0.0036000000000000003	3
bin	0.0037000000000000002	46
bin	0.0038	1
bin	0.0039000000000000003	1
bin	0.0040000000000000001	0
bin	0.0041000000000000003	44
bin	0.0042000000000000006	0
bin	0.0043	2
bin	0.0044000000000000003	0
bin	0.0045000000000000005	0
bin	0.0045999999999999999	42
bin	0.0047000000000000002	0
bin	0.0048000000000000004	2
bin	0.0048999999999999998	0
bin	0.0050000000000000001	2
bin	0.0051000000000000004	34
bin	0.0052000000000000006	1
bin	0.0053	1
bin	0.0054000000000000003	0
bin	0.0055000000000000005	30
bin	0.0055999999999999999	0
bin	0.0057000000000000002	2
bin	0.0058000000000000005	0
bin	0.0058999999999999999	0
bin	0.0060000000000000001	78
bin	0.0061000000000000004	0
bin	0.0062000000000000006	0
bin	0.0063	0
bin	0.0064000000000000003	0
bin	0.0065000000000000006	0
bin	0.0066	0
bin	0.0067000000000000002	0
bin	0.0068000000000000005	0
bin	0.0069000000000000008	0
bin	0.0070000000000000001	0
bin	0.0071000000000000004	0
bin	0.0072000000000000007	0
bin	0.0073000000000000001	0
bin	0.0074000000000000003	0
bin	0.0075000000000000006	0
bin	0.0076	0
statistic TcpAppExample.server.ppp[0].queue outgoingPacketLengths:histogram
field count 973
field mean 4337.7759506680368
field stddev 881.30005164301042
field min 320
field max 4608
field sum 4220656
field sqrsum 19063202560
bin	-inf	0
bin	0	0
bin	100	0
bin	200	0
bin	300	12
bin	400	2
bin	500	1
bin	600	4
bin	700	0
bin	800	4
bin	900	0
bin	1000	6
bin	1100	6
bin	1200	1
bin	1300	3
bin	1400	2
bin	1500	1
bin	1600	3
bin	1700	1
bin	1800	2
bin	1900	3
bin	2000	3
bin	2100	4
bin	2200	4
bin	2300	2
bin	2400	1
bin	2500	1
bin	2600	3
bin	2700	2
bin	2800	2
bin	2900	1
bin	3000	3
bin	3100	3
bin	3200	4
bin	3300	2
bin	3400	3
bin	3500	0
bin	3600	1
bin	3700	0
bin	3800	3
bin	3900	1
bin	4000	2
bin	4100	3
bin	4200	1
bin	4300	2
bin	4400	2
bin	4500	1
bin	4600	868
bin	4700	0
bin	4800	0
bin	4900	0
bin	5000	0
bin	5100	0
bin	5200	0
bin	5300	0
bin	5400	0
bin	5500	0
bin	5600	0
bin	5700	0
statistic TcpAppExample.server.ppp[0].queue flowQueueingTime:histogram
field count 0
field mean -nan
field stddev nan
field min nan
field max nan
field sum 0
field sqrsum 0
bin	-inf	0
bin	0	0
bin	1	0
statistic TcpAppExample.server.ppp[0].queue incomingPacketLengths:histogram
field count 973
field mean 4337.7759506680368
field stddev 881.30005164301042
field min 320
field max 4608
field sum 4220656
field sqrsum 19063202560
bin	-inf	0
bin	0	0
bin	100	0
bin	200	0
bin	300	12
bin	400	2
bin	500	1
bin	600	4
bin	700	0
bin	800	4
bin	900	0
bin	1000	6
bin	1100	6
bin	1200	1
bin	1300	3
bin	1400	2
bin	1500	1
bin	1600	3
bin	1700	1
bin	1800	2
bin	1900	3
bin	2000	3
bin	2100	4
bin	2200	4
bin	2300	2
bin	2400	1
bin	2500	1
bin	2600	3
bin	2700	2
bin	2800	2
bin	2900	1
bin	3000	3
bin	3100	3
bin	3200	4
bin	3300	2
bin	3400	3
bin	3500	0
bin	3600	1
bin	3700	0
bin	3800	3
bin	3900	1
bin	4000	2
bin	4100	3
bin	4200	1
bin	4300	2
bin	4400	2
bin	4500	1
bin	4600	868
bin	4700	0
bin	4800	0
bin	4900	0
bin	5000	0
bin	5100	0
bin	5200	0
bin	5300	0
bin	5400	0
bin	5500	0
bin	5600	0
bin	5700	0
statistic TcpAppExample.server.app[0].connection[0].source.provider[0] packetLengths:histogram
field count 14
field mean 3613.1428571428573
field stddev 2202.250277719198
field min 1056
field max 7912
field sum 50584
field sqrsum 245816000
bin	-inf	0
bin	0	0
bin	200	0
bin	400	0
bin	600	0
bin	800	0
bin	1000	1
bin	1200	0
bin	1400	0
bin	1600	1
bin	1800	2
bin	2000	0
bin	2200	2
bin	2400	1
bin	2600	0
bin	2800	0
bin	3000	2
bin	3200	0
bin	3400	0
bin	3600	0
bin	3800	0
bin	4000	1
bin	4200	0
bin	4400	0
bin	4600	0
bin	4800	0
bin	5000	0
bin	5200	1
bin	5400	0
bin	5600	0
bin	5800	0
bin	6000	0
bin	6200	1
bin	6400	0
bin	6600	0
bin	6800	0
bin	7000	1
bin	7200	0
bin	7400	0
bin	7600	0
bin	7800	1
bin	8000	0
bin	8200	0
bin	8400	0
bin	8600	0
bin	8800	0
bin	9000	0
bin	9200	0
bin	9400	0
bin	9600	0
bin	9800	0
statistic TcpAppExample.server.app[0].connection[0].source.provider[1] packetLengths:histogram
field count 82
field mean 47057.07317073171
field stddev 20263.031711536358
field min 9656
field max 79952
field sum 3858680
field sqrsum 214836013888
bin	-inf	0
bin	0	0
bin	2000	0
bin	4000	0
bin	6000	0
bin	8000	1
bin	10000	1
bin	12000	4
bin	14000	1
bin	16000	1
bin	18000	0
bin	20000	2
bin	22000	1
bin	24000	1
bin	26000	6
bin	28000	2
bin	30000	4
bin	32000	2
bin	34000	2
bin	36000	2
bin	38000	4
bin	40000	2
bin	42000	2
bin	44000	0
bin	46000	3
bin	48000	4
bin	50000	1
bin	52000	2
bin	54000	4
bin	56000	3
bin	58000	1
bin	60000	4
bin	62000	0
bin	64000	5
bin	66000	1
bin	68000	1
bin	70000	2
bin	72000	2
bin	74000	5
bin	76000	3
bin	78000	3
bin	80000	0
bin	82000	0
bin	84000	0
bin	86000	0
bin	88000	0
bin	90000	0
bin	92000	0
bin	94000	0
bin	96000	0
bin	98000	0
statistic TcpAppExample.server.app[0].connection[0].source.server[0] incomingPacketLengths:histogram
field count 14
field mean 3613.1428571428573
field stddev 2202.250277719198
field min 1056
field max 7912
field sum 50584
field sqrsum 245816000
bin	-inf	0
bin	0	0
bin	200	0
bin	400	0
bin	600	0
bin	800	0
bin	1000	1
bin	1200	0
bin	1400	0
bin	1600	1
bin	1800	2
bin	2000	0
bin	2200	2
bin	2400	1
bin	2600	0
bin	2800	0
bin	3000	2
bin	3200	0
bin	3400	0
bin	3600	0
bin	3800	0
bin	4000	1
bin	4200	0
bin	4400	0
bin	4600	0
bin	4800	0
bin	5000	0
bin	5200	1
bin	5400	0
bin	5600	0
bin	5800	0
bin	6000	0
bin	6200	1
bin	6400	0
bin	6600	0
bin	6800	0
bin	7000	1
bin	7200	0
bin	7400	0
bin	7600	0
bin	7800	1
bin	8000	0
bin	8200	0
bin	8400	0
bin	8600	0
bin	8800	0
bin	9000	0
bin	9200	0
bin	9400	0
bin	9600	0
bin	9800	0
statistic TcpAppExample.server.app[0].connection[0].source.server[0] outgoingPacketLengths:histogram
field count 14
field mean 3613.1428571428573
field stddev 2202.250277719198
field min 1056
field max 7912
field sum 50584
field sqrsum 245816000
bin	-inf	0
bin	0	0
bin	200	0
bin	400	0
bin	600	0
bin	800	0
bin	1000	1
bin	1200	0
bin	1400	0
bin	1600	1
bin	1800	2
bin	2000	0
bin	2200	2
bin	2400	1
bin	2600	0
bin	2800	0
bin	3000	2
bin	3200	0
bin	3400	0
bin	3600	0
bin	3800	0
bin	4000	1
bin	4200	0
bin	4400	0
bin	4600	0
bin	4800	0
bin	5000	0
bin	5200	1
bin	5400	0
bin	5600	0
bin	5800	0
bin	6000	0
bin	6200	1
bin	6400	0
bin	6600	0
bin	6800	0
bin	7000	1
bin	7200	0
bin	7400	0
bin	7600	0
bin	7800	1
bin	8000	0
bin	8200	0
bin	8400	0
bin	8600	0
bin	8800	0
bin	9000	0
bin	9200	0
bin	9400	0
bin	9600	0
bin	9800	0
statistic TcpAppExample.server.app[0].connection[0].source.server[1] incomingPacketLengths:histogram
field count 82
field mean 47057.07317073171
field stddev 20263.031711536358
field min 9656
field max 79952
field sum 3858680
field sqrsum 214836013888
bin	-inf	0
bin	0	0
bin	2000	0
bin	4000	0
bin	6000	0
bin	8000	1
bin	10000	1
bin	12000	4
bin	14000	1
bin	16000	1
bin	18000	0
bin	20000	2
bin	22000	1
bin	24000	1
bin	26000	6
bin	28000	2
bin	30000	4
bin	32000	2
bin	34000	2
bin	36000	2
bin	38000	4
bin	40000	2
bin	42000	2
bin	44000	0
bin	46000	3
bin	48000	4
bin	50000	1
bin	52000	2
bin	54000	4
bin	56000	3
bin	58000	1
bin	60000	4
bin	62000	0
bin	64000	5
bin	66000	1
bin	68000	1
bin	70000	2
bin	72000	2
bin	74000	5
bin	76000	3
bin	78000	3
bin	80000	0
bin	82000	0
bin	84000	0
bin	86000	0
bin	88000	0
bin	90000	0
bin	92000	0
bin	94000	0
bin	96000	0
bin	98000	0
statistic TcpAppExample.server.app[0].connection[0].source.server[1] outgoingPacketLengths:histogram
field count 82
field mean 47057.07317073171
field stddev 20263.031711536358
field min 9656
field max 79952
field sum 3858680
field sqrsum 214836013888
bin	-inf	0
bin	0	0
bin	2000	0
bin	4000	0
bin	6000	0
bin	8000	1
bin	10000	1
bin	12000	4
bin	14000	1
bin	16000	1
bin	18000	0
bin	20000	2
bin	22000	1
bin	24000	1
bin	26000	6
bin	28000	2
bin	30000	4
bin	32000	2
bin	34000	2
bin	36000	2
bin	38000	4
bin	40000	2
bin	42000	2
bin	44000	0
bin	46000	3
bin	48000	4
bin	50000	1
bin	52000	2
bin	54000	4
bin	56000	3
bin	58000	1
bin	60000	4
bin	62000	0
bin	64000	5
bin	66000	1
bin	68000	1
bin	70000	2
bin	72000	2
bin	74000	5
bin	76000	3
bin	78000	3
bin	80000	0
bin	82000	0
bin	84000	0
bin	86000	0
bin	88000	0
bin	90000	0
bin	92000	0
bin	94000	0
bin	96000	0
bin	98000	0
statistic TcpAppExample.server.app[0].connection[0].source.multiplexer packetLengths:histogram
field count 0
field mean -nan
field stddev nan
field min nan
field max nan
field sum 0
field sqrsum 0
bin	-inf	0
bin	0	0
bin	1	0
statistic TcpAppExample.server.app[0].connection[0].sink.queue queueingTime:histogram
field count 10
field mean 0
field stddev 0
field min 0
field max 0
field sum 0
field sqrsum 0
bin	-inf	0
bin	-0.5	0
bin	-0.47999999999999998	0
bin	-0.46000000000000002	0
bin	-0.44	0
bin	-0.41999999999999998	0
bin	-0.40000000000000002	0
bin	-0.38	0
bin	-0.35999999999999999	0
bin	-0.33999999999999997	0
bin	-0.32000000000000001	0
bin	-0.29999999999999999	0
bin	-0.28000000000000003	0
bin	-0.26000000000000001	0
bin	-0.23999999999999999	0
bin	-0.21999999999999997	0
bin	-0.20000000000000001	0
bin	-0.17999999999999999	0
bin	-0.15999999999999998	0
bin	-0.14000000000000001	0
bin	-0.12	0
bin	-0.099999999999999978	0
bin	-0.080000000000000016	0
bin	-0.059999999999999998	0
bin	-0.03999999999999998	0
bin	-0.020000000000000018	0
bin	0	10
bin	0.020000000000000018	0
bin	0.040000000000000036	0
bin	0.060000000000000053	0
bin	0.07999999999999996	0
bin	0.099999999999999978	0
bin	0.12	0
bin	0.14000000000000001	0
bin	0.16000000000000003	0
bin	0.18000000000000005	0
bin	0.20000000000000007	0
bin	0.21999999999999997	0
bin	0.23999999999999999	0
bin	0.26000000000000001	0
bin	0.28000000000000003	0
bin	0.30000000000000004	0
bin	0.32000000000000006	0
bin	0.33999999999999997	0
bin	0.35999999999999999	0
bin	0.38	0
bin	0.40000000000000002	0
bin	0.42000000000000004	0
bin	0.44000000000000006	0
bin	0.45999999999999996	0
bin	0.47999999999999998	0
bin	0.5	0
statistic TcpAppExample.server.app[0].connection[0].sink.queue outgoingPacketLengths:histogram
field count 10
field mean 1129.5999999999999
field stddev 213.25998739149887
field min 816
field max 1464
field sum 11296
field sqrsum 13169280
bin	-inf	0
bin	640	0
bin	660	0
bin	680	0
bin	700	0
bin	720	0
bin	740	0
bin	760	0
bin	780	0
bin	800	1
bin	820	0
bin	840	0
bin	860	0
bin	880	1
bin	900	0
bin	920	0
bin	940	0
bin	960	2
bin	980	0
bin	1000	0
bin	1020	0
bin	1040	0
bin	1060	0
bin	1080	0
bin	1100	0
bin	1120	0
bin	1140	1
bin	1160	1
bin	1180	0
bin	1200	0
bin	1220	0
bin	1240	1
bin	1260	0
bin	1280	0
bin	1300	1
bin	1320	1
bin	1340	0
bin	1360	0
bin	1380	0
bin	1400	0
bin	1420	0
bin	1440	0
bin	1460	1
bin	1480	0
bin	1500	0
bin	1520	0
bin	1540	0
bin	1560	0
bin	1580	0
bin	1600	0
bin	1620	0
bin	1640	0
statistic TcpAppExample.server.app[0].connection[0].sink.queue flowQueueingTime:histogram
field count 0
field mean -nan
field stddev nan
field min nan
field max nan
field sum 0
field sqrsum 0
bin	-inf	0
bin	0	0
bin	1	0
statistic TcpAppExample.server.app[0].connection[0].sink.queue incomingPacketLengths:histogram
field count 10
field mean 1129.5999999999999
field stddev 213.25998739149887
field min 816
field max 1464
field sum 11296
field sqrsum 13169280
bin	-inf	0
bin	640	0
bin	660	0
bin	680	0
bin	700	0
bin	720	0
bin	740	0
bin	760	0
bin	780	0
bin	800	1
bin	820	0
bin	840	0
bin	860	0
bin	880	1
bin	900	0
bin	920	0
bin	940	0
bin	960	2
bin	980	0
bin	1000	0
bin	1020	0
bin	1040	0
bin	1060	0
bin	1080	0
bin	1100	0
bin	1120	0
bin	1140	1
bin	1160	1
bin	1180	0
bin	1200	0
bin	1220	0
bin	1240	1
bin	1260	0
bin	1280	0
bin	1300	1
bin	1320	1
bin	1340	0
bin	1360	0
bin	1380	0
bin	1400	0
bin	1420	0
bin	1440	0
bin	1460	1
bin	1480	0
bin	1500	0
bin	1520	0
bin	1540	0
bin	1560	0
bin	1580	0
bin	1600	0
bin	1620	0
bin	1640	0
statistic TcpAppExample.server.app[0].connection[0].sink.server incomingPacketLengths:histogram
field count 10
field mean 1129.5999999999999
field stddev 213.25998739149887
field min 816
field max 1464
field sum 11296
field sqrsum 13169280
bin	-inf	0
bin	640	0
bin	660	0
bin	680	0
bin	700	0
bin	720	0
bin	740	0
bin	760	0
bin	780	0
bin	800	1
bin	820	0
bin	840	0
bin	860	0
bin	880	1
bin	900	0
bin	920	0
bin	940	0
bin	960	2
bin	980	0
bin	1000	0
bin	1020	0
bin	1040	0
bin	1060	0
bin	1080	0
bin	1100	0
bin	1120	0
bin	1140	1
bin	1160	1
bin	1180	0
bin	1200	0
bin	1220	0
bin	1240	1
bin	1260	0
bin	1280	0
bin	1300	1
bin	1320	1
bin	1340	0
bin	1360	0
bin	1380	0
bin	1400	0
bin	1420	0
bin	1440	0
bin	1460	1
bin	1480	0
bin	1500	0
bin	1520	0
bin	1540	0
bin	1560	0
bin	1580	0
bin	1600	0
bin	1620	0
bin	1640	0
statistic TcpAppExample.server.app[0].connection[0].sink.server outgoingPacketLengths:histogram
field count 10
field mean 1129.5999999999999
field stddev 213.25998739149887
field min 816
field max 1464
field sum 11296
field sqrsum 13169280
bin	-inf	0
bin	640	0
bin	660	0
bin	680	0
bin	700	0
bin	720	0
bin	740	0
bin	760	0
bin	780	0
bin	800	1
bin	820	0
bin	840	0
bin	860	0
bin	880	1
bin	900	0
bin	920	0
bin	940	0
bin	960	2
bin	980	0
bin	1000	0
bin	1020	0
bin	1040	0
bin	1060	0
bin	1080	0
bin	1100	0
bin	1120	0
bin	1140	1
bin	1160	1
bin	1180	0
bin	1200	0
bin	1220	0
bin	1240	1
bin	1260	0
bin	1280	0
bin	1300	1
bin	1320	1
bin	1340	0
bin	1360	0
bin	1380	0
bin	1400	0
bin	1420	0
bin	1440	0
bin	1460	1
bin	1480	0
bin	1500	0
bin	1520	0
bin	1540	0
bin	1560	0
bin	1580	0
bin	1600	0
bin	1620	0
bin	1640	0
statistic TcpAppExample.server.app[0].connection[0].sink.classifier packetLengths:histogram
field count 10
field mean 1129.5999999999999
field stddev 213.25998739149887
field min 816
field max 1464
field sum 11296
field sqrsum 13169280
bin	-inf	0
bin	640	0
bin	660	0
bin	680	0
bin	700	0
bin	720	0
bin	740	0
bin	760	0
bin	780	0
bin	800	1
bin	820	0
bin	840	0
bin	860	0
bin	880	1
bin	900	0
bin	920	0
bin	940	0
bin	960	2
bin	980	0
bin	1000	0
bin	1020	0
bin	1040	0
bin	1060	0
bin	1080	0
bin	1100	0
bin	1120	0
bin	1140	1
bin	1160	1
bin	1180	0
bin	1200	0
bin	1220	0
bin	1240	1
bin	1260	0
bin	1280	0
bin	1300	1
bin	1320	1
bin	1340	0
bin	1360	0
bin	1380	0
bin	1400	0
bin	1420	0
bin	1440	0
bin	1460	1
bin	1480	0
bin	1500	0
bin	1520	0
bin	1540	0
bin	1560	0
bin	1580	0
bin	1600	0
bin	1620	0
bin	1640	0
scalar TcpAppExample.client.lo[0].lo rcvdPkFromHl:vector(packetBytes):count 0
scalar TcpAppExample.client.lo[0].lo rcvdPkFromHl:vector(packetBytes):sum 0
scalar TcpAppExample.client.lo[0].lo rcvdPkFromHl:vector(packetBytes):sumweights 0
scalar TcpAppExample.client.lo[0].lo rcvdPkFromHl:vector(packetBytes):mean -nan
scalar TcpAppExample.client.lo[0].lo rcvdPkFromHl:vector(packetBytes):stddev nan
scalar TcpAppExample.client.lo[0].lo rcvdPkFromHl:vector(packetBytes):min inf
scalar TcpAppExample.client.lo[0].lo rcvdPkFromHl:vector(packetBytes):max -inf
scalar TcpAppExample.client.lo[0].lo rcvdPkFromHl:vector(packetBytes):starttime nan
scalar TcpAppExample.client.lo[0].lo rcvdPkFromHl:vector(packetBytes):endtime nan
scalar TcpAppExample.client.lo[0].lo passedUpPk:vector(packetBytes):count 0
scalar TcpAppExample.client.lo[0].lo passedUpPk:vector(packetBytes):sum 0
scalar TcpAppExample.client.lo[0].lo passedUpPk:vector(packetBytes):sumweights 0
scalar TcpAppExample.client.lo[0].lo passedUpPk:vector(packetBytes):mean -nan
scalar TcpAppExample.client.lo[0].lo passedUpPk:vector(packetBytes):stddev nan
scalar TcpAppExample.client.lo[0].lo passedUpPk:vector(packetBytes):min inf
scalar TcpAppExample.client.lo[0].lo passedUpPk:vector(packetBytes):max -inf
scalar TcpAppExample.client.lo[0].lo passedUpPk:vector(packetBytes):starttime nan
scalar TcpAppExample.client.lo[0].lo passedUpPk:vector(packetBytes):endtime nan
scalar TcpAppExample.client.lo[0] packetDropInterfaceDown:vector(packetBytes):count 0
scalar TcpAppExample.client.lo[0] packetDropInterfaceDown:vector(packetBytes):sum 0
scalar TcpAppExample.client.lo[0] packetDropInterfaceDown:vector(packetBytes):sumweights 0
scalar TcpAppExample.client.lo[0] packetDropInterfaceDown:vector(packetBytes):mean -nan
scalar TcpAppExample.client.lo[0] packetDropInterfaceDown:vector(packetBytes):stddev nan
scalar TcpAppExample.client.lo[0] packetDropInterfaceDown:vector(packetBytes):min inf
scalar TcpAppExample.client.lo[0] packetDropInterfaceDown:vector(packetBytes):max -inf
scalar TcpAppExample.client.lo[0] packetDropInterfaceDown:vector(packetBytes):starttime nan
scalar TcpAppExample.client.lo[0] packetDropInterfaceDown:vector(packetBytes):endtime nan
scalar TcpAppExample.client.lo[0] packetDropNoCarrier:vector(packetBytes):count 0
scalar TcpAppExample.client.lo[0] packetDropNoCarrier:vector(packetBytes):sum 0
scalar TcpAppExample.client.lo[0] packetDropNoCarrier:vector(packetBytes):sumweights 0
scalar TcpAppExample.client.lo[0] packetDropNoCarrier:vector(packetBytes):mean -nan
scalar TcpAppExample.client.lo[0] packetDropNoCarrier:vector(packetBytes):stddev nan
scalar TcpAppExample.client.lo[0] packetDropNoCarrier:vector(packetBytes):min inf
scalar TcpAppExample.client.lo[0] packetDropNoCarrier:vector(packetBytes):max -inf
scalar TcpAppExample.client.lo[0] packetDropNoCarrier:vector(packetBytes):starttime nan
scalar TcpAppExample.client.lo[0] packetDropNoCarrier:vector(packetBytes):endtime nan
scalar TcpAppExample.client.ppp[0].queue queueLength:vector:count 978
scalar TcpAppExample.client.ppp[0].queue queueLength:vector:sum 0
scalar TcpAppExample.client.ppp[0].queue queueLength:vector:sumweights 978
scalar TcpAppExample.client.ppp[0].queue queueLength:vector:mean 0
scalar TcpAppExample.client.ppp[0].queue queueLength:vector:stddev 0
scalar TcpAppExample.client.ppp[0].queue queueLength:vector:min 0
scalar TcpAppExample.client.ppp[0].queue queueLength:vector:max 0
scalar TcpAppExample.client.ppp[0].queue queueLength:vector:starttime 0
scalar TcpAppExample.client.ppp[0].queue queueLength:vector:endtime 99.512180455157022
scalar TcpAppExample.client.ppp[0].queue queueBitLength:vector:count 978
scalar TcpAppExample.client.ppp[0].queue queueBitLength:vector:sum 0
scalar TcpAppExample.client.ppp[0].queue queueBitLength:vector:sumweights 978
[...]
scalar TcpAppExample.server.app[0].connection[0].source.multiplexer dataRate:vector:mean 0
scalar TcpAppExample.server.app[0].connection[0].source.multiplexer dataRate:vector:stddev 0
scalar TcpAppExample.server.app[0].connection[0].source.multiplexer dataRate:vector:min 0
scalar TcpAppExample.server.app[0].connection[0].source.multiplexer dataRate:vector:max 0
scalar TcpAppExample.server.app[0].connection[0].source.multiplexer dataRate:vector:starttime 0.10023710000000002
scalar TcpAppExample.server.app[0].connection[0].source.multiplexer dataRate:vector:endtime 100
scalar TcpAppExample.server.app[0].connection[0].source.tokenGenerator numTokensCreated:vector:count 9
scalar TcpAppExample.server.app[0].connection[0].source.tokenGenerator numTokensCreated:vector:sum 9
scalar TcpAppExample.server.app[0].connection[0].source.tokenGenerator numTokensCreated:vector:sumweights 9
scalar TcpAppExample.server.app[0].connection[0].source.tokenGenerator numTokensCreated:vector:mean 1
scalar TcpAppExample.server.app[0].connection[0].source.tokenGenerator numTokensCreated:vector:stddev 0
scalar TcpAppExample.server.app[0].connection[0].source.tokenGenerator numTokensCreated:vector:min 1
scalar TcpAppExample.server.app[0].connection[0].source.tokenGenerator numTokensCreated:vector:max 1
scalar TcpAppExample.server.app[0].connection[0].source.tokenGenerator numTokensCreated:vector:starttime 1.3615992726620003
scalar TcpAppExample.server.app[0].connection[0].source.tokenGenerator numTokensCreated:vector:endtime 78.91911923826602
scalar TcpAppExample.server.app[0].connection[0].sink.queue queueLength:vector:count 15
scalar TcpAppExample.server.app[0].connection[0].sink.queue queueLength:vector:sum 0
scalar TcpAppExample.server.app[0].connection[0].sink.queue queueLength:vector:sumweights 15
scalar TcpAppExample.server.app[0].connection[0].sink.queue queueLength:vector:mean 0
scalar TcpAppExample.server.app[0].connection[0].sink.queue queueLength:vector:stddev 0
scalar TcpAppExample.server.app[0].connection[0].sink.queue queueLength:vector:min 0
scalar TcpAppExample.server.app[0].connection[0].sink.queue queueLength:vector:max 0
scalar TcpAppExample.server.app[0].connection[0].sink.queue queueLength:vector:starttime 0.00023710000000000004
scalar TcpAppExample.server.app[0].connection[0].sink.queue queueLength:vector:endtime 96.243984332430031
scalar TcpAppExample.server.app[0].connection[0].sink.queue queueBitLength:vector:count 15
scalar TcpAppExample.server.app[0].connection[0].sink.queue queueBitLength:vector:sum 0
scalar TcpAppExample.server.app[0].connection[0].sink.queue queueBitLength:vector:sumweights 15
scalar TcpAppExample.server.app[0].connection[0].sink.queue queueBitLength:vector:mean 0
scalar TcpAppExample.server.app[0].connection[0].sink.queue queueBitLength:vector:stddev 0
scalar TcpAppExample.server.app[0].connection[0].sink.queue queueBitLength:vector:min 0
scalar TcpAppExample.server.app[0].connection[0].sink.queue queueBitLength:vector:max 0
scalar TcpAppExample.server.app[0].connection[0].sink.queue queueBitLength:vector:starttime 0.00023710000000000004
scalar TcpAppExample.server.app[0].connection[0].sink.queue queueBitLength:vector:endtime 96.243984332430031
scalar TcpAppExample.server.app[0].connection[0].sink.queue queueingTime:vector:count 10
scalar TcpAppExample.server.app[0].connection[0].sink.queue queueingTime:vector:sum 0
scalar TcpAppExample.server.app[0].connection[0].sink.queue queueingTime:vector:sumweights 10
scalar TcpAppExample.server.app[0].connection[0].sink.queue queueingTime:vector:mean 0
scalar TcpAppExample.server.app[0].connection[0].sink.queue queueingTime:vector:stddev 0
scalar TcpAppExample.server.app[0].connection[0].sink.queue queueingTime:vector:min 0
scalar TcpAppExample.server.app[0].connection[0].sink.queue queueingTime:vector:max 0
scalar TcpAppExample.server.app[0].connection[0].sink.queue queueingTime:vector:starttime 0.00023710000000000004
scalar TcpAppExample.server.app[0].connection[0].sink.queue queueingTime:vector:endtime 96.243984332430031
scalar TcpAppExample.server.app[0].connection[0].sink.queue incomingPacketLengths:vector:count 10
scalar TcpAppExample.server.app[0].connection[0].sink.queue incomingPacketLengths:vector:sum 11296
scalar TcpAppExample.server.app[0].connection[0].sink.queue incomingPacketLengths:vector:sumweights 10
scalar TcpAppExample.server.app[0].connection[0].sink.queue incomingPacketLengths:vector:mean 1129.5999999999999
scalar TcpAppExample.server.app[0].connection[0].sink.queue incomingPacketLengths:vector:stddev 213.25998739149887
scalar TcpAppExample.server.app[0].connection[0].sink.queue incomingPacketLengths:vector:min 816
scalar TcpAppExample.server.app[0].connection[0].sink.queue incomingPacketLengths:vector:max 1464
scalar TcpAppExample.server.app[0].connection[0].sink.queue incomingPacketLengths:vector:starttime 0.00023710000000000004
scalar TcpAppExample.server.app[0].connection[0].sink.queue incomingPacketLengths:vector:endtime 96.243984332430031
scalar TcpAppExample.server.app[0].connection[0].sink.queue incomingDataRate:vector:count 1000
scalar TcpAppExample.server.app[0].connection[0].sink.queue incomingDataRate:vector:sum 112960.00000000001
scalar TcpAppExample.server.app[0].connection[0].sink.queue incomingDataRate:vector:sumweights 1000
scalar TcpAppExample.server.app[0].connection[0].sink.queue incomingDataRate:vector:mean 112.96000000000001
scalar TcpAppExample.server.app[0].connection[0].sink.queue incomingDataRate:vector:stddev 1142.5731976166396
scalar TcpAppExample.server.app[0].connection[0].sink.queue incomingDataRate:vector:min 0
scalar TcpAppExample.server.app[0].connection[0].sink.queue incomingDataRate:vector:max 14640.000000000002
scalar TcpAppExample.server.app[0].connection[0].sink.queue incomingDataRate:vector:starttime 0.10023710000000002
scalar TcpAppExample.server.app[0].connection[0].sink.queue incomingDataRate:vector:endtime 100
scalar TcpAppExample.server.app[0].connection[0].sink.queue outgoingPacketLengths:vector:count 10
scalar TcpAppExample.server.app[0].connection[0].sink.queue outgoingPacketLengths:vector:sum 11296
scalar TcpAppExample.server.app[0].connection[0].sink.queue outgoingPacketLengths:vector:sumweights 10
scalar TcpAppExample.server.app[0].connection[0].sink.queue outgoingPacketLengths:vector:mean 1129.5999999999999
scalar TcpAppExample.server.app[0].connection[0].sink.queue outgoingPacketLengths:vector:stddev 213.25998739149887
scalar TcpAppExample.server.app[0].connection[0].sink.queue outgoingPacketLengths:vector:min 816
scalar TcpAppExample.server.app[0].connection[0].sink.queue outgoingPacketLengths:vector:max 1464
scalar TcpAppExample.server.app[0].connection[0].sink.queue outgoingPacketLengths:vector:starttime 0.00023710000000000004
scalar TcpAppExample.server.app[0].connection[0].sink.queue outgoingPacketLengths:vector:endtime 96.243984332430031
scalar TcpAppExample.server.app[0].connection[0].sink.queue outgoingDataRate:vector:count 1000
scalar TcpAppExample.server.app[0].connection[0].sink.queue outgoingDataRate:vector:sum 112960.00000000001
scalar TcpAppExample.server.app[0].connection[0].sink.queue outgoingDataRate:vector:sumweights 1000
scalar TcpAppExample.server.app[0].connection[0].sink.queue outgoingDataRate:vector:mean 112.96000000000001
scalar TcpAppExample.server.app[0].connection[0].sink.queue outgoingDataRate:vector:stddev 1142.5731976166396
scalar TcpAppExample.server.app[0].connection[0].sink.queue outgoingDataRate:vector:min 0
scalar TcpAppExample.server.app[0].connection[0].sink.queue outgoingDataRate:vector:max 14640.000000000002
scalar TcpAppExample.server.app[0].connection[0].sink.queue outgoingDataRate:vector:starttime 0.10023710000000002
scalar TcpAppExample.server.app[0].connection[0].sink.queue outgoingDataRate:vector:endtime 100
scalar TcpAppExample.server.app[0].connection[0].sink.queue droppedPacketLengthsQueueOverflow:vector:count 0
scalar TcpAppExample.server.app[0].connection[0].sink.queue droppedPacketLengthsQueueOverflow:vector:sum 0
scalar TcpAppExample.server.app[0].connection[0].sink.queue droppedPacketLengthsQueueOverflow:vector:sumweights 0
scalar TcpAppExample.server.app[0].connection[0].sink.queue droppedPacketLengthsQueueOverflow:vector:mean -nan
scalar TcpAppExample.server.app[0].connection[0].sink.queue droppedPacketLengthsQueueOverflow:vector:stddev nan
scalar TcpAppExample.server.app[0].connection[0].sink.queue droppedPacketLengthsQueueOverflow:vector:min inf
scalar TcpAppExample.server.app[0].connection[0].sink.queue droppedPacketLengthsQueueOverflow:vector:max -inf
scalar TcpAppExample.server.app[0].connection[0].sink.queue droppedPacketLengthsQueueOverflow:vector:starttime nan
scalar TcpAppExample.server.app[0].connection[0].sink.queue droppedPacketLengthsQueueOverflow:vector:endtime nan
scalar TcpAppExample.server.app[0].connection[0].sink.queue flowQueueingTime:vector:count 0
scalar TcpAppExample.server.app[0].connection[0].sink.queue flowQueueingTime:vector:sum 0
scalar TcpAppExample.server.app[0].connection[0].sink.queue flowQueueingTime:vector:sumweights 0
scalar TcpAppExample.server.app[0].connection[0].sink.queue flowQueueingTime:vector:mean -nan
scalar TcpAppExample.server.app[0].connection[0].sink.queue flowQueueingTime:vector:stddev nan
scalar TcpAppExample.server.app[0].connection[0].sink.queue flowQueueingTime:vector:min inf
scalar TcpAppExample.server.app[0].connection[0].sink.queue flowQueueingTime:vector:max -inf
scalar TcpAppExample.server.app[0].connection[0].sink.queue flowQueueingTime:vector:starttime nan
scalar TcpAppExample.server.app[0].connection[0].sink.queue flowQueueingTime:vector:endtime nan
scalar TcpAppExample.server.app[0].connection[0].sink.queue flowIncomingDataRate:vector:count 1000
scalar TcpAppExample.server.app[0].connection[0].sink.queue flowIncomingDataRate:vector:sum 0
scalar TcpAppExample.server.app[0].connection[0].sink.queue flowIncomingDataRate:vector:sumweights 1000
scalar TcpAppExample.server.app[0].connection[0].sink.queue flowIncomingDataRate:vector:mean 0
scalar TcpAppExample.server.app[0].connection[0].sink.queue flowIncomingDataRate:vector:stddev 0
scalar TcpAppExample.server.app[0].connection[0].sink.queue flowIncomingDataRate:vector:min 0
scalar TcpAppExample.server.app[0].connection[0].sink.queue flowIncomingDataRate:vector:max 0
scalar TcpAppExample.server.app[0].connection[0].sink.queue flowIncomingDataRate:vector:starttime 0.10023710000000002
scalar TcpAppExample.server.app[0].connection[0].sink.queue flowIncomingDataRate:vector:endtime 100
scalar TcpAppExample.server.app[0].connection[0].sink.queue flowOutgoingDataRate:vector:count 1000
scalar TcpAppExample.server.app[0].connection[0].sink.queue flowOutgoingDataRate:vector:sum 0
scalar TcpAppExample.server.app[0].connection[0].sink.queue flowOutgoingDataRate:vector:sumweights 1000
scalar TcpAppExample.server.app[0].connection[0].sink.queue flowOutgoingDataRate:vector:mean 0
scalar TcpAppExample.server.app[0].connection[0].sink.queue flowOutgoingDataRate:vector:stddev 0
scalar TcpAppExample.server.app[0].connection[0].sink.queue flowOutgoingDataRate:vector:min 0
scalar TcpAppExample.server.app[0].connection[0].sink.queue flowOutgoingDataRate:vector:max 0
scalar TcpAppExample.server.app[0].connection[0].sink.queue flowOutgoingDataRate:vector:starttime 0.10023710000000002
scalar TcpAppExample.server.app[0].connection[0].sink.queue flowOutgoingDataRate:vector:endtime 100
scalar TcpAppExample.server.app[0].connection[0].sink.server incomingPacketLengths:vector:count 10
scalar TcpAppExample.server.app[0].connection[0].sink.server incomingPacketLengths:vector:sum 11296
scalar TcpAppExample.server.app[0].connection[0].sink.server incomingPacketLengths:vector:sumweights 10
scalar TcpAppExample.server.app[0].connection[0].sink.server incomingPacketLengths:vector:mean 1129.5999999999999
scalar TcpAppExample.server.app[0].connection[0].sink.server incomingPacketLengths:vector:stddev 213.25998739149887
scalar TcpAppExample.server.app[0].connection[0].sink.server incomingPacketLengths:vector:min 816
scalar TcpAppExample.server.app[0].connection[0].sink.server incomingPacketLengths:vector:max 1464
scalar TcpAppExample.server.app[0].connection[0].sink.server incomingPacketLengths:vector:starttime 0.00023710000000000004
scalar TcpAppExample.server.app[0].connection[0].sink.server incomingPacketLengths:vector:endtime 96.243984332430031
scalar TcpAppExample.server.app[0].connection[0].sink.server incomingDataRate:vector:count 1000
scalar TcpAppExample.server.app[0].connection[0].sink.server incomingDataRate:vector:sum 112960.00000000001
scalar TcpAppExample.server.app[0].connection[0].sink.server incomingDataRate:vector:sumweights 1000
scalar TcpAppExample.server.app[0].connection[0].sink.server incomingDataRate:vector:mean 112.96000000000001
scalar TcpAppExample.server.app[0].connection[0].sink.server incomingDataRate:vector:stddev 1142.5731976166396
scalar TcpAppExample.server.app[0].connection[0].sink.server incomingDataRate:vector:min 0
scalar TcpAppExample.server.app[0].connection[0].sink.server incomingDataRate:vector:max 14640.000000000002
scalar TcpAppExample.server.app[0].connection[0].sink.server incomingDataRate:vector:starttime 0.10023710000000002
scalar TcpAppExample.server.app[0].connection[0].sink.server incomingDataRate:vector:endtime 100
scalar TcpAppExample.server.app[0].connection[0].sink.server outgoingPacketLengths:vector:count 10
scalar TcpAppExample.server.app[0].connection[0].sink.server outgoingPacketLengths:vector:sum 11296
scalar TcpAppExample.server.app[0].connection[0].sink.server outgoingPacketLengths:vector:sumweights 10
scalar TcpAppExample.server.app[0].connection[0].sink.server outgoingPacketLengths:vector:mean 1129.5999999999999
scalar TcpAppExample.server.app[0].connection[0].sink.server outgoingPacketLengths:vector:stddev 213.25998739149887
scalar TcpAppExample.server.app[0].connection[0].sink.server outgoingPacketLengths:vector:min 816
scalar TcpAppExample.server.app[0].connection[0].sink.server outgoingPacketLengths:vector:max 1464
scalar TcpAppExample.server.app[0].connection[0].sink.server outgoingPacketLengths:vector:starttime 0.00023710000000000004
scalar TcpAppExample.server.app[0].connection[0].sink.server outgoingPacketLengths:vector:endtime 96.243984332430031
scalar TcpAppExample.server.app[0].connection[0].sink.server outgoingDataRate:vector:count 1000
scalar TcpAppExample.server.app[0].connection[0].sink.server outgoingDataRate:vector:sum 112960.00000000001
scalar TcpAppExample.server.app[0].connection[0].sink.server outgoingDataRate:vector:sumweights 1000
scalar TcpAppExample.server.app[0].connection[0].sink.server outgoingDataRate:vector:mean 112.96000000000001
scalar TcpAppExample.server.app[0].connection[0].sink.server outgoingDataRate:vector:stddev 1142.5731976166396
scalar TcpAppExample.server.app[0].connection[0].sink.server outgoingDataRate:vector:min 0
scalar TcpAppExample.server.app[0].connection[0].sink.server outgoingDataRate:vector:max 14640.000000000002
scalar TcpAppExample.server.app[0].connection[0].sink.server outgoingDataRate:vector:starttime 0.10023710000000002
scalar TcpAppExample.server.app[0].connection[0].sink.server outgoingDataRate:vector:endtime 100
scalar TcpAppExample.server.app[0].connection[0].sink.server numTokens:vector:count 21
scalar TcpAppExample.server.app[0].connection[0].sink.server numTokens:vector:sum 90
scalar TcpAppExample.server.app[0].connection[0].sink.server numTokens:vector:sumweights 21
scalar TcpAppExample.server.app[0].connection[0].sink.server numTokens:vector:mean 4.2857142857142856
scalar TcpAppExample.server.app[0].connection[0].sink.server numTokens:vector:stddev 3.0355041944108252
scalar TcpAppExample.server.app[0].connection[0].sink.server numTokens:vector:min 0
scalar TcpAppExample.server.app[0].connection[0].sink.server numTokens:vector:max 9
scalar TcpAppExample.server.app[0].connection[0].sink.server numTokens:vector:starttime 0.00023710000000000004
scalar TcpAppExample.server.app[0].connection[0].sink.server numTokens:vector:endtime 96.243984332430031
scalar TcpAppExample.server.app[0].connection[0].sink.classifier packetLengths:vector:count 10
scalar TcpAppExample.server.app[0].connection[0].sink.classifier packetLengths:vector:sum 11296
scalar TcpAppExample.server.app[0].connection[0].sink.classifier packetLengths:vector:sumweights 10
scalar TcpAppExample.server.app[0].connection[0].sink.classifier packetLengths:vector:mean 1129.5999999999999
scalar TcpAppExample.server.app[0].connection[0].sink.classifier packetLengths:vector:stddev 213.25998739149887
scalar TcpAppExample.server.app[0].connection[0].sink.classifier packetLengths:vector:min 816
scalar TcpAppExample.server.app[0].connection[0].sink.classifier packetLengths:vector:max 1464
scalar TcpAppExample.server.app[0].connection[0].sink.classifier packetLengths:vector:starttime 0.00023710000000000004
scalar TcpAppExample.server.app[0].connection[0].sink.classifier packetLengths:vector:endtime 96.243984332430031
scalar TcpAppExample.server.app[0].connection[0].sink.classifier dataRate:vector:count 1000
scalar TcpAppExample.server.app[0].connection[0].sink.classifier dataRate:vector:sum 112960.00000000001
scalar TcpAppExample.server.app[0].connection[0].sink.classifier dataRate:vector:sumweights 1000
scalar TcpAppExample.server.app[0].connection[0].sink.classifier dataRate:vector:mean 112.96000000000001
scalar TcpAppExample.server.app[0].connection[0].sink.classifier dataRate:vector:stddev 1142.5731976166396
scalar TcpAppExample.server.app[0].connection[0].sink.classifier dataRate:vector:min 0
scalar TcpAppExample.server.app[0].connection[0].sink.classifier dataRate:vector:max 14640.000000000002
scalar TcpAppExample.server.app[0].connection[0].sink.classifier dataRate:vector:starttime 0.10023710000000002
scalar TcpAppExample.server.app[0].connection[0].sink.classifier dataRate:vector:endtime 100
scalar TcpAppExample.server.app[0].connection[0].sink.tokenGenerator[0] numTokensCreated:vector:count 5
scalar TcpAppExample.server.app[0].connection[0].sink.tokenGenerator[0] numTokensCreated:vector:sum 15
scalar TcpAppExample.server.app[0].connection[0].sink.tokenGenerator[0] numTokensCreated:vector:sumweights 5
scalar TcpAppExample.server.app[0].connection[0].sink.tokenGenerator[0] numTokensCreated:vector:mean 3
scalar TcpAppExample.server.app[0].connection[0].sink.tokenGenerator[0] numTokensCreated:vector:stddev 1.4142135623730951
scalar TcpAppExample.server.app[0].connection[0].sink.tokenGenerator[0] numTokensCreated:vector:min 1
scalar TcpAppExample.server.app[0].connection[0].sink.tokenGenerator[0] numTokensCreated:vector:max 4
scalar TcpAppExample.server.app[0].connection[0].sink.tokenGenerator[0] numTokensCreated:vector:starttime 10.976438946085002
scalar TcpAppExample.server.app[0].connection[0].sink.tokenGenerator[0] numTokensCreated:vector:endtime 96.243984332430031
scalar TcpAppExample.server.app[0].connection[0].sink.tokenGenerator[1] numTokensCreated:vector:count 5
scalar TcpAppExample.server.app[0].connection[0].sink.tokenGenerator[1] numTokensCreated:vector:sum 82
scalar TcpAppExample.server.app[0].connection[0].sink.tokenGenerator[1] numTokensCreated:vector:sumweights 5
scalar TcpAppExample.server.app[0].connection[0].sink.tokenGenerator[1] numTokensCreated:vector:mean 16.399999999999999
scalar TcpAppExample.server.app[0].connection[0].sink.tokenGenerator[1] numTokensCreated:vector:stddev 3.6469165057620954
scalar TcpAppExample.server.app[0].connection[0].sink.tokenGenerator[1] numTokensCreated:vector:min 12
scalar TcpAppExample.server.app[0].connection[0].sink.tokenGenerator[1] numTokensCreated:vector:max 20
scalar TcpAppExample.server.app[0].connection[0].sink.tokenGenerator[1] numTokensCreated:vector:starttime 0.00023710000000000004
scalar TcpAppExample.server.app[0].connection[0].sink.tokenGenerator[1] numTokensCreated:vector:endtime 77.122343537276009

