version 3
run RequestResponseTraffic-0-20230411-10:31:35-42611
attr configname RequestResponseTraffic
attr datetime 20230411-10:31:35
attr datetimef 20230411-103135
attr experiment RequestResponseTraffic
attr inifile omnetpp.ini
attr iterationvars ""
attr iterationvarsd ""
attr iterationvarsf ""
attr measurement ""
attr network TcpAppExample
attr processid 42611
attr repetition 0
attr replication #0
attr resultdir results
attr runnumber 0
attr seedset 0
config **.param-recording false
config image-path /home/levy/workspace/inet/images
config sim-time-limit 100s
config sim-time-limit 100s
config *.server.app[0].listener.serverConnectionModuleType "\"inet.applications.tcpapp.TcpRequestResponseApp\""
config *.server.app[0].connection[*].sink.tokenGenerator[0].numTokensPerPacket "intuniform(1, 5)"
config *.server.app[0].connection[*].source.provider[0].providingInterval "uniform(0s, 2s)"
config *.server.app[0].connection[*].source.provider[0].packetLength "intuniform(100B, 1000B)"
config *.server.app[0].connection[*].sink.tokenGenerator[1].numTokensPerPacket "intuniform(10, 20)"
config *.server.app[0].connection[*].source.provider[1].providingInterval "uniform(0s, 0.2s)"
config *.server.app[0].connection[*].source.provider[1].packetLength "intuniform(1000B, 10000B)"
config network TcpAppExample
config *.*.numApps 1
config *.client.app[0].typename TcpClientApp
config *.client.app[0].io.connectAddress "\"server\""
config *.client.app[0].io.connectPort 1000
config *.client.app[0].source.productionInterval "uniform(0s, 20s)"
config *.client.app[0].source.packetLength "intuniform(100B, 200B)"
config *.client.app[0].source.packetData "intuniform(0, 1)"
config *.server.app[0].typename TcpServerApp
config *.server.app[0].listener.localPort 1000

scalar TcpAppExample.client.lo[0].lo rcvdPkFromHl:count 0
attr interpolationmode none
attr recordingmode count
attr source packetReceivedFromUpper
attr title "packets received from higher layer, count"
scalar TcpAppExample.client.lo[0].lo rcvdPkFromHl:sum(packetBytes) 0
attr interpolationmode none
attr recordingmode sum(packetBytes)
attr source packetReceivedFromUpper
attr title "packets received from higher layer, sum(packetBytes)"
scalar TcpAppExample.client.lo[0].lo passedUpPk:count 0
attr interpolationmode none
attr recordingmode count
attr source packetSentToUpper
attr title "packets passed to higher layer, count"
scalar TcpAppExample.client.lo[0].lo passedUpPk:sum(packetBytes) 0
attr interpolationmode none
attr recordingmode sum(packetBytes)
attr source packetSentToUpper
attr title "packets passed to higher layer, sum(packetBytes)"
scalar TcpAppExample.client.lo[0] packetDropInterfaceDown:count 0
attr interpolationmode none
attr recordingmode count
attr source packetDropReasonIsInterfaceDown(packetDropped)
attr title "packet drops: interface down, count"
scalar TcpAppExample.client.lo[0] packetDropInterfaceDown:sum(packetBytes) 0
attr interpolationmode none
attr recordingmode sum(packetBytes)
attr source packetDropReasonIsInterfaceDown(packetDropped)
attr title "packet drops: interface down, sum(packetBytes)"
scalar TcpAppExample.client.lo[0] packetDropNoCarrier:count 0
attr interpolationmode none
attr recordingmode count
attr source packetDropReasonIsNoCarrier(packetDropped)
attr title "packet drops: no carrier, count"
scalar TcpAppExample.client.lo[0] packetDropNoCarrier:sum(packetBytes) 0
attr interpolationmode none
attr recordingmode sum(packetBytes)
attr source packetDropReasonIsNoCarrier(packetDropped)
attr title "packet drops: no carrier, sum(packetBytes)"
scalar TcpAppExample.client.ppp[0].queue queueLength:last 0
attr autoWarmupFilter false
attr interpolationmode sample-hold
attr recordingmode last
attr source "warmup(atomic(constant0(packetPushEnded) + count(packetPushStarted) - count(packetPulled) - count(packetRemoved) - count(packetDropped)))"
attr title "queue length, last"
attr unit pk
scalar TcpAppExample.client.ppp[0].queue queueLength:max 0
attr autoWarmupFilter false
attr interpolationmode sample-hold
attr recordingmode max
attr source "warmup(atomic(constant0(packetPushEnded) + count(packetPushStarted) - count(packetPulled) - count(packetRemoved) - count(packetDropped)))"
attr title "queue length, max"
attr unit pk
scalar TcpAppExample.client.ppp[0].queue queueLength:timeavg 0
attr autoWarmupFilter false
attr interpolationmode sample-hold
attr recordingmode timeavg
attr source "warmup(atomic(constant0(packetPushEnded) + count(packetPushStarted) - count(packetPulled) - count(packetRemoved) - count(packetDropped)))"
attr title "queue length, timeavg"
attr unit pk
scalar TcpAppExample.client.ppp[0].queue queueBitLength:last 0
attr autoWarmupFilter false
attr interpolationmode sample-hold
attr recordingmode last
attr source "warmup(atomic(constant0(packetPushEnded) + sum(packetLength(packetPushStarted)) - sum(packetLength(packetPulled)) - sum(packetLength(packetRemoved)) - sum(packetLength(packetDropped))))"
attr title "queue bit length, last"
attr unit b
scalar TcpAppExample.client.ppp[0].queue queueBitLength:max 0
attr autoWarmupFilter false
attr interpolationmode sample-hold
attr recordingmode max
attr source "warmup(atomic(constant0(packetPushEnded) + sum(packetLength(packetPushStarted)) - sum(packetLength(packetPulled)) - sum(packetLength(packetRemoved)) - sum(packetLength(packetDropped))))"
attr title "queue bit length, max"
attr unit b
scalar TcpAppExample.client.ppp[0].queue queueBitLength:timeavg 0
attr autoWarmupFilter false
attr interpolationmode sample-hold
attr recordingmode timeavg
attr source "warmup(atomic(constant0(packetPushEnded) + sum(packetLength(packetPushStarted)) - sum(packetLength(packetPulled)) - sum(packetLength(packetRemoved)) - sum(packetLength(packetDropped))))"
attr title "queue bit length, timeavg"
attr unit b
statistic TcpAppExample.client.ppp[0].queue queueingTime:histogram
field count 973
field mean 0
field stddev 0
field min 0
field max 0
field sum 0
field sqrsum 0
attr interpolationmode none
attr recordingmode histogram
attr source queueingTime(packetPulled)
attr title "queueing times"
attr unit s
bin	-inf	0
bin	-0.5	0
bin	-0.48	0
bin	-0.46	0
bin	-0.44	0
bin	-0.42	0
bin	-0.4	0
bin	-0.38	0
bin	-0.36	0
bin	-0.34	0
bin	-0.32	0
bin	-0.3	0
bin	-0.28	0
bin	-0.26	0
bin	-0.24	0
bin	-0.22	0
bin	-0.2	0
bin	-0.18	0
bin	-0.16	0
bin	-0.14	0
bin	-0.12	0
bin	-0.1	0
bin	-0.08	0
bin	-0.06	0
bin	-0.04	0
bin	-0.02	0
bin	0	973
bin	0.02	0
bin	0.04	0
bin	0.06	0
bin	0.08	0
bin	0.1	0
bin	0.12	0
bin	0.14	0
bin	0.16	0
bin	0.18	0
bin	0.2	0
bin	0.22	0
bin	0.24	0
bin	0.26	0
bin	0.28	0
bin	0.3	0
bin	0.32	0
bin	0.34	0
bin	0.36	0
bin	0.38	0
bin	0.4	0
bin	0.42	0
bin	0.44	0
bin	0.46	0
bin	0.48	0
bin	0.5	0
scalar TcpAppExample.client.ppp[0].queue outgoingPackets:count 973
attr recordingmode count
attr source packetPulled
attr title "outgoing packets, count"
attr unit pk
scalar TcpAppExample.client.ppp[0].queue outgoingPacketLengths:sum 322688
attr interpolationmode none
attr recordingmode sum
attr source packetLength(packetPulled)
attr title "outgoing packet lengths, sum"
attr unit b
statistic TcpAppExample.client.ppp[0].queue outgoingPacketLengths:histogram
field count 973
field mean 331.64234326824
field stddev 115.81887526545
field min 320
field max 1784
field sum 322688
field sqrsum 120055424
attr interpolationmode none
attr recordingmode histogram
attr source packetLength(packetPulled)
attr title "outgoing packet lengths"
attr unit b
bin	-inf	0
bin	20	0
bin	40	0
bin	60	0
bin	80	0
bin	100	0
bin	120	0
bin	140	0
bin	160	0
bin	180	0
bin	200	0
bin	220	0
bin	240	0
bin	260	0
bin	280	0
bin	300	0
bin	320	962
bin	340	1
bin	360	0
bin	380	0
bin	400	0
bin	420	0
bin	440	0
bin	460	0
bin	480	0
bin	500	0
bin	520	0
bin	540	0
bin	560	0
bin	580	0
bin	600	0
bin	620	0
bin	640	0
bin	660	0
bin	680	0
bin	700	0
bin	720	0
bin	740	0
bin	760	0
bin	780	0
bin	800	0
bin	820	0
bin	840	0
bin	860	0
bin	880	0
bin	900	0
bin	920	0
bin	940	0
bin	960	0
bin	980	0
bin	1000	0
bin	1020	0
bin	1040	0
bin	1060	0
bin	1080	0
bin	1100	0
bin	1120	1
bin	1140	0
bin	1160	0
bin	1180	0
bin	1200	1
bin	1220	0
bin	1240	0
bin	1260	0
bin	1280	2
bin	1300	0
bin	1320	0
bin	1340	0
bin	1360	0
bin	1380	0
bin	1400	0
bin	1420	0
bin	1440	0
bin	1460	1
bin	1480	1
bin	1500	0
bin	1520	0
bin	1540	0
bin	1560	1
bin	1580	0
bin	1600	0
bin	1620	1
bin	1640	1
bin	1660	0
bin	1680	0
bin	1700	0
bin	1720	0
bin	1740	0
bin	1760	0
bin	1780	1
bin	1800	0
statistic TcpAppExample.client.ppp[0].queue flowQueueingTime:histogram
field count 0
field mean -nan
field stddev nan
field min nan
field max nan
field sum 0
field sqrsum 0
attr interpolationmode none
attr recordingmode histogram
attr source queueingTime(demuxFlow(packetPulled))
attr title "flow queueing times"
attr unit s
bin	-inf	0
bin	0	0
bin	1	0
scalar TcpAppExample.client.ppp[0].queue incomingPackets:count 973
attr recordingmode count
attr source packetPushStarted
attr title "incoming packets, count"
attr unit pk
scalar TcpAppExample.client.ppp[0].queue incomingPacketLengths:sum 322688
attr interpolationmode none
attr recordingmode sum
attr source packetLength(packetPushStarted)
attr title "incoming packet lengths, sum"
attr unit b
statistic TcpAppExample.client.ppp[0].queue incomingPacketLengths:histogram
field count 973
field mean 331.64234326824
field stddev 115.81887526545
field min 320
field max 1784
field sum 322688
field sqrsum 120055424
attr interpolationmode none
attr recordingmode histogram
attr source packetLength(packetPushStarted)
attr title "incoming packet lengths"
attr unit b
bin	-inf	0
bin	20	0
bin	40	0
bin	60	0
bin	80	0
bin	100	0
bin	120	0
bin	140	0
bin	160	0
bin	180	0
bin	200	0
bin	220	0
bin	240	0
bin	260	0
bin	280	0
bin	300	0
bin	320	962
bin	340	1
bin	360	0
bin	380	0
bin	400	0
bin	420	0
bin	440	0
bin	460	0
bin	480	0
bin	500	0
bin	520	0
bin	540	0
bin	560	0
bin	580	0
bin	600	0
bin	620	0
bin	640	0
bin	660	0
bin	680	0
bin	700	0
bin	720	0
bin	740	0
bin	760	0
bin	780	0
bin	800	0
bin	820	0
bin	840	0
bin	860	0
bin	880	0
bin	900	0
bin	920	0
bin	940	0
bin	960	0
bin	980	0
bin	1000	0
bin	1020	0
bin	1040	0
bin	1060	0
bin	1080	0
bin	1100	0
bin	1120	1
bin	1140	0
bin	1160	0
bin	1180	0
bin	1200	1
bin	1220	0
bin	1240	0
bin	1260	0
bin	1280	2
bin	1300	0
bin	1320	0
bin	1340	0
bin	1360	0
bin	1380	0
bin	1400	0
bin	1420	0
bin	1440	0
bin	1460	1
bin	1480	1
bin	1500	0
bin	1520	0
bin	1540	0
bin	1560	1
bin	1580	0
bin	1600	0
bin	1620	1
bin	1640	1
bin	1660	0
bin	1680	0
bin	1700	0
bin	1720	0
bin	1740	0
bin	1760	0
bin	1780	1
bin	1800	0
scalar TcpAppExample.client.ppp[0].queue droppedPacketsQueueOverflow:count 0
attr interpolationmode none
attr recordingmode count
attr source packetDropReasonIsQueueOverflow(packetDropped)
attr title "dropped packets: queue overflow, count"
attr unit pk
scalar TcpAppExample.client.ppp[0].queue droppedPacketLengthsQueueOverflow:sum 0
attr interpolationmode none
attr recordingmode sum
attr source packetLength(packetDropReasonIsQueueOverflow(packetDropped))
attr title "dropped packet lengths: queue overflow, sum"
attr unit b
scalar TcpAppExample.client.ppp[0].ppp transmissionState:timeavg 0.00037717599999999
attr interpolationmode sample-hold
attr recordingmode timeavg
attr source transmissionStateChanged
attr title "tx state, timeavg"
scalar TcpAppExample.client.ppp[0].ppp rxPkOk:count 973
attr interpolationmode none
attr recordingmode count
attr source rxPkOk
attr title "packets received OK, count"
scalar TcpAppExample.client.ppp[0].ppp rxPkOk:sum(packetBytes) 534393
attr interpolationmode none
attr recordingmode sum(packetBytes)
attr source rxPkOk
attr title "packets received OK, sum(packetBytes)"
scalar TcpAppExample.client.ppp[0].ppp txPk:count 973
attr interpolationmode none
attr recordingmode count
attr source packetSentToLower
attr title "packets transmitted, count"
scalar TcpAppExample.client.ppp[0].ppp txPk:sum(packetBytes) 47147
attr interpolationmode none
attr recordingmode sum(packetBytes)
attr source packetSentToLower
attr title "packets transmitted, sum(packetBytes)"
scalar TcpAppExample.client.ppp[0].ppp rcvdPkFromHl:count 973
attr interpolationmode none
attr recordingmode count
attr source packetReceivedFromUpper
attr title "packets received from higher layer, count"
scalar TcpAppExample.client.ppp[0].ppp rcvdPkFromHl:sum(packetBytes) 40336
attr interpolationmode none
attr recordingmode sum(packetBytes)
attr source packetReceivedFromUpper
attr title "packets received from higher layer, sum(packetBytes)"
scalar TcpAppExample.client.ppp[0].ppp passedUpPk:count 973
attr interpolationmode none
attr recordingmode count
attr source packetSentToUpper
attr title "packets passed to higher layer, count"
scalar TcpAppExample.client.ppp[0].ppp passedUpPk:sum(packetBytes) 527582
attr interpolationmode none
attr recordingmode sum(packetBytes)
attr source packetSentToUpper
attr title "packets passed to higher layer, sum(packetBytes)"
scalar TcpAppExample.client.ppp[0].ppp packetDropIncorrectlyReceived:count 0
attr interpolationmode none
attr recordingmode count
attr source packetDropReasonIsIncorrectlyReceived(packetDropped)
attr title "packet drop: incorrectly received, count"
scalar TcpAppExample.client.ppp[0].ppp packetDropIncorrectlyReceived:sum(packetBytes) 0
attr interpolationmode none
attr recordingmode sum(packetBytes)
attr source packetDropReasonIsIncorrectlyReceived(packetDropped)
attr title "packet drop: incorrectly received, sum(packetBytes)"
scalar TcpAppExample.client.ppp[0].ppp packetDropInterfaceDown:count 0
attr interpolationmode none
attr recordingmode count
attr source packetDropReasonIsInterfaceDown(packetDropped)
attr title "packet drop: interface down, count"
scalar TcpAppExample.client.ppp[0].ppp packetDropInterfaceDown:sum(packetBytes) 0
attr interpolationmode none
attr recordingmode sum(packetBytes)
attr source packetDropReasonIsInterfaceDown(packetDropped)
attr title "packet drop: interface down, sum(packetBytes)"
scalar TcpAppExample.client.ppp[0] packetDropInterfaceDown:count 0
attr interpolationmode none
attr recordingmode count
attr source packetDropReasonIsInterfaceDown(packetDropped)
attr title "packet drops: interface down, count"
scalar TcpAppExample.client.ppp[0] packetDropInterfaceDown:sum(packetBytes) 0
attr interpolationmode none
attr recordingmode sum(packetBytes)
attr source packetDropReasonIsInterfaceDown(packetDropped)
attr title "packet drops: interface down, sum(packetBytes)"
scalar TcpAppExample.client.ppp[0] packetDropNoCarrier:count 0
attr interpolationmode none
attr recordingmode count
attr source packetDropReasonIsNoCarrier(packetDropped)
attr title "packet drops: no carrier, count"
scalar TcpAppExample.client.ppp[0] packetDropNoCarrier:sum(packetBytes) 0
attr interpolationmode none
attr recordingmode sum(packetBytes)
attr source packetDropReasonIsNoCarrier(packetDropped)
attr title "packet drops: no carrier, sum(packetBytes)"
scalar TcpAppExample.client.ipv4.ip packetDropAddressResolutionFailed:count 0
attr interpolationmode none
attr recordingmode count
attr source packetDropReasonIsAddressResolutionFailed(packetDropped)
attr title "packet drop: address resolution failed, count"
scalar TcpAppExample.client.ipv4.ip packetDropAddressResolutionFailed:sum(packetBytes) 0
attr interpolationmode none
attr recordingmode sum(packetBytes)
attr source packetDropReasonIsAddressResolutionFailed(packetDropped)
attr title "packet drop: address resolution failed, sum(packetBytes)"
scalar TcpAppExample.client.ipv4.ip packetDropHopLimitReached:count 0
attr interpolationmode none
attr recordingmode count
attr source packetDropReasonIsHopLimitReached(packetDropped)
attr title "packet drop: hop limit reached, count"
scalar TcpAppExample.client.ipv4.ip packetDropHopLimitReached:sum(packetBytes) 0
attr interpolationmode none
attr recordingmode sum(packetBytes)
attr source packetDropReasonIsHopLimitReached(packetDropped)
attr title "packet drop: hop limit reached, sum(packetBytes)"
scalar TcpAppExample.client.ipv4.ip packetDropForwardingDisabled:count 0
attr interpolationmode none
attr recordingmode count
attr source packetDropReasonIsForwardingDisabled(packetDropped)
attr title "packet drop: forwarding disabled, count"
scalar TcpAppExample.client.ipv4.ip packetDropForwardingDisabled:sum(packetBytes) 0
attr interpolationmode none
attr recordingmode sum(packetBytes)
attr source packetDropReasonIsForwardingDisabled(packetDropped)
attr title "packet drop: forwarding disabled, sum(packetBytes)"
scalar TcpAppExample.client.ipv4.ip packetDropNoInterfaceFound:count 0
attr interpolationmode none
attr recordingmode count
attr source packetDropReasonIsNoInterfaceFound(packetDropped)
attr title "packet drop: no interface found, count"
scalar TcpAppExample.client.ipv4.ip packetDropNoInterfaceFound:sum(packetBytes) 0
attr interpolationmode none
attr recordingmode sum(packetBytes)
attr source packetDropReasonIsNoInterfaceFound(packetDropped)
attr title "packet drop: no interface found, sum(packetBytes)"
scalar TcpAppExample.client.ipv4.ip packetDropNoRouteFound:count 0
attr interpolationmode none
attr recordingmode count
attr source packetDropReasonIsNoRouteFound(packetDropped)
attr title "packet drop: no route found, count"
scalar TcpAppExample.client.ipv4.ip packetDropNoRouteFound:sum(packetBytes) 0
attr interpolationmode none
attr recordingmode sum(packetBytes)
attr source packetDropReasonIsNoRouteFound(packetDropped)
attr title "packet drop: no route found, sum(packetBytes)"
scalar TcpAppExample.client.ipv4.ip packetDropUndefined:count 0
attr interpolationmode none
attr recordingmode count
attr source packetDropReasonIsUndefined(packetDropped)
attr title "packet drop: undefined, count"
scalar TcpAppExample.client.ipv4.ip packetDropUndefined:sum(packetBytes) 0
attr interpolationmode none
attr recordingmode sum(packetBytes)
attr source packetDropReasonIsUndefined(packetDropped)
attr title "packet drop: undefined, sum(packetBytes)"
scalar TcpAppExample.client.ipv4.arp arpResolutionFailed:count 0
attr recordingmode count
attr title "ARP failed resolutions, count"
scalar TcpAppExample.client.ipv4.arp arpResolutionCompleted:count 0
attr recordingmode count
attr title "ARP completed resolutions, count"
scalar TcpAppExample.client.ipv4.arp arpResolutionInitiated:count 0
attr recordingmode count
attr title "ARP initiated resolutions, count"
scalar TcpAppExample.client.ipv4.arp arpReplySent:count 0
attr recordingmode count
attr source arpReplySent
attr title "ARP replies sent, count"
scalar TcpAppExample.client.ipv4.arp arpReplySent:sum(packetBytes) 0
attr recordingmode sum(packetBytes)
attr source arpReplySent
attr title "ARP replies sent, sum(packetBytes)"
scalar TcpAppExample.client.ipv4.arp arpRequestSent:count 0
attr recordingmode count
attr source arpRequestSent
attr title "ARP request sent, count"
scalar TcpAppExample.client.ipv4.arp arpRequestSent:sum(packetBytes) 0
attr recordingmode sum(packetBytes)
attr source arpRequestSent
attr title "ARP request sent, sum(packetBytes)"
scalar TcpAppExample.client.udp packetReceived:count 0
attr interpolationmode none
attr recordingmode count
attr source packetReceived
attr title "packets received, count"
scalar TcpAppExample.client.udp packetReceived:sum(packetBytes) 0
attr interpolationmode none
attr recordingmode sum(packetBytes)
attr source packetReceived
attr title "packets received, sum(packetBytes)"
scalar TcpAppExample.client.udp packetSent:count 0
attr interpolationmode none
attr recordingmode count
attr source packetSent
attr title "packets sent, count"
scalar TcpAppExample.client.udp packetSent:sum(packetBytes) 0
attr interpolationmode none
attr recordingmode sum(packetBytes)
attr source packetSent
attr title "packets sent, sum(packetBytes)"
scalar TcpAppExample.client.udp passedUpPk:count 0
attr interpolationmode none
attr recordingmode count
attr source packetSentToUpper
attr title "packets passed up, count"
scalar TcpAppExample.client.udp droppedPkWrongPort:count 0
attr interpolationmode none
attr recordingmode count
attr source packetDropReasonIsNoPortFound(packetDropped)
attr title "packets dropped (wrong port), count"
scalar TcpAppExample.client.udp droppedPkBadChecksum:count 0
attr interpolationmode none
attr recordingmode count
attr source packetDropReasonIsIncorrectlyReceived(packetDropped)
attr title "packets dropped (checksum error), count"
scalar TcpAppExample.client.app[0].source packets:count 10
attr recordingmode count
attr source packetPushed
attr title "packets, count"
attr unit pk
scalar TcpAppExample.client.app[0].source packetLengths:sum 11296
attr interpolationmode none
attr recordingmode sum
attr source packetLength(packetPushed)
attr title "packet lengths, sum"
attr unit b
statistic TcpAppExample.client.app[0].source packetLengths:histogram
field count 10
field mean 1129.6
field stddev 213.2599873915
field min 816
field max 1464
field sum 11296
field sqrsum 13169280
attr interpolationmode none
attr recordingmode histogram
attr source packetLength(packetPushed)
attr title "packet lengths"
attr unit b
bin	-inf	0
bin	640	0
bin	660	0
bin	680	0
bin	700	0
bin	720	0
bin	740	0
bin	760	0
bin	780	0
bin	800	1
bin	820	0
bin	840	0
bin	860	0
bin	880	1
bin	900	0
bin	920	0
bin	940	0
bin	960	2
bin	980	0
bin	1000	0
bin	1020	0
bin	1040	0
bin	1060	0
bin	1080	0
bin	1100	0
bin	1120	0
bin	1140	1
bin	1160	1
bin	1180	0
bin	1200	0
bin	1220	0
bin	1240	1
bin	1260	0
bin	1280	0
bin	1300	1
bin	1320	1
bin	1340	0
bin	1360	0
bin	1380	0
bin	1400	0
bin	1420	0
bin	1440	0
bin	1460	1
bin	1480	0
bin	1500	0
bin	1520	0
bin	1540	0
bin	1560	0
bin	1580	0
bin	1600	0
bin	1620	0
bin	1640	0
scalar TcpAppExample.client.app[0].sink packets:count 962
attr recordingmode count
attr source packetPushed
attr title "packets, count"
attr unit pk
scalar TcpAppExample.client.app[0].sink packetLengths:sum 3909264
attr interpolationmode none
attr recordingmode sum
attr source packetLength(packetPushed)
attr title "packet lengths, sum"
attr unit b
statistic TcpAppExample.client.app[0].sink packetLengths:histogram
field count 962
field mean 4063.683991684
field stddev 773.92694329788
field min 48
field max 4288
field sum 3909264
field sqrsum 16461616896
attr interpolationmode none
attr recordingmode histogram
attr source packetLength(packetPushed)
attr title "packet lengths"
attr unit b
bin	-inf	0
bin	0	1
bin	100	2
bin	200	3
bin	300	2
bin	400	0
bin	500	4
bin	600	0
bin	700	7
bin	800	5
bin	900	1
bin	1000	4
bin	1100	1
bin	1200	1
bin	1300	3
bin	1400	1
bin	1500	2
bin	1600	3
bin	1700	4
bin	1800	3
bin	1900	5
bin	2000	2
bin	2100	0
bin	2200	1
bin	2300	3
bin	2400	3
bin	2500	1
bin	2600	2
bin	2700	2
bin	2800	4
bin	2900	3
bin	3000	4
bin	3100	1
bin	3200	0
bin	3300	1
bin	3400	0
bin	3500	3
bin	3600	1
bin	3700	3
bin	3800	2
bin	3900	2
bin	4000	2
bin	4100	2
bin	4200	868
bin	4300	0
bin	4400	0
bin	4500	0
bin	4600	0
bin	4700	0
bin	4800	0
bin	4900	0
bin	5000	0
bin	5100	0
bin	5200	0
bin	5300	0
bin	5400	0
statistic TcpAppExample.client.app[0].sink meanBitLifeTimePerPacket:histogram
field count 961
field mean 0.69633673085698
field stddev 3.7877473984991
field min 0.0001433
field max 35.206446949099
field sum 669.17959835356
field sqrsum 14239.123474517
attr interpolationmode none
attr recordingmode histogram
attr source weightedMeanPerGroup(groupRegionsPerPacket(lifeTimePerRegion(packetPushed)))
attr title "mean bit life time per packet"
attr unit s
bin	-inf	0
bin	0	921
bin	0.6	0
bin	1.2	0
bin	1.8	2
bin	2.4	0
bin	3	0
bin	3.6	0
bin	4.2	0
bin	4.8	0
bin	5.4	0
bin	6	0
bin	6.6	0
bin	7.2	8
bin	7.8	0
bin	8.4	0
bin	9	0
bin	9.6	0
bin	10.2	0
bin	10.8	11
bin	11.4	0
bin	12	0
bin	12.6	0
bin	13.2	1
bin	13.8	0
bin	14.4	0
bin	15	0
bin	15.6	0
bin	16.2	0
bin	16.8	0
bin	17.4	0
bin	18	0
bin	18.6	0
bin	19.2	0
bin	19.8	0
bin	20.4	0
bin	21	0
bin	21.6	0
bin	22.2	0
bin	22.8	1
bin	23.4	0
bin	24	0
bin	24.6	10
bin	25.2	0
bin	25.8	0
bin	26.4	0
bin	27	6
bin	27.6	0
bin	28.2	0
bin	28.8	0
bin	29.4	0
bin	30	0
bin	30.6	0
bin	31.2	0
bin	31.8	0
bin	32.4	0
bin	33	0
bin	33.6	0
bin	34.2	0
bin	34.8	1
bin	35.4	0
statistic TcpAppExample.client.app[0].sink packetJitter:histogram
field count 961
field mean 4.8543184183523e-07
field stddev 2.7178421521575
field min -35.206303649099
field max 35.199244249099
field sum 0.00046650000000365
field sqrsum 7091.1993254823
attr interpolationmode none
attr recordingmode histogram
attr source jitter(weightedMeanPerGroup(groupRegionsPerPacket(lifeTimePerRegion(packetPushed))))
attr title "packet jitter"
attr unit s
bin	-inf	0
bin	-35.8	1
bin	-35	0
bin	-34.2	0
bin	-33.4	0
bin	-32.6	0
bin	-31.8	0
bin	-31	0
bin	-30.2	0
bin	-29.4	0
bin	-28.6	0
bin	-27.8	1
bin	-27	0
bin	-26.2	0
bin	-25.4	1
bin	-24.6	0
bin	-23.8	1
bin	-23	0
bin	-22.2	0
bin	-21.4	0
bin	-20.6	0
bin	-19.8	0
bin	-19	0
bin	-18.2	0
bin	-17.4	0
bin	-16.6	0
bin	-15.8	0
bin	-15	0
bin	-14.2	0
bin	-13.4	1
bin	-12.6	0
bin	-11.8	0
bin	-11	2
bin	-10.2	0
bin	-9.4	0
bin	-8.6	0
bin	-7.8	1
bin	-7	0
bin	-6.2	0
bin	-5.4	0
bin	-4.6	0
bin	-3.8	0
bin	-3	0
bin	-2.2	0
bin	-1.4	0
bin	-0.6	944
bin	0.2	0
bin	1	0
bin	1.8	1
bin	2.6	0
bin	3.4	0
bin	4.2	0
bin	5	0
bin	5.8	0
bin	6.6	0
bin	7.4	1
bin	8.2	0
bin	9	0
bin	9.8	0
bin	10.6	2
bin	11.4	0
bin	12.2	0
bin	13	1
bin	13.8	0
bin	14.6	0
bin	15.4	0
bin	16.2	0
bin	17	0
bin	17.8	0
bin	18.6	0
bin	19.4	0
bin	20.2	0
bin	21	0
bin	21.8	0
bin	22.6	2
bin	23.4	0
bin	24.2	0
bin	25	0
bin	25.8	0
bin	26.6	1
bin	27.4	0
bin	28.2	0
bin	29	0
bin	29.8	0
bin	30.6	0
bin	31.4	0
bin	32.2	0
bin	33	0
bin	33.8	0
bin	34.6	1
bin	35.4	0
statistic TcpAppExample.client.app[0].sink packetDelayDifferenceToMean:histogram
field count 961
field mean -0.10491285003026
field stddev 3.7800999731932
field min -34.689156330383
field max 1.1338636154489
field sum -100.82124887908
field sqrsum 13728.167019606
attr interpolationmode none
attr recordingmode histogram
attr source differenceToMean(weightedMeanPerGroup(groupRegionsPerPacket(lifeTimePerRegion(packetPushed))))
attr title "packet delay difference to mean"
attr unit s
bin	-inf	0
bin	-35	1
bin	-34.2	0
bin	-33.4	0
bin	-32.6	0
bin	-31.8	0
bin	-31	0
bin	-30.2	0
bin	-29.4	0
bin	-28.6	0
bin	-27.8	0
bin	-27	4
bin	-26.2	2
bin	-25.4	0
bin	-24.6	10
bin	-23.8	0
bin	-23	1
bin	-22.2	0
bin	-21.4	0
bin	-20.6	0
bin	-19.8	0
bin	-19	0
bin	-18.2	0
bin	-17.4	0
bin	-16.6	0
bin	-15.8	0
bin	-15	0
bin	-14.2	0
bin	-13.4	0
bin	-12.6	1
bin	-11.8	0
bin	-11	6
bin	-10.2	5
bin	-9.4	0
bin	-8.6	0
bin	-7.8	0
bin	-7	8
bin	-6.2	0
bin	-5.4	0
bin	-4.6	0
bin	-3.8	0
bin	-3	0
bin	-2.2	2
bin	-1.4	0
bin	-0.6	145
bin	0.2	755
bin	1	21
bin	1.8	0
statistic TcpAppExample.client.app[0].sink packetDelayVariation:histogram
field count 961
field mean 3.3629081661198
field stddev 1.5029719519613
field min 0
field max 5.9284390392007
field sum 3231.7547476411
field sqrsum 13036.662132586
attr recordingmode histogram
attr source stddev(weightedMeanPerGroup(groupRegionsPerPacket(lifeTimePerRegion(packetPushed))))
attr title "packet delay variation"
attr unit s
bin	-inf	0
bin	0	141
bin	0.12	0
bin	0.24	0
bin	0.36	0
bin	0.48	0
bin	0.6	0
bin	0.72	0
bin	0.84	5
bin	0.96	0
bin	1.08	0
bin	1.2	0
bin	1.32	0
bin	1.44	0
bin	1.56	0
bin	1.68	0
bin	1.8	0
bin	1.92	0
bin	2.04	0
bin	2.16	0
bin	2.28	0
bin	2.4	1
bin	2.52	0
bin	2.64	0
bin	2.76	0
bin	2.88	0
bin	3	37
bin	3.12	42
bin	3.24	43
bin	3.36	35
bin	3.48	50
bin	3.6	52
bin	3.72	97
bin	3.84	78
bin	3.96	66
bin	4.08	93
bin	4.2	53
bin	4.32	50
bin	4.44	38
bin	4.56	10
bin	4.68	10
bin	4.8	8
bin	4.92	8
bin	5.04	7
bin	5.16	7
bin	5.28	7
bin	5.4	6
bin	5.52	5
bin	5.64	5
bin	5.76	5
bin	5.88	2
bin	6	0
scalar TcpAppExample.client.app[0].sink droppedPackets:count 962
attr recordingmode count
attr source packetDropped
attr title "dropped packets, count"
attr unit pk
scalar TcpAppExample.client.app[0].sink droppedPacketLengths:sum 3909264
attr interpolationmode none
attr recordingmode sum
attr source packetLength(packetDropped)
attr title "dropped packet lengths, sum"
attr unit b
statistic TcpAppExample.client.app[0].sink droppedPacketLengths:histogram
field count 962
field mean 4063.683991684
field stddev 773.92694329788
field min 48
field max 4288
field sum 3909264
field sqrsum 16461616896
attr interpolationmode none
attr recordingmode histogram
attr source packetLength(packetDropped)
attr title "dropped packet lengths"
attr unit b
bin	-inf	0
bin	0	1
bin	100	2
bin	200	3
bin	300	2
bin	400	0
bin	500	4
bin	600	0
bin	700	7
bin	800	5
bin	900	1
bin	1000	4
bin	1100	1
bin	1200	1
bin	1300	3
bin	1400	1
bin	1500	2
bin	1600	3
bin	1700	4
bin	1800	3
bin	1900	5
bin	2000	2
bin	2100	0
bin	2200	1
bin	2300	3
bin	2400	3
bin	2500	1
bin	2600	2
bin	2700	2
bin	2800	4
bin	2900	3
bin	3000	4
bin	3100	1
bin	3200	0
bin	3300	1
bin	3400	0
bin	3500	3
bin	3600	1
bin	3700	3
bin	3800	2
bin	3900	2
bin	4000	2
bin	4100	2
bin	4200	868
bin	4300	0
bin	4400	0
bin	4500	0
bin	4600	0
bin	4700	0
bin	4800	0
bin	4900	0
bin	5000	0
bin	5100	0
bin	5200	0
bin	5300	0
bin	5400	0
scalar TcpAppExample.server.lo[0].lo rcvdPkFromHl:count 0
attr interpolationmode none
attr recordingmode count
attr source packetReceivedFromUpper
attr title "packets received from higher layer, count"
scalar TcpAppExample.server.lo[0].lo rcvdPkFromHl:sum(packetBytes) 0
attr interpolationmode none
attr recordingmode sum(packetBytes)
attr source packetReceivedFromUpper
attr title "packets received from higher layer, sum(packetBytes)"
scalar TcpAppExample.server.lo[0].lo passedUpPk:count 0
attr interpolationmode none
attr recordingmode count
attr source packetSentToUpper
attr title "packets passed to higher layer, count"
scalar TcpAppExample.server.lo[0].lo passedUpPk:sum(packetBytes) 0
attr interpolationmode none
attr recordingmode sum(packetBytes)
attr source packetSentToUpper
attr title "packets passed to higher layer, sum(packetBytes)"
scalar TcpAppExample.server.lo[0] packetDropInterfaceDown:count 0
attr interpolationmode none
attr recordingmode count
attr source packetDropReasonIsInterfaceDown(packetDropped)
attr title "packet drops: interface down, count"
scalar TcpAppExample.server.lo[0] packetDropInterfaceDown:sum(packetBytes) 0
attr interpolationmode none
attr recordingmode sum(packetBytes)
attr source packetDropReasonIsInterfaceDown(packetDropped)
attr title "packet drops: interface down, sum(packetBytes)"
scalar TcpAppExample.server.lo[0] packetDropNoCarrier:count 0
attr interpolationmode none
attr recordingmode count
attr source packetDropReasonIsNoCarrier(packetDropped)
attr title "packet drops: no carrier, count"
scalar TcpAppExample.server.lo[0] packetDropNoCarrier:sum(packetBytes) 0
attr interpolationmode none
attr recordingmode sum(packetBytes)
attr source packetDropReasonIsNoCarrier(packetDropped)
attr title "packet drops: no carrier, sum(packetBytes)"
scalar TcpAppExample.server.ppp[0].queue queueLength:last 0
attr autoWarmupFilter false
attr interpolationmode sample-hold
attr recordingmode last
attr source "warmup(atomic(constant0(packetPushEnded) + count(packetPushStarted) - count(packetPulled) - count(packetRemoved) - count(packetDropped)))"
attr title "queue length, last"
attr unit pk
scalar TcpAppExample.server.ppp[0].queue queueLength:max 13
attr autoWarmupFilter false
attr interpolationmode sample-hold
attr recordingmode max
attr source "warmup(atomic(constant0(packetPushEnded) + count(packetPushStarted) - count(packetPulled) - count(packetRemoved) - count(packetDropped)))"
attr title "queue length, max"
attr unit pk
scalar TcpAppExample.server.ppp[0].queue queueLength:timeavg 0.02284102743447
attr autoWarmupFilter false
attr interpolationmode sample-hold
attr recordingmode timeavg
attr source "warmup(atomic(constant0(packetPushEnded) + count(packetPushStarted) - count(packetPulled) - count(packetRemoved) - count(packetDropped)))"
attr title "queue length, timeavg"
attr unit pk
scalar TcpAppExample.server.ppp[0].queue queueBitLength:last 0
attr autoWarmupFilter false
attr interpolationmode sample-hold
attr recordingmode last
attr source "warmup(atomic(constant0(packetPushEnded) + sum(packetLength(packetPushStarted)) - sum(packetLength(packetPulled)) - sum(packetLength(packetRemoved)) - sum(packetLength(packetDropped))))"
attr title "queue bit length, last"
attr unit b
scalar TcpAppExample.server.ppp[0].queue queueBitLength:max 59904
attr autoWarmupFilter false
attr interpolationmode sample-hold
attr recordingmode max
attr source "warmup(atomic(constant0(packetPushEnded) + sum(packetLength(packetPushStarted)) - sum(packetLength(packetPulled)) - sum(packetLength(packetRemoved)) - sum(packetLength(packetDropped))))"
attr title "queue bit length, max"
attr unit b
scalar TcpAppExample.server.ppp[0].queue queueBitLength:timeavg 105.24927060915
attr autoWarmupFilter false
attr interpolationmode sample-hold
attr recordingmode timeavg
attr source "warmup(atomic(constant0(packetPushEnded) + sum(packetLength(packetPushStarted)) - sum(packetLength(packetPulled)) - sum(packetLength(packetRemoved)) - sum(packetLength(packetDropped))))"
attr title "queue bit length, timeavg"
attr unit b
statistic TcpAppExample.server.ppp[0].queue queueingTime:histogram
field count 973
field mean 0.0023474838738428
field stddev 0.0019923512574759
field min 0
field max 0.0060632
field sum 2.284101809249
field sqrsum 0.0092202107176642
attr interpolationmode none
attr recordingmode histogram
attr source queueingTime(packetPulled)
attr title "queueing times"
attr unit s
bin	-inf	0
bin	0	193
bin	0.0001	0
bin	0.0002	0
bin	0.0003	0
bin	0.0004	84
bin	0.0005	1
bin	0.0006	0
bin	0.0007	0
bin	0.0008	9
bin	0.0009	71
bin	0.001	0
bin	0.0011	0
bin	0.0012	0
bin	0.0013	75
bin	0.0014	0
bin	0.0015	0
bin	0.0016	0
bin	0.0017	0
bin	0.0018	70
bin	0.0019	0
bin	0.002	1
bin	0.0021	0
bin	0.0022	1
bin	0.0023	65
bin	0.0024	1
bin	0.0025	0
bin	0.0026	0
bin	0.0027	58
bin	0.0028	0
bin	0.0029	1
bin	0.003	0
bin	0.0031	0
bin	0.0032	53
bin	0.0033	0
bin	0.0034	1
bin	0.0035	0
bin	0.0036	3
bin	0.0037	46
bin	0.0038	1
bin	0.0039	1
bin	0.004	0
bin	0.0041	44
bin	0.0042	0
bin	0.0043	2
bin	0.0044	0
bin	0.0045	0
bin	0.0046	42
bin	0.0047	0
bin	0.0048	2
bin	0.0049	0
bin	0.005	2
bin	0.0051	34
bin	0.0052	1
bin	0.0053	1
bin	0.0054	0
bin	0.0055	30
bin	0.0056	0
bin	0.0057	2
bin	0.0058	0
bin	0.0059	0
bin	0.006	78
bin	0.0061	0
bin	0.0062	0
bin	0.0063	0
bin	0.0064	0
bin	0.0065	0
bin	0.0066	0
bin	0.0067	0
bin	0.0068	0
bin	0.0069	0
bin	0.007	0
bin	0.0071	0
bin	0.0072	0
bin	0.0073	0
bin	0.0074	0
bin	0.0075	0
bin	0.0076	0
scalar TcpAppExample.server.ppp[0].queue outgoingPackets:count 973
attr recordingmode count
attr source packetPulled
attr title "outgoing packets, count"
attr unit pk
scalar TcpAppExample.server.ppp[0].queue outgoingPacketLengths:sum 4220656
attr interpolationmode none
attr recordingmode sum
attr source packetLength(packetPulled)
attr title "outgoing packet lengths, sum"
attr unit b
statistic TcpAppExample.server.ppp[0].queue outgoingPacketLengths:histogram
field count 973
field mean 4337.775950668
field stddev 881.30005164301
field min 320
field max 4608
field sum 4220656
field sqrsum 19063202560
attr interpolationmode none
attr recordingmode histogram
attr source packetLength(packetPulled)
attr title "outgoing packet lengths"
attr unit b
bin	-inf	0
bin	0	0
bin	100	0
bin	200	0
bin	300	12
bin	400	2
bin	500	1
bin	600	4
bin	700	0
bin	800	4
bin	900	0
bin	1000	6
bin	1100	6
bin	1200	1
bin	1300	3
bin	1400	2
bin	1500	1
bin	1600	3
bin	1700	1
bin	1800	2
bin	1900	3
bin	2000	3
bin	2100	4
bin	2200	4
bin	2300	2
bin	2400	1
bin	2500	1
bin	2600	3
bin	2700	2
bin	2800	2
bin	2900	1
bin	3000	3
bin	3100	3
bin	3200	4
bin	3300	2
bin	3400	3
bin	3500	0
bin	3600	1
bin	3700	0
bin	3800	3
bin	3900	1
bin	4000	2
bin	4100	3
bin	4200	1
bin	4300	2
bin	4400	2
bin	4500	1
bin	4600	868
bin	4700	0
bin	4800	0
bin	4900	0
bin	5000	0
bin	5100	0
bin	5200	0
bin	5300	0
bin	5400	0
bin	5500	0
bin	5600	0
bin	5700	0
statistic TcpAppExample.server.ppp[0].queue flowQueueingTime:histogram
field count 0
field mean -nan
field stddev nan
field min nan
field max nan
field sum 0
field sqrsum 0
attr interpolationmode none
attr recordingmode histogram
attr source queueingTime(demuxFlow(packetPulled))
attr title "flow queueing times"
attr unit s
bin	-inf	0
bin	0	0
bin	1	0
scalar TcpAppExample.server.ppp[0].queue incomingPackets:count 973
attr recordingmode count
attr source packetPushStarted
attr title "incoming packets, count"
attr unit pk
scalar TcpAppExample.server.ppp[0].queue incomingPacketLengths:sum 4220656
attr interpolationmode none
attr recordingmode sum
attr source packetLength(packetPushStarted)
attr title "incoming packet lengths, sum"
attr unit b
statistic TcpAppExample.server.ppp[0].queue incomingPacketLengths:histogram
field count 973
field mean 4337.775950668
field stddev 881.30005164301
field min 320
field max 4608
field sum 4220656
field sqrsum 19063202560
attr interpolationmode none
attr recordingmode histogram
attr source packetLength(packetPushStarted)
attr title "incoming packet lengths"
attr unit b
bin	-inf	0
bin	0	0
bin	100	0
bin	200	0
bin	300	12
bin	400	2
bin	500	1
bin	600	4
bin	700	0
bin	800	4
bin	900	0
bin	1000	6
bin	1100	6
bin	1200	1
bin	1300	3
bin	1400	2
bin	1500	1
bin	1600	3
bin	1700	1
bin	1800	2
bin	1900	3
bin	2000	3
bin	2100	4
bin	2200	4
bin	2300	2
bin	2400	1
bin	2500	1
bin	2600	3
bin	2700	2
bin	2800	2
bin	2900	1
bin	3000	3
bin	3100	3
bin	3200	4
bin	3300	2
bin	3400	3
bin	3500	0
bin	3600	1
bin	3700	0
bin	3800	3
bin	3900	1
bin	4000	2
bin	4100	3
bin	4200	1
bin	4300	2
bin	4400	2
bin	4500	1
bin	4600	868
bin	4700	0
bin	4800	0
bin	4900	0
bin	5000	0
bin	5100	0
bin	5200	0
bin	5300	0
bin	5400	0
bin	5500	0
bin	5600	0
bin	5700	0
scalar TcpAppExample.server.ppp[0].queue droppedPacketsQueueOverflow:count 0
attr interpolationmode none
attr recordingmode count
attr source packetDropReasonIsQueueOverflow(packetDropped)
attr title "dropped packets: queue overflow, count"
attr unit pk
scalar TcpAppExample.server.ppp[0].queue droppedPacketLengthsQueueOverflow:sum 0
attr interpolationmode none
attr recordingmode sum
attr source packetLength(packetDropReasonIsQueueOverflow(packetDropped))
attr title "dropped packet lengths: queue overflow, sum"
attr unit b
scalar TcpAppExample.server.ppp[0].ppp transmissionState:timeavg 0.0042751439999999
attr interpolationmode sample-hold
attr recordingmode timeavg
attr source transmissionStateChanged
attr title "tx state, timeavg"
scalar TcpAppExample.server.ppp[0].ppp rxPkOk:count 973
attr interpolationmode none
attr recordingmode count
attr source rxPkOk
attr title "packets received OK, count"
scalar TcpAppExample.server.ppp[0].ppp rxPkOk:sum(packetBytes) 47147
attr interpolationmode none
attr recordingmode sum(packetBytes)
attr source rxPkOk
attr title "packets received OK, sum(packetBytes)"
scalar TcpAppExample.server.ppp[0].ppp txPk:count 973
attr interpolationmode none
attr recordingmode count
attr source packetSentToLower
attr title "packets transmitted, count"
scalar TcpAppExample.server.ppp[0].ppp txPk:sum(packetBytes) 534393
attr interpolationmode none
attr recordingmode sum(packetBytes)
attr source packetSentToLower
attr title "packets transmitted, sum(packetBytes)"
scalar TcpAppExample.server.ppp[0].ppp rcvdPkFromHl:count 973
attr interpolationmode none
attr recordingmode count
attr source packetReceivedFromUpper
attr title "packets received from higher layer, count"
scalar TcpAppExample.server.ppp[0].ppp rcvdPkFromHl:sum(packetBytes) 527582
attr interpolationmode none
attr recordingmode sum(packetBytes)
attr source packetReceivedFromUpper
attr title "packets received from higher layer, sum(packetBytes)"
scalar TcpAppExample.server.ppp[0].ppp passedUpPk:count 973
attr interpolationmode none
attr recordingmode count
attr source packetSentToUpper
attr title "packets passed to higher layer, count"
scalar TcpAppExample.server.ppp[0].ppp passedUpPk:sum(packetBytes) 40336
attr interpolationmode none
attr recordingmode sum(packetBytes)
attr source packetSentToUpper
attr title "packets passed to higher layer, sum(packetBytes)"
scalar TcpAppExample.server.ppp[0].ppp packetDropIncorrectlyReceived:count 0
attr interpolationmode none
attr recordingmode count
attr source packetDropReasonIsIncorrectlyReceived(packetDropped)
attr title "packet drop: incorrectly received, count"
scalar TcpAppExample.server.ppp[0].ppp packetDropIncorrectlyReceived:sum(packetBytes) 0
attr interpolationmode none
attr recordingmode sum(packetBytes)
attr source packetDropReasonIsIncorrectlyReceived(packetDropped)
attr title "packet drop: incorrectly received, sum(packetBytes)"
scalar TcpAppExample.server.ppp[0].ppp packetDropInterfaceDown:count 0
attr interpolationmode none
attr recordingmode count
attr source packetDropReasonIsInterfaceDown(packetDropped)
attr title "packet drop: interface down, count"
scalar TcpAppExample.server.ppp[0].ppp packetDropInterfaceDown:sum(packetBytes) 0
attr interpolationmode none
attr recordingmode sum(packetBytes)
attr source packetDropReasonIsInterfaceDown(packetDropped)
attr title "packet drop: interface down, sum(packetBytes)"
scalar TcpAppExample.server.ppp[0] packetDropInterfaceDown:count 0
attr interpolationmode none
attr recordingmode count
attr source packetDropReasonIsInterfaceDown(packetDropped)
attr title "packet drops: interface down, count"
scalar TcpAppExample.server.ppp[0] packetDropInterfaceDown:sum(packetBytes) 0
attr interpolationmode none
attr recordingmode sum(packetBytes)
attr source packetDropReasonIsInterfaceDown(packetDropped)
attr title "packet drops: interface down, sum(packetBytes)"
scalar TcpAppExample.server.ppp[0] packetDropNoCarrier:count 0
attr interpolationmode none
attr recordingmode count
attr source packetDropReasonIsNoCarrier(packetDropped)
attr title "packet drops: no carrier, count"
scalar TcpAppExample.server.ppp[0] packetDropNoCarrier:sum(packetBytes) 0
attr interpolationmode none
attr recordingmode sum(packetBytes)
attr source packetDropReasonIsNoCarrier(packetDropped)
attr title "packet drops: no carrier, sum(packetBytes)"
scalar TcpAppExample.server.ipv4.ip packetDropAddressResolutionFailed:count 0
attr interpolationmode none
attr recordingmode count
attr source packetDropReasonIsAddressResolutionFailed(packetDropped)
attr title "packet drop: address resolution failed, count"
scalar TcpAppExample.server.ipv4.ip packetDropAddressResolutionFailed:sum(packetBytes) 0
attr interpolationmode none
attr recordingmode sum(packetBytes)
attr source packetDropReasonIsAddressResolutionFailed(packetDropped)
attr title "packet drop: address resolution failed, sum(packetBytes)"
scalar TcpAppExample.server.ipv4.ip packetDropHopLimitReached:count 0
attr interpolationmode none
attr recordingmode count
attr source packetDropReasonIsHopLimitReached(packetDropped)
attr title "packet drop: hop limit reached, count"
scalar TcpAppExample.server.ipv4.ip packetDropHopLimitReached:sum(packetBytes) 0
attr interpolationmode none
attr recordingmode sum(packetBytes)
attr source packetDropReasonIsHopLimitReached(packetDropped)
attr title "packet drop: hop limit reached, sum(packetBytes)"
scalar TcpAppExample.server.ipv4.ip packetDropForwardingDisabled:count 0
attr interpolationmode none
attr recordingmode count
attr source packetDropReasonIsForwardingDisabled(packetDropped)
attr title "packet drop: forwarding disabled, count"
scalar TcpAppExample.server.ipv4.ip packetDropForwardingDisabled:sum(packetBytes) 0
attr interpolationmode none
attr recordingmode sum(packetBytes)
attr source packetDropReasonIsForwardingDisabled(packetDropped)
attr title "packet drop: forwarding disabled, sum(packetBytes)"
scalar TcpAppExample.server.ipv4.ip packetDropNoInterfaceFound:count 0
attr interpolationmode none
attr recordingmode count
attr source packetDropReasonIsNoInterfaceFound(packetDropped)
attr title "packet drop: no interface found, count"
scalar TcpAppExample.server.ipv4.ip packetDropNoInterfaceFound:sum(packetBytes) 0
attr interpolationmode none
attr recordingmode sum(packetBytes)
attr source packetDropReasonIsNoInterfaceFound(packetDropped)
attr title "packet drop: no interface found, sum(packetBytes)"
scalar TcpAppExample.server.ipv4.ip packetDropNoRouteFound:count 0
attr interpolationmode none
attr recordingmode count
attr source packetDropReasonIsNoRouteFound(packetDropped)
attr title "packet drop: no route found, count"
scalar TcpAppExample.server.ipv4.ip packetDropNoRouteFound:sum(packetBytes) 0
attr interpolationmode none
attr recordingmode sum(packetBytes)
attr source packetDropReasonIsNoRouteFound(packetDropped)
attr title "packet drop: no route found, sum(packetBytes)"
scalar TcpAppExample.server.ipv4.ip packetDropUndefined:count 0
attr interpolationmode none
attr recordingmode count
attr source packetDropReasonIsUndefined(packetDropped)
attr title "packet drop: undefined, count"
scalar TcpAppExample.server.ipv4.ip packetDropUndefined:sum(packetBytes) 0
attr interpolationmode none
attr recordingmode sum(packetBytes)
attr source packetDropReasonIsUndefined(packetDropped)
attr title "packet drop: undefined, sum(packetBytes)"
scalar TcpAppExample.server.ipv4.arp arpResolutionFailed:count 0
attr recordingmode count
attr title "ARP failed resolutions, count"
scalar TcpAppExample.server.ipv4.arp arpResolutionCompleted:count 0
attr recordingmode count
attr title "ARP completed resolutions, count"
scalar TcpAppExample.server.ipv4.arp arpResolutionInitiated:count 0
attr recordingmode count
attr title "ARP initiated resolutions, count"
scalar TcpAppExample.server.ipv4.arp arpReplySent:count 0
attr recordingmode count
attr source arpReplySent
attr title "ARP replies sent, count"
scalar TcpAppExample.server.ipv4.arp arpReplySent:sum(packetBytes) 0
attr recordingmode sum(packetBytes)
attr source arpReplySent
attr title "ARP replies sent, sum(packetBytes)"
scalar TcpAppExample.server.ipv4.arp arpRequestSent:count 0
attr recordingmode count
attr source arpRequestSent
attr title "ARP request sent, count"
scalar TcpAppExample.server.ipv4.arp arpRequestSent:sum(packetBytes) 0
attr recordingmode sum(packetBytes)
attr source arpRequestSent
attr title "ARP request sent, sum(packetBytes)"
scalar TcpAppExample.server.udp packetReceived:count 0
attr interpolationmode none
attr recordingmode count
attr source packetReceived
attr title "packets received, count"
scalar TcpAppExample.server.udp packetReceived:sum(packetBytes) 0
attr interpolationmode none
attr recordingmode sum(packetBytes)
attr source packetReceived
attr title "packets received, sum(packetBytes)"
scalar TcpAppExample.server.udp packetSent:count 0
attr interpolationmode none
attr recordingmode count
attr source packetSent
attr title "packets sent, count"
scalar TcpAppExample.server.udp packetSent:sum(packetBytes) 0
attr interpolationmode none
attr recordingmode sum(packetBytes)
attr source packetSent
attr title "packets sent, sum(packetBytes)"
scalar TcpAppExample.server.udp passedUpPk:count 0
attr interpolationmode none
attr recordingmode count
attr source packetSentToUpper
attr title "packets passed up, count"
scalar TcpAppExample.server.udp droppedPkWrongPort:count 0
attr interpolationmode none
attr recordingmode count
attr source packetDropReasonIsNoPortFound(packetDropped)
attr title "packets dropped (wrong port), count"
scalar TcpAppExample.server.udp droppedPkBadChecksum:count 0
attr interpolationmode none
attr recordingmode count
attr source packetDropReasonIsIncorrectlyReceived(packetDropped)
attr title "packets dropped (checksum error), count"
scalar TcpAppExample.server.app[0].connection[0].source.provider[0] packets:count 14
attr recordingmode count
attr source packetPulled
attr title "packets, count"
attr unit pk
scalar TcpAppExample.server.app[0].connection[0].source.provider[0] packetLengths:sum 50584
attr interpolationmode none
attr recordingmode sum
attr source packetLength(packetPulled)
attr title "packet lengths, sum"
attr unit b
statistic TcpAppExample.server.app[0].connection[0].source.provider[0] packetLengths:histogram
field count 14
field mean 3613.1428571429
field stddev 2202.2502777192
field min 1056
field max 7912
field sum 50584
field sqrsum 245816000
attr interpolationmode none
attr recordingmode histogram
attr source packetLength(packetPulled)
attr title "packet lengths"
attr unit b
bin	-inf	0
bin	0	0
bin	200	0
bin	400	0
bin	600	0
bin	800	0
bin	1000	1
bin	1200	0
bin	1400	0
bin	1600	1
bin	1800	2
bin	2000	0
bin	2200	2
bin	2400	1
bin	2600	0
bin	2800	0
bin	3000	2
bin	3200	0
bin	3400	0
bin	3600	0
bin	3800	0
bin	4000	1
bin	4200	0
bin	4400	0
bin	4600	0
bin	4800	0
bin	5000	0
bin	5200	1
bin	5400	0
bin	5600	0
bin	5800	0
bin	6000	0
bin	6200	1
bin	6400	0
bin	6600	0
bin	6800	0
bin	7000	1
bin	7200	0
bin	7400	0
bin	7600	0
bin	7800	1
bin	8000	0
bin	8200	0
bin	8400	0
bin	8600	0
bin	8800	0
bin	9000	0
bin	9200	0
bin	9400	0
bin	9600	0
bin	9800	0
scalar TcpAppExample.server.app[0].connection[0].source.provider[1] packets:count 82
attr recordingmode count
attr source packetPulled
attr title "packets, count"
attr unit pk
scalar TcpAppExample.server.app[0].connection[0].source.provider[1] packetLengths:sum 3858680
attr interpolationmode none
attr recordingmode sum
attr source packetLength(packetPulled)
attr title "packet lengths, sum"
attr unit b
statistic TcpAppExample.server.app[0].connection[0].source.provider[1] packetLengths:histogram
field count 82
field mean 47057.073170732
field stddev 20263.031711536
field min 9656
field max 79952
field sum 3858680
field sqrsum 214836013888
attr interpolationmode none
attr recordingmode histogram
attr source packetLength(packetPulled)
attr title "packet lengths"
attr unit b
bin	-inf	0
bin	0	0
bin	2000	0
bin	4000	0
bin	6000	0
bin	8000	1
bin	10000	1
bin	12000	4
bin	14000	1
bin	16000	1
bin	18000	0
bin	20000	2
bin	22000	1
bin	24000	1
bin	26000	6
bin	28000	2
bin	30000	4
bin	32000	2
bin	34000	2
bin	36000	2
bin	38000	4
bin	40000	2
bin	42000	2
bin	44000	0
bin	46000	3
bin	48000	4
bin	50000	1
bin	52000	2
bin	54000	4
bin	56000	3
bin	58000	1
bin	60000	4
bin	62000	0
bin	64000	5
bin	66000	1
bin	68000	1
bin	70000	2
bin	72000	2
bin	74000	5
bin	76000	3
bin	78000	3
bin	80000	0
bin	82000	0
bin	84000	0
bin	86000	0
bin	88000	0
bin	90000	0
bin	92000	0
bin	94000	0
bin	96000	0
bin	98000	0
scalar TcpAppExample.server.app[0].connection[0].source.server[0] numTokensDepleted:count 4
attr interpolationmode none
attr recordingmode count
attr source tokensDepleted
attr title "number of times tokens are depleted, count"
attr unit tk
scalar TcpAppExample.server.app[0].connection[0].source.server[0] removedTokens:sum 19
attr interpolationmode none
attr recordingmode sum
attr source tokensRemoved
attr title "removed tokens, sum"
attr unit tk
scalar TcpAppExample.server.app[0].connection[0].source.server[0] addedTokens:sum 15
attr interpolationmode none
attr recordingmode sum
attr source tokensAdded
attr title "added tokens, sum"
attr unit tk
scalar TcpAppExample.server.app[0].connection[0].source.server[0] incomingPackets:count 14
attr recordingmode count
attr source packetPulled
attr title "incoming packets, count"
attr unit pk
scalar TcpAppExample.server.app[0].connection[0].source.server[0] incomingPacketLengths:sum 50584
attr interpolationmode none
attr recordingmode sum
attr source packetLength(packetPulled)
attr title "incoming packet lengths, sum"
attr unit b
statistic TcpAppExample.server.app[0].connection[0].source.server[0] incomingPacketLengths:histogram
field count 14
field mean 3613.1428571429
field stddev 2202.2502777192
field min 1056
field max 7912
field sum 50584
field sqrsum 245816000
attr interpolationmode none
attr recordingmode histogram
attr source packetLength(packetPulled)
attr title "incoming packet lengths"
attr unit b
bin	-inf	0
bin	0	0
bin	200	0
bin	400	0
bin	600	0
bin	800	0
bin	1000	1
bin	1200	0
bin	1400	0
bin	1600	1
bin	1800	2
bin	2000	0
bin	2200	2
bin	2400	1
bin	2600	0
bin	2800	0
bin	3000	2
bin	3200	0
bin	3400	0
bin	3600	0
bin	3800	0
bin	4000	1
bin	4200	0
bin	4400	0
bin	4600	0
bin	4800	0
bin	5000	0
bin	5200	1
bin	5400	0
bin	5600	0
bin	5800	0
bin	6000	0
bin	6200	1
bin	6400	0
bin	6600	0
bin	6800	0
bin	7000	1
bin	7200	0
bin	7400	0
bin	7600	0
bin	7800	1
bin	8000	0
bin	8200	0
bin	8400	0
bin	8600	0
bin	8800	0
bin	9000	0
bin	9200	0
bin	9400	0
bin	9600	0
bin	9800	0
scalar TcpAppExample.server.app[0].connection[0].source.server[0] outgoingPackets:count 14
attr recordingmode count
attr source packetPushed
attr title "outgoing packets, count"
attr unit pk
scalar TcpAppExample.server.app[0].connection[0].source.server[0] outgoingPacketLengths:sum 50584
attr interpolationmode none
attr recordingmode sum
attr source packetLength(packetPushed)
attr title "outgoing packet lengths, sum"
attr unit b
statistic TcpAppExample.server.app[0].connection[0].source.server[0] outgoingPacketLengths:histogram
field count 14
field mean 3613.1428571429
field stddev 2202.2502777192
field min 1056
field max 7912
field sum 50584
field sqrsum 245816000
attr interpolationmode none
attr recordingmode histogram
attr source packetLength(packetPushed)
attr title "outgoing packet lengths"
attr unit b
bin	-inf	0
bin	0	0
bin	200	0
bin	400	0
bin	600	0
bin	800	0
bin	1000	1
bin	1200	0
bin	1400	0
bin	1600	1
bin	1800	2
bin	2000	0
bin	2200	2
bin	2400	1
bin	2600	0
bin	2800	0
bin	3000	2
bin	3200	0
bin	3400	0
bin	3600	0
bin	3800	0
bin	4000	1
bin	4200	0
bin	4400	0
bin	4600	0
bin	4800	0
bin	5000	0
bin	5200	1
bin	5400	0
bin	5600	0
bin	5800	0
bin	6000	0
bin	6200	1
bin	6400	0
bin	6600	0
bin	6800	0
bin	7000	1
bin	7200	0
bin	7400	0
bin	7600	0
bin	7800	1
bin	8000	0
bin	8200	0
bin	8400	0
bin	8600	0
bin	8800	0
bin	9000	0
bin	9200	0
bin	9400	0
bin	9600	0
bin	9800	0
scalar TcpAppExample.server.app[0].connection[0].source.server[1] numTokensDepleted:count 5
attr interpolationmode none
attr recordingmode count
attr source tokensDepleted
attr title "number of times tokens are depleted, count"
attr unit tk
scalar TcpAppExample.server.app[0].connection[0].source.server[1] removedTokens:sum 658
attr interpolationmode none
attr recordingmode sum
attr source tokensRemoved
attr title "removed tokens, sum"
attr unit tk
scalar TcpAppExample.server.app[0].connection[0].source.server[1] addedTokens:sum 82
attr interpolationmode none
attr recordingmode sum
attr source tokensAdded
attr title "added tokens, sum"
attr unit tk
scalar TcpAppExample.server.app[0].connection[0].source.server[1] incomingPackets:count 82
attr recordingmode count
attr source packetPulled
attr title "incoming packets, count"
attr unit pk
scalar TcpAppExample.server.app[0].connection[0].source.server[1] incomingPacketLengths:sum 3858680
attr interpolationmode none
attr recordingmode sum
attr source packetLength(packetPulled)
attr title "incoming packet lengths, sum"
attr unit b
statistic TcpAppExample.server.app[0].connection[0].source.server[1] incomingPacketLengths:histogram
field count 82
field mean 47057.073170732
field stddev 20263.031711536
field min 9656
field max 79952
field sum 3858680
field sqrsum 214836013888
attr interpolationmode none
attr recordingmode histogram
attr source packetLength(packetPulled)
attr title "incoming packet lengths"
attr unit b
bin	-inf	0
bin	0	0
bin	2000	0
bin	4000	0
bin	6000	0
bin	8000	1
bin	10000	1
bin	12000	4
bin	14000	1
bin	16000	1
bin	18000	0
bin	20000	2
bin	22000	1
bin	24000	1
bin	26000	6
bin	28000	2
bin	30000	4
bin	32000	2
bin	34000	2
bin	36000	2
bin	38000	4
bin	40000	2
bin	42000	2
bin	44000	0
bin	46000	3
bin	48000	4
bin	50000	1
bin	52000	2
bin	54000	4
bin	56000	3
bin	58000	1
bin	60000	4
bin	62000	0
bin	64000	5
bin	66000	1
bin	68000	1
bin	70000	2
bin	72000	2
bin	74000	5
bin	76000	3
bin	78000	3
bin	80000	0
bin	82000	0
bin	84000	0
bin	86000	0
bin	88000	0
bin	90000	0
bin	92000	0
bin	94000	0
bin	96000	0
bin	98000	0
scalar TcpAppExample.server.app[0].connection[0].source.server[1] outgoingPackets:count 82
attr recordingmode count
attr source packetPushed
attr title "outgoing packets, count"
attr unit pk
scalar TcpAppExample.server.app[0].connection[0].source.server[1] outgoingPacketLengths:sum 3858680
attr interpolationmode none
attr recordingmode sum
attr source packetLength(packetPushed)
attr title "outgoing packet lengths, sum"
attr unit b
statistic TcpAppExample.server.app[0].connection[0].source.server[1] outgoingPacketLengths:histogram
field count 82
field mean 47057.073170732
field stddev 20263.031711536
field min 9656
field max 79952
field sum 3858680
field sqrsum 214836013888
attr interpolationmode none
attr recordingmode histogram
attr source packetLength(packetPushed)
attr title "outgoing packet lengths"
attr unit b
bin	-inf	0
bin	0	0
bin	2000	0
bin	4000	0
bin	6000	0
bin	8000	1
bin	10000	1
bin	12000	4
bin	14000	1
bin	16000	1
bin	18000	0
bin	20000	2
bin	22000	1
bin	24000	1
bin	26000	6
bin	28000	2
bin	30000	4
bin	32000	2
bin	34000	2
bin	36000	2
bin	38000	4
bin	40000	2
bin	42000	2
bin	44000	0
bin	46000	3
bin	48000	4
bin	50000	1
bin	52000	2
bin	54000	4
bin	56000	3
bin	58000	1
bin	60000	4
bin	62000	0
bin	64000	5
bin	66000	1
bin	68000	1
bin	70000	2
bin	72000	2
bin	74000	5
bin	76000	3
bin	78000	3
bin	80000	0
bin	82000	0
bin	84000	0
bin	86000	0
bin	88000	0
bin	90000	0
bin	92000	0
bin	94000	0
bin	96000	0
bin	98000	0
scalar TcpAppExample.server.app[0].connection[0].source.multiplexer packets:count 0
attr recordingmode count
attr source "merge(packetPushed, packetPulled)"
attr title "packets, count"
attr unit pk
scalar TcpAppExample.server.app[0].connection[0].source.multiplexer packetLengths:sum 0
attr interpolationmode none
attr recordingmode sum
attr source "packetLength(merge(packetPushed, packetPulled))"
attr title "packet lengths, sum"
attr unit b
statistic TcpAppExample.server.app[0].connection[0].source.multiplexer packetLengths:histogram
field count 0
field mean -nan
field stddev nan
field min nan
field max nan
field sum 0
field sqrsum 0
attr interpolationmode none
attr recordingmode histogram
attr source "packetLength(merge(packetPushed, packetPulled))"
attr title "packet lengths"
attr unit b
bin	-inf	0
bin	0	0
bin	1	0
scalar TcpAppExample.server.app[0].connection[0].source.tokenGenerator tokensCreated:count 10
attr recordingmode count
attr source count(tokensCreated)
attr title "tokens created, count"
attr unit tk
scalar TcpAppExample.server.app[0].connection[0].source.tokenGenerator numTokensCreated:sum 9
attr interpolationmode none
attr recordingmode sum
attr source tokensCreated
attr title "number of created tokens, sum"
attr unit tk
scalar TcpAppExample.server.app[0].connection[0].sink.queue queueLength:last 0
attr autoWarmupFilter false
attr interpolationmode sample-hold
attr recordingmode last
attr source "warmup(atomic(constant0(packetPushEnded) + count(packetPushStarted) - count(packetPulled) - count(packetRemoved) - count(packetDropped)))"
attr title "queue length, last"
attr unit pk
scalar TcpAppExample.server.app[0].connection[0].sink.queue queueLength:max 0
attr autoWarmupFilter false
attr interpolationmode sample-hold
attr recordingmode max
attr source "warmup(atomic(constant0(packetPushEnded) + count(packetPushStarted) - count(packetPulled) - count(packetRemoved) - count(packetDropped)))"
attr title "queue length, max"
attr unit pk
scalar TcpAppExample.server.app[0].connection[0].sink.queue queueLength:timeavg 0
attr autoWarmupFilter false
attr interpolationmode sample-hold
attr recordingmode timeavg
attr source "warmup(atomic(constant0(packetPushEnded) + count(packetPushStarted) - count(packetPulled) - count(packetRemoved) - count(packetDropped)))"
attr title "queue length, timeavg"
attr unit pk
scalar TcpAppExample.server.app[0].connection[0].sink.queue queueBitLength:last 0
attr autoWarmupFilter false
attr interpolationmode sample-hold
attr recordingmode last
attr source "warmup(atomic(constant0(packetPushEnded) + sum(packetLength(packetPushStarted)) - sum(packetLength(packetPulled)) - sum(packetLength(packetRemoved)) - sum(packetLength(packetDropped))))"
attr title "queue bit length, last"
attr unit b
scalar TcpAppExample.server.app[0].connection[0].sink.queue queueBitLength:max 0
attr autoWarmupFilter false
attr interpolationmode sample-hold
attr recordingmode max
attr source "warmup(atomic(constant0(packetPushEnded) + sum(packetLength(packetPushStarted)) - sum(packetLength(packetPulled)) - sum(packetLength(packetRemoved)) - sum(packetLength(packetDropped))))"
attr title "queue bit length, max"
attr unit b
scalar TcpAppExample.server.app[0].connection[0].sink.queue queueBitLength:timeavg 0
attr autoWarmupFilter false
attr interpolationmode sample-hold
attr recordingmode timeavg
attr source "warmup(atomic(constant0(packetPushEnded) + sum(packetLength(packetPushStarted)) - sum(packetLength(packetPulled)) - sum(packetLength(packetRemoved)) - sum(packetLength(packetDropped))))"
attr title "queue bit length, timeavg"
attr unit b
statistic TcpAppExample.server.app[0].connection[0].sink.queue queueingTime:histogram
field count 10
field mean 0
field stddev 0
field min 0
field max 0
field sum 0
field sqrsum 0
attr interpolationmode none
attr recordingmode histogram
attr source queueingTime(packetPulled)
attr title "queueing times"
attr unit s
bin	-inf	0
bin	-0.5	0
bin	-0.48	0
bin	-0.46	0
bin	-0.44	0
bin	-0.42	0
bin	-0.4	0
bin	-0.38	0
bin	-0.36	0
bin	-0.34	0
bin	-0.32	0
bin	-0.3	0
bin	-0.28	0
bin	-0.26	0
bin	-0.24	0
bin	-0.22	0
bin	-0.2	0
bin	-0.18	0
bin	-0.16	0
bin	-0.14	0
bin	-0.12	0
bin	-0.1	0
bin	-0.08	0
bin	-0.06	0
bin	-0.04	0
bin	-0.02	0
bin	0	10
bin	0.02	0
bin	0.04	0
bin	0.06	0
bin	0.08	0
bin	0.1	0
bin	0.12	0
bin	0.14	0
bin	0.16	0
bin	0.18	0
bin	0.2	0
bin	0.22	0
bin	0.24	0
bin	0.26	0
bin	0.28	0
bin	0.3	0
bin	0.32	0
bin	0.34	0
bin	0.36	0
bin	0.38	0
bin	0.4	0
bin	0.42	0
bin	0.44	0
bin	0.46	0
bin	0.48	0
bin	0.5	0
scalar TcpAppExample.server.app[0].connection[0].sink.queue outgoingPackets:count 10
attr recordingmode count
attr source packetPulled
attr title "outgoing packets, count"
attr unit pk
scalar TcpAppExample.server.app[0].connection[0].sink.queue outgoingPacketLengths:sum 11296
attr interpolationmode none
attr recordingmode sum
attr source packetLength(packetPulled)
attr title "outgoing packet lengths, sum"
attr unit b
statistic TcpAppExample.server.app[0].connection[0].sink.queue outgoingPacketLengths:histogram
field count 10
field mean 1129.6
field stddev 213.2599873915
field min 816
field max 1464
field sum 11296
field sqrsum 13169280
attr interpolationmode none
attr recordingmode histogram
attr source packetLength(packetPulled)
attr title "outgoing packet lengths"
attr unit b
bin	-inf	0
bin	640	0
bin	660	0
bin	680	0
bin	700	0
bin	720	0
bin	740	0
bin	760	0
bin	780	0
bin	800	1
bin	820	0
bin	840	0
bin	860	0
bin	880	1
bin	900	0
bin	920	0
bin	940	0
bin	960	2
bin	980	0
bin	1000	0
bin	1020	0
bin	1040	0
bin	1060	0
bin	1080	0
bin	1100	0
bin	1120	0
bin	1140	1
bin	1160	1
bin	1180	0
bin	1200	0
bin	1220	0
bin	1240	1
bin	1260	0
bin	1280	0
bin	1300	1
bin	1320	1
bin	1340	0
bin	1360	0
bin	1380	0
bin	1400	0
bin	1420	0
bin	1440	0
bin	1460	1
bin	1480	0
bin	1500	0
bin	1520	0
bin	1540	0
bin	1560	0
bin	1580	0
bin	1600	0
bin	1620	0
bin	1640	0
statistic TcpAppExample.server.app[0].connection[0].sink.queue flowQueueingTime:histogram
field count 0
field mean -nan
field stddev nan
field min nan
field max nan
field sum 0
field sqrsum 0
attr interpolationmode none
attr recordingmode histogram
attr source queueingTime(demuxFlow(packetPulled))
attr title "flow queueing times"
attr unit s
bin	-inf	0
bin	0	0
bin	1	0
scalar TcpAppExample.server.app[0].connection[0].sink.queue incomingPackets:count 10
attr recordingmode count
attr source packetPushStarted
attr title "incoming packets, count"
attr unit pk
scalar TcpAppExample.server.app[0].connection[0].sink.queue incomingPacketLengths:sum 11296
attr interpolationmode none
attr recordingmode sum
attr source packetLength(packetPushStarted)
attr title "incoming packet lengths, sum"
attr unit b
statistic TcpAppExample.server.app[0].connection[0].sink.queue incomingPacketLengths:histogram
field count 10
field mean 1129.6
field stddev 213.2599873915
field min 816
field max 1464
field sum 11296
field sqrsum 13169280
attr interpolationmode none
attr recordingmode histogram
attr source packetLength(packetPushStarted)
attr title "incoming packet lengths"
attr unit b
bin	-inf	0
bin	640	0
bin	660	0
bin	680	0
bin	700	0
bin	720	0
bin	740	0
bin	760	0
bin	780	0
bin	800	1
bin	820	0
bin	840	0
bin	860	0
bin	880	1
bin	900	0
bin	920	0
bin	940	0
bin	960	2
bin	980	0
bin	1000	0
bin	1020	0
bin	1040	0
bin	1060	0
bin	1080	0
bin	1100	0
bin	1120	0
bin	1140	1
bin	1160	1
bin	1180	0
bin	1200	0
bin	1220	0
bin	1240	1
bin	1260	0
bin	1280	0
bin	1300	1
bin	1320	1
bin	1340	0
bin	1360	0
bin	1380	0
bin	1400	0
bin	1420	0
bin	1440	0
bin	1460	1
bin	1480	0
bin	1500	0
bin	1520	0
bin	1540	0
bin	1560	0
bin	1580	0
bin	1600	0
bin	1620	0
bin	1640	0
scalar TcpAppExample.server.app[0].connection[0].sink.queue droppedPacketsQueueOverflow:count 0
attr interpolationmode none
attr recordingmode count
attr source packetDropReasonIsQueueOverflow(packetDropped)
attr title "dropped packets: queue overflow, count"
attr unit pk
scalar TcpAppExample.server.app[0].connection[0].sink.queue droppedPacketLengthsQueueOverflow:sum 0
attr interpolationmode none
attr recordingmode sum
attr source packetLength(packetDropReasonIsQueueOverflow(packetDropped))
attr title "dropped packet lengths: queue overflow, sum"
attr unit b
scalar TcpAppExample.server.app[0].connection[0].sink.server numTokensDepleted:count 0
attr interpolationmode none
attr recordingmode count
attr source tokensDepleted
attr title "number of times tokens are depleted, count"
attr unit tk
scalar TcpAppExample.server.app[0].connection[0].sink.server removedTokens:sum 0
attr interpolationmode none
attr recordingmode sum
attr source tokensRemoved
attr title "removed tokens, sum"
attr unit tk
scalar TcpAppExample.server.app[0].connection[0].sink.server addedTokens:sum 9
attr interpolationmode none
attr recordingmode sum
attr source tokensAdded
attr title "added tokens, sum"
attr unit tk
scalar TcpAppExample.server.app[0].connection[0].sink.server incomingPackets:count 10
attr recordingmode count
attr source packetPulled
attr title "incoming packets, count"
attr unit pk
scalar TcpAppExample.server.app[0].connection[0].sink.server incomingPacketLengths:sum 11296
attr interpolationmode none
attr recordingmode sum
attr source packetLength(packetPulled)
attr title "incoming packet lengths, sum"
attr unit b
statistic TcpAppExample.server.app[0].connection[0].sink.server incomingPacketLengths:histogram
field count 10
field mean 1129.6
field stddev 213.2599873915
field min 816
field max 1464
field sum 11296
field sqrsum 13169280
attr interpolationmode none
attr recordingmode histogram
attr source packetLength(packetPulled)
attr title "incoming packet lengths"
attr unit b
bin	-inf	0
bin	640	0
bin	660	0
bin	680	0
bin	700	0
bin	720	0
bin	740	0
bin	760	0
bin	780	0
bin	800	1
bin	820	0
bin	840	0
bin	860	0
bin	880	1
bin	900	0
bin	920	0
bin	940	0
bin	960	2
bin	980	0
bin	1000	0
bin	1020	0
bin	1040	0
bin	1060	0
bin	1080	0
bin	1100	0
bin	1120	0
bin	1140	1
bin	1160	1
bin	1180	0
bin	1200	0
bin	1220	0
bin	1240	1
bin	1260	0
bin	1280	0
bin	1300	1
bin	1320	1
bin	1340	0
bin	1360	0
bin	1380	0
bin	1400	0
bin	1420	0
bin	1440	0
bin	1460	1
bin	1480	0
bin	1500	0
bin	1520	0
bin	1540	0
bin	1560	0
bin	1580	0
bin	1600	0
bin	1620	0
bin	1640	0
scalar TcpAppExample.server.app[0].connection[0].sink.server outgoingPackets:count 10
attr recordingmode count
attr source packetPushed
attr title "outgoing packets, count"
attr unit pk
scalar TcpAppExample.server.app[0].connection[0].sink.server outgoingPacketLengths:sum 11296
attr interpolationmode none
attr recordingmode sum
attr source packetLength(packetPushed)
attr title "outgoing packet lengths, sum"
attr unit b
statistic TcpAppExample.server.app[0].connection[0].sink.server outgoingPacketLengths:histogram
field count 10
field mean 1129.6
field stddev 213.2599873915
field min 816
field max 1464
field sum 11296
field sqrsum 13169280
attr interpolationmode none
attr recordingmode histogram
attr source packetLength(packetPushed)
attr title "outgoing packet lengths"
attr unit b
bin	-inf	0
bin	640	0
bin	660	0
bin	680	0
bin	700	0
bin	720	0
bin	740	0
bin	760	0
bin	780	0
bin	800	1
bin	820	0
bin	840	0
bin	860	0
bin	880	1
bin	900	0
bin	920	0
bin	940	0
bin	960	2
bin	980	0
bin	1000	0
bin	1020	0
bin	1040	0
bin	1060	0
bin	1080	0
bin	1100	0
bin	1120	0
bin	1140	1
bin	1160	1
bin	1180	0
bin	1200	0
bin	1220	0
bin	1240	1
bin	1260	0
bin	1280	0
bin	1300	1
bin	1320	1
bin	1340	0
bin	1360	0
bin	1380	0
bin	1400	0
bin	1420	0
bin	1440	0
bin	1460	1
bin	1480	0
bin	1500	0
bin	1520	0
bin	1540	0
bin	1560	0
bin	1580	0
bin	1600	0
bin	1620	0
bin	1640	0
scalar TcpAppExample.server.app[0].connection[0].sink.classifier packets:count 10
attr recordingmode count
attr source packetPushed
attr title "packets, count"
attr unit pk
scalar TcpAppExample.server.app[0].connection[0].sink.classifier packetLengths:sum 11296
attr interpolationmode none
attr recordingmode sum
attr source packetLength(packetPushed)
attr title "packet lengths, sum"
attr unit b
statistic TcpAppExample.server.app[0].connection[0].sink.classifier packetLengths:histogram
field count 10
field mean 1129.6
field stddev 213.2599873915
field min 816
field max 1464
field sum 11296
field sqrsum 13169280
attr interpolationmode none
attr recordingmode histogram
attr source packetLength(packetPushed)
attr title "packet lengths"
attr unit b
bin	-inf	0
bin	640	0
bin	660	0
bin	680	0
bin	700	0
bin	720	0
bin	740	0
bin	760	0
bin	780	0
bin	800	1
bin	820	0
bin	840	0
bin	860	0
bin	880	1
bin	900	0
bin	920	0
bin	940	0
bin	960	2
bin	980	0
bin	1000	0
bin	1020	0
bin	1040	0
bin	1060	0
bin	1080	0
bin	1100	0
bin	1120	0
bin	1140	1
bin	1160	1
bin	1180	0
bin	1200	0
bin	1220	0
bin	1240	1
bin	1260	0
bin	1280	0
bin	1300	1
bin	1320	1
bin	1340	0
bin	1360	0
bin	1380	0
bin	1400	0
bin	1420	0
bin	1440	0
bin	1460	1
bin	1480	0
bin	1500	0
bin	1520	0
bin	1540	0
bin	1560	0
bin	1580	0
bin	1600	0
bin	1620	0
bin	1640	0
scalar TcpAppExample.server.app[0].connection[0].sink.tokenGenerator[0] tokensCreated:count 6
attr recordingmode count
attr source count(tokensCreated)
attr title "tokens created, count"
attr unit tk
scalar TcpAppExample.server.app[0].connection[0].sink.tokenGenerator[0] numTokensCreated:sum 15
attr interpolationmode none
attr recordingmode sum
attr source tokensCreated
attr title "number of created tokens, sum"
attr unit tk
scalar TcpAppExample.server.app[0].connection[0].sink.tokenGenerator[1] tokensCreated:count 6
attr recordingmode count
attr source count(tokensCreated)
attr title "tokens created, count"
attr unit tk
scalar TcpAppExample.server.app[0].connection[0].sink.tokenGenerator[1] numTokensCreated:sum 82
attr interpolationmode none
attr recordingmode sum
attr source tokensCreated
attr title "number of created tokens, sum"
attr unit tk

