version 3
run RandomClockDriftOutOfBandSync-0-20250319-11:16:21-26245
attr configname RandomClockDriftOutOfBandSync
attr datetime 20250319-11:16:21
attr datetimef 20250319-111621
attr experiment RandomClockDriftOutOfBandSync
attr inifile omnetpp.ini
attr iterationvars ""
attr iterationvarsd ""
attr iterationvarsf ""
attr measurement ""
attr network ClockDriftShowcase
attr processid 26245
attr repetition 0
attr replication #0
attr resultdir results
attr runnumber 0
attr seedset 0
config **.param-recording false
config image-path /home/levy/workspace/inet/images
config output-scalar-file results/omnetpp.ini-RandomClockDriftOutOfBandSync-#0.sca
config output-vector-file results/omnetpp.ini-RandomClockDriftOutOfBandSync-#0.vec
config sim-time-limit 0.1s
config description "Clocks are periodically synchronized out-of-band, without a real protocol. Clocks use random drift oscillators."
config extends "OutOfBandSyncBase, RandomClockDrift"
config description "Base config for out-of-band synchronization"
config *.source*.clock.typename SettableClock
config *.source*.clock.defaultOverdueClockEventHandlingMode "\"execute\""
config *.source*.numApps 2
config *.source*.app[1].typename SimpleClockSynchronizer
config *.source*.app[1].masterClockModule "\"^.^.switch1.clock\""
config *.source*.app[1].slaveClockModule "\"^.clock\""
config *.source*.app[1].synchronizationInterval 500us
config *.source*.app[1].synchronizationClockTimeError "uniform(-10ns, 10ns)"
config description "Clocks with random drift rate"
config *.source*.clock.typename OscillatorBasedClock
config *.source*.clock.oscillator.typename RandomDriftOscillator
config *.source1.clock.oscillator.driftRateChange "uniform(-125ppm, 125ppm)"
config *.source2.clock.oscillator.driftRateChange "uniform(-100ppm, 100ppm)"
config *.source1.clock.oscillator.changeInterval 0.1ms
config *.source2.clock.oscillator.changeInterval 0.1ms
config *.source*.app[0].source.clockModule "\"^.^.clock\""
config *.switch1.clock.typename OscillatorBasedClock
config *.switch1.clock.oscillator.typename RandomDriftOscillator
config *.switch1.clock.oscillator.driftRateChange "uniform(-75ppm, 75ppm)"
config *.switch1.clock.oscillator.changeInterval 0.1ms
config *.switch1.eth[0].macLayer.queue.gate[*].clockModule "\"^.^.^.^.clock\""
config network ClockDriftShowcase
config sim-time-limit 0.1s
config *.*.ethernet.typename EthernetLayer
config **.hasGlobalArp true
config *.source*.numApps 1
config *.source*.app[*].typename UdpSourceApp
config *.source*.app[0].source.packetLength 800B
config *.source*.app[0].source.productionInterval 20us
config *.source*.app[0].io.destPort 1000
config *.source1.app[0].io.destAddress "\"sink1\""
config *.source1.app[0].source.packetNameFormat "\"source1-%c\""
config *.source2.app[0].io.destAddress "\"sink2\""
config *.source2.app[0].source.initialProductionOffset 10us
config *.source2.app[0].source.packetNameFormat "\"source2-%c\""
config *.sink*.numApps 1
config *.sink*.app[*].typename UdpSinkApp
config *.sink*.app[0].io.localPort 1000
config **.displayGateSchedules true
config **.gateScheduleVisualizer.height 16
config *.*.eth[*].typename LayeredEthernetInterface
config *.*.eth[*].bitrate 1Gbps
config *.switch1.eth[0].macLayer.queue.typename GatingPriorityQueue
config *.switch1.eth[0].macLayer.queue.numQueues 2
config *.switch1.eth[0].macLayer.queue.classifier.typename ContentBasedClassifier
config *.switch1.eth[0].macLayer.queue.classifier.packetFilters "[\"source1*\", \"source2*\"]"
config *.switch1.eth[0].macLayer.queue.queue[*].typename DropTailQueue
config *.switch1.eth[0].macLayer.queue.gate[*].initiallyOpen false
config *.switch1.eth[0].macLayer.queue.gate[*].durations "[10us, 10us]"
config *.switch1.eth[0].macLayer.queue.gate[0].offset 3.118us
config *.switch1.eth[0].macLayer.queue.gate[1].offset 13.118us
config **.clock.useFutureEventSet false
config **.oscillator.nominalTickLength 1us

scalar ClockDriftShowcase.source1.ethernet.macHeaderInserter outgoingPackets:count 5025
scalar ClockDriftShowcase.source1.ethernet.macHeaderInserter outgoingPacketLengths:sum 33848400
scalar ClockDriftShowcase.source1.ethernet.macHeaderInserter flowOutgoingPacketLengths:sum 0
scalar ClockDriftShowcase.source1.ethernet.macHeaderInserter incomingPackets:count 5025
scalar ClockDriftShowcase.source1.ethernet.macHeaderInserter incomingPacketLengths:sum 33285600
scalar ClockDriftShowcase.source1.ethernet.macHeaderInserter flowIncomingPacketLengths:sum 0
scalar ClockDriftShowcase.source1.ethernet.paddingInserter outgoingPackets:count 5025
scalar ClockDriftShowcase.source1.ethernet.paddingInserter outgoingPacketLengths:sum 33848400
scalar ClockDriftShowcase.source1.ethernet.paddingInserter flowOutgoingPacketLengths:sum 0
scalar ClockDriftShowcase.source1.ethernet.paddingInserter incomingPackets:count 5025
scalar ClockDriftShowcase.source1.ethernet.paddingInserter incomingPacketLengths:sum 33848400
scalar ClockDriftShowcase.source1.ethernet.paddingInserter flowIncomingPacketLengths:sum 0
scalar ClockDriftShowcase.source1.ethernet.fcsInserter outgoingPackets:count 5025
scalar ClockDriftShowcase.source1.ethernet.fcsInserter outgoingPacketLengths:sum 34009200
scalar ClockDriftShowcase.source1.ethernet.fcsInserter flowOutgoingPacketLengths:sum 0
scalar ClockDriftShowcase.source1.ethernet.fcsInserter incomingPackets:count 5025
scalar ClockDriftShowcase.source1.ethernet.fcsInserter incomingPacketLengths:sum 33848400
scalar ClockDriftShowcase.source1.ethernet.fcsInserter flowIncomingPacketLengths:sum 0
scalar ClockDriftShowcase.source1.ethernet.macHeaderChecker outgoingPackets:count 0
scalar ClockDriftShowcase.source1.ethernet.macHeaderChecker outgoingPacketLengths:sum 0
scalar ClockDriftShowcase.source1.ethernet.macHeaderChecker flowOutgoingPacketLengths:sum 0
scalar ClockDriftShowcase.source1.ethernet.macHeaderChecker incomingPackets:count 0
scalar ClockDriftShowcase.source1.ethernet.macHeaderChecker incomingPacketLengths:sum 0
scalar ClockDriftShowcase.source1.ethernet.macHeaderChecker flowIncomingPacketLengths:sum 0
scalar ClockDriftShowcase.source1.ethernet.macHeaderChecker droppedPackets:count 0
scalar ClockDriftShowcase.source1.ethernet.macHeaderChecker droppedPacketLengths:sum 0
scalar ClockDriftShowcase.source1.ethernet.macHeaderChecker flowDroppedPacketLengths:sum 0
scalar ClockDriftShowcase.source1.ethernet.fcsChecker outgoingPackets:count 0
scalar ClockDriftShowcase.source1.ethernet.fcsChecker outgoingPacketLengths:sum 0
scalar ClockDriftShowcase.source1.ethernet.fcsChecker flowOutgoingPacketLengths:sum 0
scalar ClockDriftShowcase.source1.ethernet.fcsChecker incomingPackets:count 0
scalar ClockDriftShowcase.source1.ethernet.fcsChecker incomingPacketLengths:sum 0
scalar ClockDriftShowcase.source1.ethernet.fcsChecker flowIncomingPacketLengths:sum 0
scalar ClockDriftShowcase.source1.ethernet.fcsChecker droppedPackets:count 0
scalar ClockDriftShowcase.source1.ethernet.fcsChecker droppedPacketLengths:sum 0
scalar ClockDriftShowcase.source1.ethernet.fcsChecker flowDroppedPacketLengths:sum 0
scalar ClockDriftShowcase.source1.lo[0].lo rcvdPkFromHl:count 0
scalar ClockDriftShowcase.source1.lo[0].lo rcvdPkFromHl:sum(packetBytes) 0
scalar ClockDriftShowcase.source1.lo[0].lo passedUpPk:count 0
scalar ClockDriftShowcase.source1.lo[0].lo passedUpPk:sum(packetBytes) 0
scalar ClockDriftShowcase.source1.lo[0] packetDropInterfaceDown:count 0
scalar ClockDriftShowcase.source1.lo[0] packetDropInterfaceDown:sum(packetBytes) 0
scalar ClockDriftShowcase.source1.lo[0] packetDropNoCarrier:count 0
scalar ClockDriftShowcase.source1.lo[0] packetDropNoCarrier:sum(packetBytes) 0
scalar ClockDriftShowcase.source1.eth[0].macLayer.queue queueLength:last 0
scalar ClockDriftShowcase.source1.eth[0].macLayer.queue queueLength:max 1
scalar ClockDriftShowcase.source1.eth[0].macLayer.queue queueLength:timeavg 0
scalar ClockDriftShowcase.source1.eth[0].macLayer.queue queueBitLength:last 0
scalar ClockDriftShowcase.source1.eth[0].macLayer.queue queueBitLength:max 6768
scalar ClockDriftShowcase.source1.eth[0].macLayer.queue queueBitLength:timeavg 0
scalar ClockDriftShowcase.source1.eth[0].macLayer.queue outgoingPackets:count 5025
scalar ClockDriftShowcase.source1.eth[0].macLayer.queue outgoingPacketLengths:sum 34009200
scalar ClockDriftShowcase.source1.eth[0].macLayer.queue incomingPackets:count 5025
scalar ClockDriftShowcase.source1.eth[0].macLayer.queue incomingPacketLengths:sum 34009200
scalar ClockDriftShowcase.source1.eth[0].macLayer.queue droppedPacketsQueueOverflow:count 0
scalar ClockDriftShowcase.source1.eth[0].macLayer.queue droppedPacketLengthsQueueOverflow:sum 0
scalar ClockDriftShowcase.source1.eth[0].macLayer.server incomingPackets:count 5025
scalar ClockDriftShowcase.source1.eth[0].macLayer.server incomingPacketLengths:sum 34009200
scalar ClockDriftShowcase.source1.eth[0].macLayer.server outgoingPackets:count 5025
scalar ClockDriftShowcase.source1.eth[0].macLayer.server outgoingPacketLengths:sum 34009200
scalar ClockDriftShowcase.source1.eth[0].macLayer.outboundEmitter outgoingPackets:count 5025
scalar ClockDriftShowcase.source1.eth[0].macLayer.outboundEmitter outgoingPacketLengths:sum 34009200
scalar ClockDriftShowcase.source1.eth[0].macLayer.outboundEmitter flowOutgoingPacketLengths:sum 0
scalar ClockDriftShowcase.source1.eth[0].macLayer.outboundEmitter incomingPackets:count 5025
scalar ClockDriftShowcase.source1.eth[0].macLayer.outboundEmitter incomingPacketLengths:sum 34009200
scalar ClockDriftShowcase.source1.eth[0].macLayer.outboundEmitter flowIncomingPacketLengths:sum 0
scalar ClockDriftShowcase.source1.eth[0].macLayer.fcsChecker outgoingPackets:count 0
scalar ClockDriftShowcase.source1.eth[0].macLayer.fcsChecker outgoingPacketLengths:sum 0
scalar ClockDriftShowcase.source1.eth[0].macLayer.fcsChecker flowOutgoingPacketLengths:sum 0
scalar ClockDriftShowcase.source1.eth[0].macLayer.fcsChecker incomingPackets:count 0
scalar ClockDriftShowcase.source1.eth[0].macLayer.fcsChecker incomingPacketLengths:sum 0
scalar ClockDriftShowcase.source1.eth[0].macLayer.fcsChecker flowIncomingPacketLengths:sum 0
scalar ClockDriftShowcase.source1.eth[0].macLayer.fcsChecker droppedPackets:count 0
scalar ClockDriftShowcase.source1.eth[0].macLayer.fcsChecker droppedPacketLengths:sum 0
scalar ClockDriftShowcase.source1.eth[0].macLayer.fcsChecker flowDroppedPacketLengths:sum 0
scalar ClockDriftShowcase.source1.eth[0].macLayer.inboundEmitter outgoingPackets:count 0
scalar ClockDriftShowcase.source1.eth[0].macLayer.inboundEmitter outgoingPacketLengths:sum 0
scalar ClockDriftShowcase.source1.eth[0].macLayer.inboundEmitter flowOutgoingPacketLengths:sum 0
scalar ClockDriftShowcase.source1.eth[0].macLayer.inboundEmitter incomingPackets:count 0
scalar ClockDriftShowcase.source1.eth[0].macLayer.inboundEmitter incomingPacketLengths:sum 0
scalar ClockDriftShowcase.source1.eth[0].macLayer.inboundEmitter flowIncomingPacketLengths:sum 0
scalar ClockDriftShowcase.source1.eth[0].phyLayer.phyHeaderInserter outgoingPackets:count 5025
scalar ClockDriftShowcase.source1.eth[0].phyLayer.phyHeaderInserter outgoingPacketLengths:sum 34330800
scalar ClockDriftShowcase.source1.eth[0].phyLayer.phyHeaderInserter flowOutgoingPacketLengths:sum 0
scalar ClockDriftShowcase.source1.eth[0].phyLayer.phyHeaderInserter incomingPackets:count 5025
scalar ClockDriftShowcase.source1.eth[0].phyLayer.phyHeaderInserter incomingPacketLengths:sum 34009200
scalar ClockDriftShowcase.source1.eth[0].phyLayer.phyHeaderInserter flowIncomingPacketLengths:sum 0
scalar ClockDriftShowcase.source1.eth[0].phyLayer.outboundEmitter outgoingPackets:count 5025
scalar ClockDriftShowcase.source1.eth[0].phyLayer.outboundEmitter outgoingPacketLengths:sum 34330800
scalar ClockDriftShowcase.source1.eth[0].phyLayer.outboundEmitter flowOutgoingPacketLengths:sum 0
scalar ClockDriftShowcase.source1.eth[0].phyLayer.outboundEmitter incomingPackets:count 5025
scalar ClockDriftShowcase.source1.eth[0].phyLayer.outboundEmitter incomingPacketLengths:sum 34330800
scalar ClockDriftShowcase.source1.eth[0].phyLayer.outboundEmitter flowIncomingPacketLengths:sum 0
scalar ClockDriftShowcase.source1.eth[0].phyLayer.transmitter propagationTime 5e-08
scalar ClockDriftShowcase.source1.eth[0].phyLayer.phyHeaderChecker outgoingPackets:count 0
scalar ClockDriftShowcase.source1.eth[0].phyLayer.phyHeaderChecker outgoingPacketLengths:sum 0
scalar ClockDriftShowcase.source1.eth[0].phyLayer.phyHeaderChecker flowOutgoingPacketLengths:sum 0
scalar ClockDriftShowcase.source1.eth[0].phyLayer.phyHeaderChecker incomingPackets:count 0
scalar ClockDriftShowcase.source1.eth[0].phyLayer.phyHeaderChecker incomingPacketLengths:sum 0
scalar ClockDriftShowcase.source1.eth[0].phyLayer.phyHeaderChecker flowIncomingPacketLengths:sum 0
scalar ClockDriftShowcase.source1.eth[0].phyLayer.phyHeaderChecker droppedPackets:count 0
scalar ClockDriftShowcase.source1.eth[0].phyLayer.phyHeaderChecker droppedPacketLengths:sum 0
scalar ClockDriftShowcase.source1.eth[0].phyLayer.phyHeaderChecker flowDroppedPacketLengths:sum 0
scalar ClockDriftShowcase.source1.eth[0].phyLayer.inboundEmitter outgoingPackets:count 0
scalar ClockDriftShowcase.source1.eth[0].phyLayer.inboundEmitter outgoingPacketLengths:sum 0
scalar ClockDriftShowcase.source1.eth[0].phyLayer.inboundEmitter flowOutgoingPacketLengths:sum 0
scalar ClockDriftShowcase.source1.eth[0].phyLayer.inboundEmitter incomingPackets:count 0
scalar ClockDriftShowcase.source1.eth[0].phyLayer.inboundEmitter incomingPacketLengths:sum 0
scalar ClockDriftShowcase.source1.eth[0].phyLayer.inboundEmitter flowIncomingPacketLengths:sum 0
scalar ClockDriftShowcase.source1.eth[0] packetDropInterfaceDown:count 0
scalar ClockDriftShowcase.source1.eth[0] packetDropInterfaceDown:sum(packetBytes) 0
scalar ClockDriftShowcase.source1.eth[0] packetDropNoCarrier:count 0
scalar ClockDriftShowcase.source1.eth[0] packetDropNoCarrier:sum(packetBytes) 0
scalar ClockDriftShowcase.source1.ipv4.ip packetDropAddressResolutionFailed:count 0
scalar ClockDriftShowcase.source1.ipv4.ip packetDropAddressResolutionFailed:sum(packetBytes) 0
scalar ClockDriftShowcase.source1.ipv4.ip packetDropHopLimitReached:count 0
scalar ClockDriftShowcase.source1.ipv4.ip packetDropHopLimitReached:sum(packetBytes) 0
scalar ClockDriftShowcase.source1.ipv4.ip packetDropForwardingDisabled:count 0
scalar ClockDriftShowcase.source1.ipv4.ip packetDropForwardingDisabled:sum(packetBytes) 0
scalar ClockDriftShowcase.source1.ipv4.ip packetDropLifetimeExpired:count 0
scalar ClockDriftShowcase.source1.ipv4.ip packetDropLifetimeExpired:sum(packetBytes) 0
scalar ClockDriftShowcase.source1.ipv4.ip packetDropNoInterfaceFound:count 0
scalar ClockDriftShowcase.source1.ipv4.ip packetDropNoInterfaceFound:sum(packetBytes) 0
scalar ClockDriftShowcase.source1.ipv4.ip packetDropNoRouteFound:count 0
scalar ClockDriftShowcase.source1.ipv4.ip packetDropNoRouteFound:sum(packetBytes) 0
scalar ClockDriftShowcase.source1.ipv4.ip packetDropUndefined:count 0
scalar ClockDriftShowcase.source1.ipv4.ip packetDropUndefined:sum(packetBytes) 0
scalar ClockDriftShowcase.source1.udp packetReceived:count 0
scalar ClockDriftShowcase.source1.udp packetReceived:sum(packetBytes) 0
scalar ClockDriftShowcase.source1.udp packetSent:count 5025
scalar ClockDriftShowcase.source1.udp packetSent:sum(packetBytes) 4060200
scalar ClockDriftShowcase.source1.udp passedUpPk:count 0
scalar ClockDriftShowcase.source1.udp droppedPkWrongPort:count 0
scalar ClockDriftShowcase.source1.udp droppedPkBadChecksum:count 0
scalar ClockDriftShowcase.source1.app[0].source packets:count 5025
scalar ClockDriftShowcase.source1.app[0].source packetLengths:sum 32160000
scalar ClockDriftShowcase.source1.app[0].io "packets sent" 5025
scalar ClockDriftShowcase.source1.app[0].io "packets received" 0
scalar ClockDriftShowcase.source1.app[0].io packetReceived:count 0
scalar ClockDriftShowcase.source1.app[0].io packetReceived:sum(packetBytes) 0
scalar ClockDriftShowcase.source1.app[0].io packetSent:count 5025
scalar ClockDriftShowcase.source1.app[0].io packetSent:sum(packetBytes) 4020000
scalar ClockDriftShowcase.source2.ethernet.macHeaderInserter outgoingPackets:count 5024
scalar ClockDriftShowcase.source2.ethernet.macHeaderInserter outgoingPacketLengths:sum 33841664
scalar ClockDriftShowcase.source2.ethernet.macHeaderInserter flowOutgoingPacketLengths:sum 0
scalar ClockDriftShowcase.source2.ethernet.macHeaderInserter incomingPackets:count 5024
scalar ClockDriftShowcase.source2.ethernet.macHeaderInserter incomingPacketLengths:sum 33278976
scalar ClockDriftShowcase.source2.ethernet.macHeaderInserter flowIncomingPacketLengths:sum 0
scalar ClockDriftShowcase.source2.ethernet.paddingInserter outgoingPackets:count 5024
scalar ClockDriftShowcase.source2.ethernet.paddingInserter outgoingPacketLengths:sum 33841664
scalar ClockDriftShowcase.source2.ethernet.paddingInserter flowOutgoingPacketLengths:sum 0
scalar ClockDriftShowcase.source2.ethernet.paddingInserter incomingPackets:count 5024
scalar ClockDriftShowcase.source2.ethernet.paddingInserter incomingPacketLengths:sum 33841664
scalar ClockDriftShowcase.source2.ethernet.paddingInserter flowIncomingPacketLengths:sum 0
scalar ClockDriftShowcase.source2.ethernet.fcsInserter outgoingPackets:count 5024
scalar ClockDriftShowcase.source2.ethernet.fcsInserter outgoingPacketLengths:sum 34002432
scalar ClockDriftShowcase.source2.ethernet.fcsInserter flowOutgoingPacketLengths:sum 0
scalar ClockDriftShowcase.source2.ethernet.fcsInserter incomingPackets:count 5024
scalar ClockDriftShowcase.source2.ethernet.fcsInserter incomingPacketLengths:sum 33841664
scalar ClockDriftShowcase.source2.ethernet.fcsInserter flowIncomingPacketLengths:sum 0
scalar ClockDriftShowcase.source2.ethernet.macHeaderChecker outgoingPackets:count 0
scalar ClockDriftShowcase.source2.ethernet.macHeaderChecker outgoingPacketLengths:sum 0
scalar ClockDriftShowcase.source2.ethernet.macHeaderChecker flowOutgoingPacketLengths:sum 0
scalar ClockDriftShowcase.source2.ethernet.macHeaderChecker incomingPackets:count 0
scalar ClockDriftShowcase.source2.ethernet.macHeaderChecker incomingPacketLengths:sum 0
scalar ClockDriftShowcase.source2.ethernet.macHeaderChecker flowIncomingPacketLengths:sum 0
scalar ClockDriftShowcase.source2.ethernet.macHeaderChecker droppedPackets:count 0
scalar ClockDriftShowcase.source2.ethernet.macHeaderChecker droppedPacketLengths:sum 0
scalar ClockDriftShowcase.source2.ethernet.macHeaderChecker flowDroppedPacketLengths:sum 0
scalar ClockDriftShowcase.source2.ethernet.fcsChecker outgoingPackets:count 0
scalar ClockDriftShowcase.source2.ethernet.fcsChecker outgoingPacketLengths:sum 0
scalar ClockDriftShowcase.source2.ethernet.fcsChecker flowOutgoingPacketLengths:sum 0
scalar ClockDriftShowcase.source2.ethernet.fcsChecker incomingPackets:count 0
scalar ClockDriftShowcase.source2.ethernet.fcsChecker incomingPacketLengths:sum 0
scalar ClockDriftShowcase.source2.ethernet.fcsChecker flowIncomingPacketLengths:sum 0
scalar ClockDriftShowcase.source2.ethernet.fcsChecker droppedPackets:count 0
scalar ClockDriftShowcase.source2.ethernet.fcsChecker droppedPacketLengths:sum 0
scalar ClockDriftShowcase.source2.ethernet.fcsChecker flowDroppedPacketLengths:sum 0
scalar ClockDriftShowcase.source2.lo[0].lo rcvdPkFromHl:count 0
scalar ClockDriftShowcase.source2.lo[0].lo rcvdPkFromHl:sum(packetBytes) 0
scalar ClockDriftShowcase.source2.lo[0].lo passedUpPk:count 0
scalar ClockDriftShowcase.source2.lo[0].lo passedUpPk:sum(packetBytes) 0
scalar ClockDriftShowcase.source2.lo[0] packetDropInterfaceDown:count 0
scalar ClockDriftShowcase.source2.lo[0] packetDropInterfaceDown:sum(packetBytes) 0
scalar ClockDriftShowcase.source2.lo[0] packetDropNoCarrier:count 0
scalar ClockDriftShowcase.source2.lo[0] packetDropNoCarrier:sum(packetBytes) 0
scalar ClockDriftShowcase.source2.eth[0].macLayer.queue queueLength:last 0
scalar ClockDriftShowcase.source2.eth[0].macLayer.queue queueLength:max 1
scalar ClockDriftShowcase.source2.eth[0].macLayer.queue queueLength:timeavg 0
scalar ClockDriftShowcase.source2.eth[0].macLayer.queue queueBitLength:last 0
scalar ClockDriftShowcase.source2.eth[0].macLayer.queue queueBitLength:max 6768
scalar ClockDriftShowcase.source2.eth[0].macLayer.queue queueBitLength:timeavg 0
scalar ClockDriftShowcase.source2.eth[0].macLayer.queue outgoingPackets:count 5024
scalar ClockDriftShowcase.source2.eth[0].macLayer.queue outgoingPacketLengths:sum 34002432
scalar ClockDriftShowcase.source2.eth[0].macLayer.queue incomingPackets:count 5024
scalar ClockDriftShowcase.source2.eth[0].macLayer.queue incomingPacketLengths:sum 34002432
scalar ClockDriftShowcase.source2.eth[0].macLayer.queue droppedPacketsQueueOverflow:count 0
scalar ClockDriftShowcase.source2.eth[0].macLayer.queue droppedPacketLengthsQueueOverflow:sum 0
scalar ClockDriftShowcase.source2.eth[0].macLayer.server incomingPackets:count 5024
scalar ClockDriftShowcase.source2.eth[0].macLayer.server incomingPacketLengths:sum 34002432
scalar ClockDriftShowcase.source2.eth[0].macLayer.server outgoingPackets:count 5024
scalar ClockDriftShowcase.source2.eth[0].macLayer.server outgoingPacketLengths:sum 34002432
scalar ClockDriftShowcase.source2.eth[0].macLayer.outboundEmitter outgoingPackets:count 5024
scalar ClockDriftShowcase.source2.eth[0].macLayer.outboundEmitter outgoingPacketLengths:sum 34002432
scalar ClockDriftShowcase.source2.eth[0].macLayer.outboundEmitter flowOutgoingPacketLengths:sum 0
scalar ClockDriftShowcase.source2.eth[0].macLayer.outboundEmitter incomingPackets:count 5024
scalar ClockDriftShowcase.source2.eth[0].macLayer.outboundEmitter incomingPacketLengths:sum 34002432
scalar ClockDriftShowcase.source2.eth[0].macLayer.outboundEmitter flowIncomingPacketLengths:sum 0
scalar ClockDriftShowcase.source2.eth[0].macLayer.fcsChecker outgoingPackets:count 0
scalar ClockDriftShowcase.source2.eth[0].macLayer.fcsChecker outgoingPacketLengths:sum 0
scalar ClockDriftShowcase.source2.eth[0].macLayer.fcsChecker flowOutgoingPacketLengths:sum 0
scalar ClockDriftShowcase.source2.eth[0].macLayer.fcsChecker incomingPackets:count 0
scalar ClockDriftShowcase.source2.eth[0].macLayer.fcsChecker incomingPacketLengths:sum 0
scalar ClockDriftShowcase.source2.eth[0].macLayer.fcsChecker flowIncomingPacketLengths:sum 0
scalar ClockDriftShowcase.source2.eth[0].macLayer.fcsChecker droppedPackets:count 0
scalar ClockDriftShowcase.source2.eth[0].macLayer.fcsChecker droppedPacketLengths:sum 0
scalar ClockDriftShowcase.source2.eth[0].macLayer.fcsChecker flowDroppedPacketLengths:sum 0
scalar ClockDriftShowcase.source2.eth[0].macLayer.inboundEmitter outgoingPackets:count 0
scalar ClockDriftShowcase.source2.eth[0].macLayer.inboundEmitter outgoingPacketLengths:sum 0
scalar ClockDriftShowcase.source2.eth[0].macLayer.inboundEmitter flowOutgoingPacketLengths:sum 0
scalar ClockDriftShowcase.source2.eth[0].macLayer.inboundEmitter incomingPackets:count 0
scalar ClockDriftShowcase.source2.eth[0].macLayer.inboundEmitter incomingPacketLengths:sum 0
scalar ClockDriftShowcase.source2.eth[0].macLayer.inboundEmitter flowIncomingPacketLengths:sum 0
scalar ClockDriftShowcase.source2.eth[0].phyLayer.phyHeaderInserter outgoingPackets:count 5024
scalar ClockDriftShowcase.source2.eth[0].phyLayer.phyHeaderInserter outgoingPacketLengths:sum 34323968
scalar ClockDriftShowcase.source2.eth[0].phyLayer.phyHeaderInserter flowOutgoingPacketLengths:sum 0
scalar ClockDriftShowcase.source2.eth[0].phyLayer.phyHeaderInserter incomingPackets:count 5024
scalar ClockDriftShowcase.source2.eth[0].phyLayer.phyHeaderInserter incomingPacketLengths:sum 34002432
scalar ClockDriftShowcase.source2.eth[0].phyLayer.phyHeaderInserter flowIncomingPacketLengths:sum 0
scalar ClockDriftShowcase.source2.eth[0].phyLayer.outboundEmitter outgoingPackets:count 5024
scalar ClockDriftShowcase.source2.eth[0].phyLayer.outboundEmitter outgoingPacketLengths:sum 34323968
scalar ClockDriftShowcase.source2.eth[0].phyLayer.outboundEmitter flowOutgoingPacketLengths:sum 0
scalar ClockDriftShowcase.source2.eth[0].phyLayer.outboundEmitter incomingPackets:count 5024
scalar ClockDriftShowcase.source2.eth[0].phyLayer.outboundEmitter incomingPacketLengths:sum 34323968
scalar ClockDriftShowcase.source2.eth[0].phyLayer.outboundEmitter flowIncomingPacketLengths:sum 0
scalar ClockDriftShowcase.source2.eth[0].phyLayer.transmitter propagationTime 5e-08
scalar ClockDriftShowcase.source2.eth[0].phyLayer.phyHeaderChecker outgoingPackets:count 0
scalar ClockDriftShowcase.source2.eth[0].phyLayer.phyHeaderChecker outgoingPacketLengths:sum 0
scalar ClockDriftShowcase.source2.eth[0].phyLayer.phyHeaderChecker flowOutgoingPacketLengths:sum 0
scalar ClockDriftShowcase.source2.eth[0].phyLayer.phyHeaderChecker incomingPackets:count 0
scalar ClockDriftShowcase.source2.eth[0].phyLayer.phyHeaderChecker incomingPacketLengths:sum 0
scalar ClockDriftShowcase.source2.eth[0].phyLayer.phyHeaderChecker flowIncomingPacketLengths:sum 0
scalar ClockDriftShowcase.source2.eth[0].phyLayer.phyHeaderChecker droppedPackets:count 0
scalar ClockDriftShowcase.source2.eth[0].phyLayer.phyHeaderChecker droppedPacketLengths:sum 0
scalar ClockDriftShowcase.source2.eth[0].phyLayer.phyHeaderChecker flowDroppedPacketLengths:sum 0
scalar ClockDriftShowcase.source2.eth[0].phyLayer.inboundEmitter outgoingPackets:count 0
scalar ClockDriftShowcase.source2.eth[0].phyLayer.inboundEmitter outgoingPacketLengths:sum 0
scalar ClockDriftShowcase.source2.eth[0].phyLayer.inboundEmitter flowOutgoingPacketLengths:sum 0
scalar ClockDriftShowcase.source2.eth[0].phyLayer.inboundEmitter incomingPackets:count 0
scalar ClockDriftShowcase.source2.eth[0].phyLayer.inboundEmitter incomingPacketLengths:sum 0
scalar ClockDriftShowcase.source2.eth[0].phyLayer.inboundEmitter flowIncomingPacketLengths:sum 0
scalar ClockDriftShowcase.source2.eth[0] packetDropInterfaceDown:count 0
scalar ClockDriftShowcase.source2.eth[0] packetDropInterfaceDown:sum(packetBytes) 0
scalar ClockDriftShowcase.source2.eth[0] packetDropNoCarrier:count 0
scalar ClockDriftShowcase.source2.eth[0] packetDropNoCarrier:sum(packetBytes) 0
scalar ClockDriftShowcase.source2.ipv4.ip packetDropAddressResolutionFailed:count 0
scalar ClockDriftShowcase.source2.ipv4.ip packetDropAddressResolutionFailed:sum(packetBytes) 0
scalar ClockDriftShowcase.source2.ipv4.ip packetDropHopLimitReached:count 0
scalar ClockDriftShowcase.source2.ipv4.ip packetDropHopLimitReached:sum(packetBytes) 0
scalar ClockDriftShowcase.source2.ipv4.ip packetDropForwardingDisabled:count 0
scalar ClockDriftShowcase.source2.ipv4.ip packetDropForwardingDisabled:sum(packetBytes) 0
scalar ClockDriftShowcase.source2.ipv4.ip packetDropLifetimeExpired:count 0
scalar ClockDriftShowcase.source2.ipv4.ip packetDropLifetimeExpired:sum(packetBytes) 0
scalar ClockDriftShowcase.source2.ipv4.ip packetDropNoInterfaceFound:count 0
scalar ClockDriftShowcase.source2.ipv4.ip packetDropNoInterfaceFound:sum(packetBytes) 0
scalar ClockDriftShowcase.source2.ipv4.ip packetDropNoRouteFound:count 0
scalar ClockDriftShowcase.source2.ipv4.ip packetDropNoRouteFound:sum(packetBytes) 0
scalar ClockDriftShowcase.source2.ipv4.ip packetDropUndefined:count 0
scalar ClockDriftShowcase.source2.ipv4.ip packetDropUndefined:sum(packetBytes) 0
scalar ClockDriftShowcase.source2.udp packetReceived:count 0
scalar ClockDriftShowcase.source2.udp packetReceived:sum(packetBytes) 0
scalar ClockDriftShowcase.source2.udp packetSent:count 5024
scalar ClockDriftShowcase.source2.udp packetSent:sum(packetBytes) 4059392
scalar ClockDriftShowcase.source2.udp passedUpPk:count 0
scalar ClockDriftShowcase.source2.udp droppedPkWrongPort:count 0
scalar ClockDriftShowcase.source2.udp droppedPkBadChecksum:count 0
scalar ClockDriftShowcase.source2.app[0].source packets:count 5024
scalar ClockDriftShowcase.source2.app[0].source packetLengths:sum 32153600
scalar ClockDriftShowcase.source2.app[0].io "packets sent" 5024
scalar ClockDriftShowcase.source2.app[0].io "packets received" 0
scalar ClockDriftShowcase.source2.app[0].io packetReceived:count 0
scalar ClockDriftShowcase.source2.app[0].io packetReceived:sum(packetBytes) 0
scalar ClockDriftShowcase.source2.app[0].io packetSent:count 5024
scalar ClockDriftShowcase.source2.app[0].io packetSent:sum(packetBytes) 4019200
scalar ClockDriftShowcase.switch1.bridging "processed frames" 0
scalar ClockDriftShowcase.switch1.bridging "discarded frames" 0
scalar ClockDriftShowcase.switch1.bridging "number of received BPDUs from STP module" 0
scalar ClockDriftShowcase.switch1.bridging "number of received frames from network (including BPDUs)" 10048
scalar ClockDriftShowcase.switch1.bridging "number of dropped frames (including BPDUs)" 0
scalar ClockDriftShowcase.switch1.bridging "number of delivered BPDUs to the STP module" 0
scalar ClockDriftShowcase.switch1.bridging "number of dispatched BPDU frames to the network" 0
scalar ClockDriftShowcase.switch1.bridging "number of dispatched non-BDPU frames to the network" 0
scalar ClockDriftShowcase.switch1.bridging packetDropped:count 0
scalar ClockDriftShowcase.switch1.bridging packetDropped:sum(packetBytes) 0
scalar ClockDriftShowcase.switch1.ethernet.macHeaderInserter outgoingPackets:count 10048
scalar ClockDriftShowcase.switch1.ethernet.macHeaderInserter outgoingPacketLengths:sum 67683328
scalar ClockDriftShowcase.switch1.ethernet.macHeaderInserter flowOutgoingPacketLengths:sum 0
scalar ClockDriftShowcase.switch1.ethernet.macHeaderInserter incomingPackets:count 10048
scalar ClockDriftShowcase.switch1.ethernet.macHeaderInserter incomingPacketLengths:sum 66557952
scalar ClockDriftShowcase.switch1.ethernet.macHeaderInserter flowIncomingPacketLengths:sum 0
scalar ClockDriftShowcase.switch1.ethernet.paddingInserter outgoingPackets:count 10048
scalar ClockDriftShowcase.switch1.ethernet.paddingInserter outgoingPacketLengths:sum 67683328
scalar ClockDriftShowcase.switch1.ethernet.paddingInserter flowOutgoingPacketLengths:sum 0
scalar ClockDriftShowcase.switch1.ethernet.paddingInserter incomingPackets:count 10048
scalar ClockDriftShowcase.switch1.ethernet.paddingInserter incomingPacketLengths:sum 67683328
scalar ClockDriftShowcase.switch1.ethernet.paddingInserter flowIncomingPacketLengths:sum 0
scalar ClockDriftShowcase.switch1.ethernet.fcsInserter outgoingPackets:count 10048
scalar ClockDriftShowcase.switch1.ethernet.fcsInserter outgoingPacketLengths:sum 68004864
scalar ClockDriftShowcase.switch1.ethernet.fcsInserter flowOutgoingPacketLengths:sum 0
scalar ClockDriftShowcase.switch1.ethernet.fcsInserter incomingPackets:count 10048
scalar ClockDriftShowcase.switch1.ethernet.fcsInserter incomingPacketLengths:sum 67683328
scalar ClockDriftShowcase.switch1.ethernet.fcsInserter flowIncomingPacketLengths:sum 0
scalar ClockDriftShowcase.switch1.ethernet.macHeaderChecker outgoingPackets:count 10048
scalar ClockDriftShowcase.switch1.ethernet.macHeaderChecker outgoingPacketLengths:sum 66557952
scalar ClockDriftShowcase.switch1.ethernet.macHeaderChecker flowOutgoingPacketLengths:sum 0
scalar ClockDriftShowcase.switch1.ethernet.macHeaderChecker incomingPackets:count 10048
scalar ClockDriftShowcase.switch1.ethernet.macHeaderChecker incomingPacketLengths:sum 67683328
scalar ClockDriftShowcase.switch1.ethernet.macHeaderChecker flowIncomingPacketLengths:sum 0
scalar ClockDriftShowcase.switch1.ethernet.macHeaderChecker droppedPackets:count 0
scalar ClockDriftShowcase.switch1.ethernet.macHeaderChecker droppedPacketLengths:sum 0
scalar ClockDriftShowcase.switch1.ethernet.macHeaderChecker flowDroppedPacketLengths:sum 0
scalar ClockDriftShowcase.switch1.ethernet.fcsChecker outgoingPackets:count 10048
scalar ClockDriftShowcase.switch1.ethernet.fcsChecker outgoingPacketLengths:sum 67683328
scalar ClockDriftShowcase.switch1.ethernet.fcsChecker flowOutgoingPacketLengths:sum 0
scalar ClockDriftShowcase.switch1.ethernet.fcsChecker incomingPackets:count 10048
scalar ClockDriftShowcase.switch1.ethernet.fcsChecker incomingPacketLengths:sum 68004864
scalar ClockDriftShowcase.switch1.ethernet.fcsChecker flowIncomingPacketLengths:sum 0
scalar ClockDriftShowcase.switch1.ethernet.fcsChecker droppedPackets:count 0
scalar ClockDriftShowcase.switch1.ethernet.fcsChecker droppedPacketLengths:sum 0
scalar ClockDriftShowcase.switch1.ethernet.fcsChecker flowDroppedPacketLengths:sum 0
scalar ClockDriftShowcase.switch1.eth[0].macLayer.queue.classifier packets:count 10048
scalar ClockDriftShowcase.switch1.eth[0].macLayer.queue.classifier packetLengths:sum 68004864
scalar ClockDriftShowcase.switch1.eth[0].macLayer.queue.queue[0] queueLength:last 0
scalar ClockDriftShowcase.switch1.eth[0].macLayer.queue.queue[0] queueLength:max 1
scalar ClockDriftShowcase.switch1.eth[0].macLayer.queue.queue[0] queueLength:timeavg 0.00485338905
scalar ClockDriftShowcase.switch1.eth[0].macLayer.queue.queue[0] queueBitLength:last 0
scalar ClockDriftShowcase.switch1.eth[0].macLayer.queue.queue[0] queueBitLength:max 6768
scalar ClockDriftShowcase.switch1.eth[0].macLayer.queue.queue[0] queueBitLength:timeavg 32.8477370904
scalar ClockDriftShowcase.switch1.eth[0].macLayer.queue.queue[0] outgoingPackets:count 5024
scalar ClockDriftShowcase.switch1.eth[0].macLayer.queue.queue[0] outgoingPacketLengths:sum 34002432
scalar ClockDriftShowcase.switch1.eth[0].macLayer.queue.queue[0] incomingPackets:count 5024
scalar ClockDriftShowcase.switch1.eth[0].macLayer.queue.queue[0] incomingPacketLengths:sum 34002432
scalar ClockDriftShowcase.switch1.eth[0].macLayer.queue.queue[0] droppedPacketsQueueOverflow:count 0
scalar ClockDriftShowcase.switch1.eth[0].macLayer.queue.queue[0] droppedPacketLengthsQueueOverflow:sum 0
scalar ClockDriftShowcase.switch1.eth[0].macLayer.queue.queue[1] queueLength:last 1
scalar ClockDriftShowcase.switch1.eth[0].macLayer.queue.queue[1] queueLength:max 1
scalar ClockDriftShowcase.switch1.eth[0].macLayer.queue.queue[1] queueLength:timeavg 0.15676626043
scalar ClockDriftShowcase.switch1.eth[0].macLayer.queue.queue[1] queueBitLength:last 6768
scalar ClockDriftShowcase.switch1.eth[0].macLayer.queue.queue[1] queueBitLength:max 6768
scalar ClockDriftShowcase.switch1.eth[0].macLayer.queue.queue[1] queueBitLength:timeavg 1060.9940505902
scalar ClockDriftShowcase.switch1.eth[0].macLayer.queue.queue[1] outgoingPackets:count 5023
scalar ClockDriftShowcase.switch1.eth[0].macLayer.queue.queue[1] outgoingPacketLengths:sum 33995664
scalar ClockDriftShowcase.switch1.eth[0].macLayer.queue.queue[1] incomingPackets:count 5024
scalar ClockDriftShowcase.switch1.eth[0].macLayer.queue.queue[1] incomingPacketLengths:sum 34002432
scalar ClockDriftShowcase.switch1.eth[0].macLayer.queue.queue[1] droppedPacketsQueueOverflow:count 0
scalar ClockDriftShowcase.switch1.eth[0].macLayer.queue.queue[1] droppedPacketLengthsQueueOverflow:sum 0
scalar ClockDriftShowcase.switch1.eth[0].macLayer.queue.gate[0] outgoingPackets:count 5024
scalar ClockDriftShowcase.switch1.eth[0].macLayer.queue.gate[0] outgoingPacketLengths:sum 34002432
scalar ClockDriftShowcase.switch1.eth[0].macLayer.queue.gate[0] flowOutgoingPacketLengths:sum 0
scalar ClockDriftShowcase.switch1.eth[0].macLayer.queue.gate[0] incomingPackets:count 5024
scalar ClockDriftShowcase.switch1.eth[0].macLayer.queue.gate[0] incomingPacketLengths:sum 34002432
scalar ClockDriftShowcase.switch1.eth[0].macLayer.queue.gate[0] flowIncomingPacketLengths:sum 0
scalar ClockDriftShowcase.switch1.eth[0].macLayer.queue.gate[1] outgoingPackets:count 5023
scalar ClockDriftShowcase.switch1.eth[0].macLayer.queue.gate[1] outgoingPacketLengths:sum 33995664
scalar ClockDriftShowcase.switch1.eth[0].macLayer.queue.gate[1] flowOutgoingPacketLengths:sum 0
scalar ClockDriftShowcase.switch1.eth[0].macLayer.queue.gate[1] incomingPackets:count 5023
scalar ClockDriftShowcase.switch1.eth[0].macLayer.queue.gate[1] incomingPacketLengths:sum 33995664
scalar ClockDriftShowcase.switch1.eth[0].macLayer.queue.gate[1] flowIncomingPacketLengths:sum 0
scalar ClockDriftShowcase.switch1.eth[0].macLayer.queue.scheduler packets:count 10047
scalar ClockDriftShowcase.switch1.eth[0].macLayer.queue.scheduler packetLengths:sum 67998096
scalar ClockDriftShowcase.switch1.eth[0].macLayer.queue queueLength:last 1
scalar ClockDriftShowcase.switch1.eth[0].macLayer.queue queueLength:max 2
scalar ClockDriftShowcase.switch1.eth[0].macLayer.queue queueLength:timeavg 0.16161964948
scalar ClockDriftShowcase.switch1.eth[0].macLayer.queue queueBitLength:last 6768
scalar ClockDriftShowcase.switch1.eth[0].macLayer.queue queueBitLength:max 13536
scalar ClockDriftShowcase.switch1.eth[0].macLayer.queue queueBitLength:timeavg 1093.8417876806
scalar ClockDriftShowcase.switch1.eth[0].macLayer.queue outgoingPackets:count 10047
scalar ClockDriftShowcase.switch1.eth[0].macLayer.queue outgoingPacketLengths:sum 67998096
scalar ClockDriftShowcase.switch1.eth[0].macLayer.queue incomingPackets:count 10048
scalar ClockDriftShowcase.switch1.eth[0].macLayer.queue incomingPacketLengths:sum 68004864
scalar ClockDriftShowcase.switch1.eth[0].macLayer.queue droppedPacketsQueueOverflow:count 0
scalar ClockDriftShowcase.switch1.eth[0].macLayer.queue droppedPacketLengthsQueueOverflow:sum 0
scalar ClockDriftShowcase.switch1.eth[0].macLayer.server incomingPackets:count 10047
scalar ClockDriftShowcase.switch1.eth[0].macLayer.server incomingPacketLengths:sum 67998096
scalar ClockDriftShowcase.switch1.eth[0].macLayer.server outgoingPackets:count 10047
scalar ClockDriftShowcase.switch1.eth[0].macLayer.server outgoingPacketLengths:sum 67998096
scalar ClockDriftShowcase.switch1.eth[0].macLayer.outboundEmitter outgoingPackets:count 10047
scalar ClockDriftShowcase.switch1.eth[0].macLayer.outboundEmitter outgoingPacketLengths:sum 67998096
scalar ClockDriftShowcase.switch1.eth[0].macLayer.outboundEmitter flowOutgoingPacketLengths:sum 0
scalar ClockDriftShowcase.switch1.eth[0].macLayer.outboundEmitter incomingPackets:count 10047
scalar ClockDriftShowcase.switch1.eth[0].macLayer.outboundEmitter incomingPacketLengths:sum 67998096
scalar ClockDriftShowcase.switch1.eth[0].macLayer.outboundEmitter flowIncomingPacketLengths:sum 0
scalar ClockDriftShowcase.switch1.eth[0].macLayer.fcsChecker outgoingPackets:count 0
scalar ClockDriftShowcase.switch1.eth[0].macLayer.fcsChecker outgoingPacketLengths:sum 0
scalar ClockDriftShowcase.switch1.eth[0].macLayer.fcsChecker flowOutgoingPacketLengths:sum 0
scalar ClockDriftShowcase.switch1.eth[0].macLayer.fcsChecker incomingPackets:count 0
scalar ClockDriftShowcase.switch1.eth[0].macLayer.fcsChecker incomingPacketLengths:sum 0
scalar ClockDriftShowcase.switch1.eth[0].macLayer.fcsChecker flowIncomingPacketLengths:sum 0
scalar ClockDriftShowcase.switch1.eth[0].macLayer.fcsChecker droppedPackets:count 0
scalar ClockDriftShowcase.switch1.eth[0].macLayer.fcsChecker droppedPacketLengths:sum 0
scalar ClockDriftShowcase.switch1.eth[0].macLayer.fcsChecker flowDroppedPacketLengths:sum 0
scalar ClockDriftShowcase.switch1.eth[0].macLayer.inboundEmitter outgoingPackets:count 0
scalar ClockDriftShowcase.switch1.eth[0].macLayer.inboundEmitter outgoingPacketLengths:sum 0
scalar ClockDriftShowcase.switch1.eth[0].macLayer.inboundEmitter flowOutgoingPacketLengths:sum 0
scalar ClockDriftShowcase.switch1.eth[0].macLayer.inboundEmitter incomingPackets:count 0
scalar ClockDriftShowcase.switch1.eth[0].macLayer.inboundEmitter incomingPacketLengths:sum 0
scalar ClockDriftShowcase.switch1.eth[0].macLayer.inboundEmitter flowIncomingPacketLengths:sum 0
scalar ClockDriftShowcase.switch1.eth[0].phyLayer.phyHeaderInserter outgoingPackets:count 10047
scalar ClockDriftShowcase.switch1.eth[0].phyLayer.phyHeaderInserter outgoingPacketLengths:sum 68641104
scalar ClockDriftShowcase.switch1.eth[0].phyLayer.phyHeaderInserter flowOutgoingPacketLengths:sum 0
scalar ClockDriftShowcase.switch1.eth[0].phyLayer.phyHeaderInserter incomingPackets:count 10047
scalar ClockDriftShowcase.switch1.eth[0].phyLayer.phyHeaderInserter incomingPacketLengths:sum 67998096
scalar ClockDriftShowcase.switch1.eth[0].phyLayer.phyHeaderInserter flowIncomingPacketLengths:sum 0
scalar ClockDriftShowcase.switch1.eth[0].phyLayer.outboundEmitter outgoingPackets:count 10047
scalar ClockDriftShowcase.switch1.eth[0].phyLayer.outboundEmitter outgoingPacketLengths:sum 68641104
scalar ClockDriftShowcase.switch1.eth[0].phyLayer.outboundEmitter flowOutgoingPacketLengths:sum 0
scalar ClockDriftShowcase.switch1.eth[0].phyLayer.outboundEmitter incomingPackets:count 10047
scalar ClockDriftShowcase.switch1.eth[0].phyLayer.outboundEmitter incomingPacketLengths:sum 68641104
scalar ClockDriftShowcase.switch1.eth[0].phyLayer.outboundEmitter flowIncomingPacketLengths:sum 0
scalar ClockDriftShowcase.switch1.eth[0].phyLayer.transmitter propagationTime 5e-08
scalar ClockDriftShowcase.switch1.eth[0].phyLayer.phyHeaderChecker outgoingPackets:count 0
scalar ClockDriftShowcase.switch1.eth[0].phyLayer.phyHeaderChecker outgoingPacketLengths:sum 0
scalar ClockDriftShowcase.switch1.eth[0].phyLayer.phyHeaderChecker flowOutgoingPacketLengths:sum 0
scalar ClockDriftShowcase.switch1.eth[0].phyLayer.phyHeaderChecker incomingPackets:count 0
scalar ClockDriftShowcase.switch1.eth[0].phyLayer.phyHeaderChecker incomingPacketLengths:sum 0
scalar ClockDriftShowcase.switch1.eth[0].phyLayer.phyHeaderChecker flowIncomingPacketLengths:sum 0
scalar ClockDriftShowcase.switch1.eth[0].phyLayer.phyHeaderChecker droppedPackets:count 0
scalar ClockDriftShowcase.switch1.eth[0].phyLayer.phyHeaderChecker droppedPacketLengths:sum 0
scalar ClockDriftShowcase.switch1.eth[0].phyLayer.phyHeaderChecker flowDroppedPacketLengths:sum 0
scalar ClockDriftShowcase.switch1.eth[0].phyLayer.inboundEmitter outgoingPackets:count 0
scalar ClockDriftShowcase.switch1.eth[0].phyLayer.inboundEmitter outgoingPacketLengths:sum 0
scalar ClockDriftShowcase.switch1.eth[0].phyLayer.inboundEmitter flowOutgoingPacketLengths:sum 0
scalar ClockDriftShowcase.switch1.eth[0].phyLayer.inboundEmitter incomingPackets:count 0
scalar ClockDriftShowcase.switch1.eth[0].phyLayer.inboundEmitter incomingPacketLengths:sum 0
scalar ClockDriftShowcase.switch1.eth[0].phyLayer.inboundEmitter flowIncomingPacketLengths:sum 0
scalar ClockDriftShowcase.switch1.eth[0] packetDropInterfaceDown:count 0
scalar ClockDriftShowcase.switch1.eth[0] packetDropInterfaceDown:sum(packetBytes) 0
scalar ClockDriftShowcase.switch1.eth[0] packetDropNoCarrier:count 0
scalar ClockDriftShowcase.switch1.eth[0] packetDropNoCarrier:sum(packetBytes) 0
scalar ClockDriftShowcase.switch1.eth[1].macLayer.queue queueLength:last 0
scalar ClockDriftShowcase.switch1.eth[1].macLayer.queue queueLength:max 0
scalar ClockDriftShowcase.switch1.eth[1].macLayer.queue queueLength:timeavg 0
scalar ClockDriftShowcase.switch1.eth[1].macLayer.queue queueBitLength:last 0
scalar ClockDriftShowcase.switch1.eth[1].macLayer.queue queueBitLength:max 0
scalar ClockDriftShowcase.switch1.eth[1].macLayer.queue queueBitLength:timeavg 0
scalar ClockDriftShowcase.switch1.eth[1].macLayer.queue outgoingPackets:count 0
scalar ClockDriftShowcase.switch1.eth[1].macLayer.queue outgoingPacketLengths:sum 0
scalar ClockDriftShowcase.switch1.eth[1].macLayer.queue incomingPackets:count 0
scalar ClockDriftShowcase.switch1.eth[1].macLayer.queue incomingPacketLengths:sum 0
scalar ClockDriftShowcase.switch1.eth[1].macLayer.queue droppedPacketsQueueOverflow:count 0
scalar ClockDriftShowcase.switch1.eth[1].macLayer.queue droppedPacketLengthsQueueOverflow:sum 0
scalar ClockDriftShowcase.switch1.eth[1].macLayer.server incomingPackets:count 0
scalar ClockDriftShowcase.switch1.eth[1].macLayer.server incomingPacketLengths:sum 0
scalar ClockDriftShowcase.switch1.eth[1].macLayer.server outgoingPackets:count 0
scalar ClockDriftShowcase.switch1.eth[1].macLayer.server outgoingPacketLengths:sum 0
scalar ClockDriftShowcase.switch1.eth[1].macLayer.outboundEmitter outgoingPackets:count 0
scalar ClockDriftShowcase.switch1.eth[1].macLayer.outboundEmitter outgoingPacketLengths:sum 0
scalar ClockDriftShowcase.switch1.eth[1].macLayer.outboundEmitter flowOutgoingPacketLengths:sum 0
scalar ClockDriftShowcase.switch1.eth[1].macLayer.outboundEmitter incomingPackets:count 0
scalar ClockDriftShowcase.switch1.eth[1].macLayer.outboundEmitter incomingPacketLengths:sum 0
scalar ClockDriftShowcase.switch1.eth[1].macLayer.outboundEmitter flowIncomingPacketLengths:sum 0
scalar ClockDriftShowcase.switch1.eth[1].macLayer.fcsChecker outgoingPackets:count 5024
scalar ClockDriftShowcase.switch1.eth[1].macLayer.fcsChecker outgoingPacketLengths:sum 34002432
scalar ClockDriftShowcase.switch1.eth[1].macLayer.fcsChecker flowOutgoingPacketLengths:sum 0
scalar ClockDriftShowcase.switch1.eth[1].macLayer.fcsChecker incomingPackets:count 5024
scalar ClockDriftShowcase.switch1.eth[1].macLayer.fcsChecker incomingPacketLengths:sum 34002432
scalar ClockDriftShowcase.switch1.eth[1].macLayer.fcsChecker flowIncomingPacketLengths:sum 0
scalar ClockDriftShowcase.switch1.eth[1].macLayer.fcsChecker droppedPackets:count 0
scalar ClockDriftShowcase.switch1.eth[1].macLayer.fcsChecker droppedPacketLengths:sum 0
scalar ClockDriftShowcase.switch1.eth[1].macLayer.fcsChecker flowDroppedPacketLengths:sum 0
scalar ClockDriftShowcase.switch1.eth[1].macLayer.inboundEmitter outgoingPackets:count 5024
scalar ClockDriftShowcase.switch1.eth[1].macLayer.inboundEmitter outgoingPacketLengths:sum 34002432
scalar ClockDriftShowcase.switch1.eth[1].macLayer.inboundEmitter flowOutgoingPacketLengths:sum 0
scalar ClockDriftShowcase.switch1.eth[1].macLayer.inboundEmitter incomingPackets:count 5024
scalar ClockDriftShowcase.switch1.eth[1].macLayer.inboundEmitter incomingPacketLengths:sum 34002432
scalar ClockDriftShowcase.switch1.eth[1].macLayer.inboundEmitter flowIncomingPacketLengths:sum 0
scalar ClockDriftShowcase.switch1.eth[1].phyLayer.phyHeaderInserter outgoingPackets:count 0
scalar ClockDriftShowcase.switch1.eth[1].phyLayer.phyHeaderInserter outgoingPacketLengths:sum 0
scalar ClockDriftShowcase.switch1.eth[1].phyLayer.phyHeaderInserter flowOutgoingPacketLengths:sum 0
scalar ClockDriftShowcase.switch1.eth[1].phyLayer.phyHeaderInserter incomingPackets:count 0
scalar ClockDriftShowcase.switch1.eth[1].phyLayer.phyHeaderInserter incomingPacketLengths:sum 0
scalar ClockDriftShowcase.switch1.eth[1].phyLayer.phyHeaderInserter flowIncomingPacketLengths:sum 0
scalar ClockDriftShowcase.switch1.eth[1].phyLayer.outboundEmitter outgoingPackets:count 0
scalar ClockDriftShowcase.switch1.eth[1].phyLayer.outboundEmitter outgoingPacketLengths:sum 0
scalar ClockDriftShowcase.switch1.eth[1].phyLayer.outboundEmitter flowOutgoingPacketLengths:sum 0
scalar ClockDriftShowcase.switch1.eth[1].phyLayer.outboundEmitter incomingPackets:count 0
scalar ClockDriftShowcase.switch1.eth[1].phyLayer.outboundEmitter incomingPacketLengths:sum 0
scalar ClockDriftShowcase.switch1.eth[1].phyLayer.outboundEmitter flowIncomingPacketLengths:sum 0
scalar ClockDriftShowcase.switch1.eth[1].phyLayer.transmitter propagationTime 5e-08
scalar ClockDriftShowcase.switch1.eth[1].phyLayer.phyHeaderChecker outgoingPackets:count 5024
scalar ClockDriftShowcase.switch1.eth[1].phyLayer.phyHeaderChecker outgoingPacketLengths:sum 34002432
scalar ClockDriftShowcase.switch1.eth[1].phyLayer.phyHeaderChecker flowOutgoingPacketLengths:sum 0
scalar ClockDriftShowcase.switch1.eth[1].phyLayer.phyHeaderChecker incomingPackets:count 5024
scalar ClockDriftShowcase.switch1.eth[1].phyLayer.phyHeaderChecker incomingPacketLengths:sum 34323968
scalar ClockDriftShowcase.switch1.eth[1].phyLayer.phyHeaderChecker flowIncomingPacketLengths:sum 0
scalar ClockDriftShowcase.switch1.eth[1].phyLayer.phyHeaderChecker droppedPackets:count 0
scalar ClockDriftShowcase.switch1.eth[1].phyLayer.phyHeaderChecker droppedPacketLengths:sum 0
scalar ClockDriftShowcase.switch1.eth[1].phyLayer.phyHeaderChecker flowDroppedPacketLengths:sum 0
scalar ClockDriftShowcase.switch1.eth[1].phyLayer.inboundEmitter outgoingPackets:count 5024
scalar ClockDriftShowcase.switch1.eth[1].phyLayer.inboundEmitter outgoingPacketLengths:sum 34323968
scalar ClockDriftShowcase.switch1.eth[1].phyLayer.inboundEmitter flowOutgoingPacketLengths:sum 0
scalar ClockDriftShowcase.switch1.eth[1].phyLayer.inboundEmitter incomingPackets:count 5024
scalar ClockDriftShowcase.switch1.eth[1].phyLayer.inboundEmitter incomingPacketLengths:sum 34323968
scalar ClockDriftShowcase.switch1.eth[1].phyLayer.inboundEmitter flowIncomingPacketLengths:sum 0
scalar ClockDriftShowcase.switch1.eth[1] packetDropInterfaceDown:count 0
scalar ClockDriftShowcase.switch1.eth[1] packetDropInterfaceDown:sum(packetBytes) 0
scalar ClockDriftShowcase.switch1.eth[1] packetDropNoCarrier:count 0
scalar ClockDriftShowcase.switch1.eth[1] packetDropNoCarrier:sum(packetBytes) 0
scalar ClockDriftShowcase.switch1.eth[2].macLayer.queue queueLength:last 0
scalar ClockDriftShowcase.switch1.eth[2].macLayer.queue queueLength:max 0
scalar ClockDriftShowcase.switch1.eth[2].macLayer.queue queueLength:timeavg 0
scalar ClockDriftShowcase.switch1.eth[2].macLayer.queue queueBitLength:last 0
scalar ClockDriftShowcase.switch1.eth[2].macLayer.queue queueBitLength:max 0
scalar ClockDriftShowcase.switch1.eth[2].macLayer.queue queueBitLength:timeavg 0
scalar ClockDriftShowcase.switch1.eth[2].macLayer.queue outgoingPackets:count 0
scalar ClockDriftShowcase.switch1.eth[2].macLayer.queue outgoingPacketLengths:sum 0
scalar ClockDriftShowcase.switch1.eth[2].macLayer.queue incomingPackets:count 0
scalar ClockDriftShowcase.switch1.eth[2].macLayer.queue incomingPacketLengths:sum 0
scalar ClockDriftShowcase.switch1.eth[2].macLayer.queue droppedPacketsQueueOverflow:count 0
scalar ClockDriftShowcase.switch1.eth[2].macLayer.queue droppedPacketLengthsQueueOverflow:sum 0
scalar ClockDriftShowcase.switch1.eth[2].macLayer.server incomingPackets:count 0
scalar ClockDriftShowcase.switch1.eth[2].macLayer.server incomingPacketLengths:sum 0
scalar ClockDriftShowcase.switch1.eth[2].macLayer.server outgoingPackets:count 0
scalar ClockDriftShowcase.switch1.eth[2].macLayer.server outgoingPacketLengths:sum 0
scalar ClockDriftShowcase.switch1.eth[2].macLayer.outboundEmitter outgoingPackets:count 0
scalar ClockDriftShowcase.switch1.eth[2].macLayer.outboundEmitter outgoingPacketLengths:sum 0
scalar ClockDriftShowcase.switch1.eth[2].macLayer.outboundEmitter flowOutgoingPacketLengths:sum 0
scalar ClockDriftShowcase.switch1.eth[2].macLayer.outboundEmitter incomingPackets:count 0
scalar ClockDriftShowcase.switch1.eth[2].macLayer.outboundEmitter incomingPacketLengths:sum 0
scalar ClockDriftShowcase.switch1.eth[2].macLayer.outboundEmitter flowIncomingPacketLengths:sum 0
scalar ClockDriftShowcase.switch1.eth[2].macLayer.fcsChecker outgoingPackets:count 5024
scalar ClockDriftShowcase.switch1.eth[2].macLayer.fcsChecker outgoingPacketLengths:sum 34002432
scalar ClockDriftShowcase.switch1.eth[2].macLayer.fcsChecker flowOutgoingPacketLengths:sum 0
scalar ClockDriftShowcase.switch1.eth[2].macLayer.fcsChecker incomingPackets:count 5024
scalar ClockDriftShowcase.switch1.eth[2].macLayer.fcsChecker incomingPacketLengths:sum 34002432
scalar ClockDriftShowcase.switch1.eth[2].macLayer.fcsChecker flowIncomingPacketLengths:sum 0
scalar ClockDriftShowcase.switch1.eth[2].macLayer.fcsChecker droppedPackets:count 0
scalar ClockDriftShowcase.switch1.eth[2].macLayer.fcsChecker droppedPacketLengths:sum 0
scalar ClockDriftShowcase.switch1.eth[2].macLayer.fcsChecker flowDroppedPacketLengths:sum 0
scalar ClockDriftShowcase.switch1.eth[2].macLayer.inboundEmitter outgoingPackets:count 5024
scalar ClockDriftShowcase.switch1.eth[2].macLayer.inboundEmitter outgoingPacketLengths:sum 34002432
scalar ClockDriftShowcase.switch1.eth[2].macLayer.inboundEmitter flowOutgoingPacketLengths:sum 0
scalar ClockDriftShowcase.switch1.eth[2].macLayer.inboundEmitter incomingPackets:count 5024
scalar ClockDriftShowcase.switch1.eth[2].macLayer.inboundEmitter incomingPacketLengths:sum 34002432
scalar ClockDriftShowcase.switch1.eth[2].macLayer.inboundEmitter flowIncomingPacketLengths:sum 0
scalar ClockDriftShowcase.switch1.eth[2].phyLayer.phyHeaderInserter outgoingPackets:count 0
scalar ClockDriftShowcase.switch1.eth[2].phyLayer.phyHeaderInserter outgoingPacketLengths:sum 0
scalar ClockDriftShowcase.switch1.eth[2].phyLayer.phyHeaderInserter flowOutgoingPacketLengths:sum 0
scalar ClockDriftShowcase.switch1.eth[2].phyLayer.phyHeaderInserter incomingPackets:count 0
scalar ClockDriftShowcase.switch1.eth[2].phyLayer.phyHeaderInserter incomingPacketLengths:sum 0
scalar ClockDriftShowcase.switch1.eth[2].phyLayer.phyHeaderInserter flowIncomingPacketLengths:sum 0
scalar ClockDriftShowcase.switch1.eth[2].phyLayer.outboundEmitter outgoingPackets:count 0
scalar ClockDriftShowcase.switch1.eth[2].phyLayer.outboundEmitter outgoingPacketLengths:sum 0
scalar ClockDriftShowcase.switch1.eth[2].phyLayer.outboundEmitter flowOutgoingPacketLengths:sum 0
scalar ClockDriftShowcase.switch1.eth[2].phyLayer.outboundEmitter incomingPackets:count 0
scalar ClockDriftShowcase.switch1.eth[2].phyLayer.outboundEmitter incomingPacketLengths:sum 0
scalar ClockDriftShowcase.switch1.eth[2].phyLayer.outboundEmitter flowIncomingPacketLengths:sum 0
scalar ClockDriftShowcase.switch1.eth[2].phyLayer.transmitter propagationTime 5e-08
scalar ClockDriftShowcase.switch1.eth[2].phyLayer.phyHeaderChecker outgoingPackets:count 5024
scalar ClockDriftShowcase.switch1.eth[2].phyLayer.phyHeaderChecker outgoingPacketLengths:sum 34002432
scalar ClockDriftShowcase.switch1.eth[2].phyLayer.phyHeaderChecker flowOutgoingPacketLengths:sum 0
scalar ClockDriftShowcase.switch1.eth[2].phyLayer.phyHeaderChecker incomingPackets:count 5024
scalar ClockDriftShowcase.switch1.eth[2].phyLayer.phyHeaderChecker incomingPacketLengths:sum 34323968
scalar ClockDriftShowcase.switch1.eth[2].phyLayer.phyHeaderChecker flowIncomingPacketLengths:sum 0
scalar ClockDriftShowcase.switch1.eth[2].phyLayer.phyHeaderChecker droppedPackets:count 0
scalar ClockDriftShowcase.switch1.eth[2].phyLayer.phyHeaderChecker droppedPacketLengths:sum 0
scalar ClockDriftShowcase.switch1.eth[2].phyLayer.phyHeaderChecker flowDroppedPacketLengths:sum 0
scalar ClockDriftShowcase.switch1.eth[2].phyLayer.inboundEmitter outgoingPackets:count 5024
scalar ClockDriftShowcase.switch1.eth[2].phyLayer.inboundEmitter outgoingPacketLengths:sum 34323968
scalar ClockDriftShowcase.switch1.eth[2].phyLayer.inboundEmitter flowOutgoingPacketLengths:sum 0
scalar ClockDriftShowcase.switch1.eth[2].phyLayer.inboundEmitter incomingPackets:count 5024
scalar ClockDriftShowcase.switch1.eth[2].phyLayer.inboundEmitter incomingPacketLengths:sum 34323968
scalar ClockDriftShowcase.switch1.eth[2].phyLayer.inboundEmitter flowIncomingPacketLengths:sum 0
scalar ClockDriftShowcase.switch1.eth[2] packetDropInterfaceDown:count 0
scalar ClockDriftShowcase.switch1.eth[2] packetDropInterfaceDown:sum(packetBytes) 0
scalar ClockDriftShowcase.switch1.eth[2] packetDropNoCarrier:count 0
scalar ClockDriftShowcase.switch1.eth[2] packetDropNoCarrier:sum(packetBytes) 0
scalar ClockDriftShowcase.switch2.bridging "processed frames" 0
scalar ClockDriftShowcase.switch2.bridging "discarded frames" 0
scalar ClockDriftShowcase.switch2.bridging "number of received BPDUs from STP module" 0
scalar ClockDriftShowcase.switch2.bridging "number of received frames from network (including BPDUs)" 10047
scalar ClockDriftShowcase.switch2.bridging "number of dropped frames (including BPDUs)" 0
scalar ClockDriftShowcase.switch2.bridging "number of delivered BPDUs to the STP module" 0
scalar ClockDriftShowcase.switch2.bridging "number of dispatched BPDU frames to the network" 0
scalar ClockDriftShowcase.switch2.bridging "number of dispatched non-BDPU frames to the network" 0
scalar ClockDriftShowcase.switch2.bridging packetDropped:count 0
scalar ClockDriftShowcase.switch2.bridging packetDropped:sum(packetBytes) 0
scalar ClockDriftShowcase.switch2.ethernet.macHeaderInserter outgoingPackets:count 10047
scalar ClockDriftShowcase.switch2.ethernet.macHeaderInserter outgoingPacketLengths:sum 67676592
scalar ClockDriftShowcase.switch2.ethernet.macHeaderInserter flowOutgoingPacketLengths:sum 0
scalar ClockDriftShowcase.switch2.ethernet.macHeaderInserter incomingPackets:count 10047
scalar ClockDriftShowcase.switch2.ethernet.macHeaderInserter incomingPacketLengths:sum 66551328
scalar ClockDriftShowcase.switch2.ethernet.macHeaderInserter flowIncomingPacketLengths:sum 0
scalar ClockDriftShowcase.switch2.ethernet.paddingInserter outgoingPackets:count 10047
scalar ClockDriftShowcase.switch2.ethernet.paddingInserter outgoingPacketLengths:sum 67676592
scalar ClockDriftShowcase.switch2.ethernet.paddingInserter flowOutgoingPacketLengths:sum 0
scalar ClockDriftShowcase.switch2.ethernet.paddingInserter incomingPackets:count 10047
scalar ClockDriftShowcase.switch2.ethernet.paddingInserter incomingPacketLengths:sum 67676592
scalar ClockDriftShowcase.switch2.ethernet.paddingInserter flowIncomingPacketLengths:sum 0
scalar ClockDriftShowcase.switch2.ethernet.fcsInserter outgoingPackets:count 10047
scalar ClockDriftShowcase.switch2.ethernet.fcsInserter outgoingPacketLengths:sum 67998096
scalar ClockDriftShowcase.switch2.ethernet.fcsInserter flowOutgoingPacketLengths:sum 0
scalar ClockDriftShowcase.switch2.ethernet.fcsInserter incomingPackets:count 10047
scalar ClockDriftShowcase.switch2.ethernet.fcsInserter incomingPacketLengths:sum 67676592
scalar ClockDriftShowcase.switch2.ethernet.fcsInserter flowIncomingPacketLengths:sum 0
scalar ClockDriftShowcase.switch2.ethernet.macHeaderChecker outgoingPackets:count 10047
scalar ClockDriftShowcase.switch2.ethernet.macHeaderChecker outgoingPacketLengths:sum 66551328
scalar ClockDriftShowcase.switch2.ethernet.macHeaderChecker flowOutgoingPacketLengths:sum 0
scalar ClockDriftShowcase.switch2.ethernet.macHeaderChecker incomingPackets:count 10047
scalar ClockDriftShowcase.switch2.ethernet.macHeaderChecker incomingPacketLengths:sum 67676592
scalar ClockDriftShowcase.switch2.ethernet.macHeaderChecker flowIncomingPacketLengths:sum 0
scalar ClockDriftShowcase.switch2.ethernet.macHeaderChecker droppedPackets:count 0
scalar ClockDriftShowcase.switch2.ethernet.macHeaderChecker droppedPacketLengths:sum 0
scalar ClockDriftShowcase.switch2.ethernet.macHeaderChecker flowDroppedPacketLengths:sum 0
scalar ClockDriftShowcase.switch2.ethernet.fcsChecker outgoingPackets:count 10047
scalar ClockDriftShowcase.switch2.ethernet.fcsChecker outgoingPacketLengths:sum 67676592
scalar ClockDriftShowcase.switch2.ethernet.fcsChecker flowOutgoingPacketLengths:sum 0
scalar ClockDriftShowcase.switch2.ethernet.fcsChecker incomingPackets:count 10047
scalar ClockDriftShowcase.switch2.ethernet.fcsChecker incomingPacketLengths:sum 67998096
scalar ClockDriftShowcase.switch2.ethernet.fcsChecker flowIncomingPacketLengths:sum 0
scalar ClockDriftShowcase.switch2.ethernet.fcsChecker droppedPackets:count 0
scalar ClockDriftShowcase.switch2.ethernet.fcsChecker droppedPacketLengths:sum 0
scalar ClockDriftShowcase.switch2.ethernet.fcsChecker flowDroppedPacketLengths:sum 0
scalar ClockDriftShowcase.switch2.eth[0].macLayer.queue queueLength:last 0
scalar ClockDriftShowcase.switch2.eth[0].macLayer.queue queueLength:max 0
scalar ClockDriftShowcase.switch2.eth[0].macLayer.queue queueLength:timeavg 0
scalar ClockDriftShowcase.switch2.eth[0].macLayer.queue queueBitLength:last 0
scalar ClockDriftShowcase.switch2.eth[0].macLayer.queue queueBitLength:max 0
scalar ClockDriftShowcase.switch2.eth[0].macLayer.queue queueBitLength:timeavg 0
scalar ClockDriftShowcase.switch2.eth[0].macLayer.queue outgoingPackets:count 0
scalar ClockDriftShowcase.switch2.eth[0].macLayer.queue outgoingPacketLengths:sum 0
scalar ClockDriftShowcase.switch2.eth[0].macLayer.queue incomingPackets:count 0
scalar ClockDriftShowcase.switch2.eth[0].macLayer.queue incomingPacketLengths:sum 0
scalar ClockDriftShowcase.switch2.eth[0].macLayer.queue droppedPacketsQueueOverflow:count 0
scalar ClockDriftShowcase.switch2.eth[0].macLayer.queue droppedPacketLengthsQueueOverflow:sum 0
scalar ClockDriftShowcase.switch2.eth[0].macLayer.server incomingPackets:count 0
scalar ClockDriftShowcase.switch2.eth[0].macLayer.server incomingPacketLengths:sum 0
scalar ClockDriftShowcase.switch2.eth[0].macLayer.server outgoingPackets:count 0
scalar ClockDriftShowcase.switch2.eth[0].macLayer.server outgoingPacketLengths:sum 0
scalar ClockDriftShowcase.switch2.eth[0].macLayer.outboundEmitter outgoingPackets:count 0
scalar ClockDriftShowcase.switch2.eth[0].macLayer.outboundEmitter outgoingPacketLengths:sum 0
scalar ClockDriftShowcase.switch2.eth[0].macLayer.outboundEmitter flowOutgoingPacketLengths:sum 0
scalar ClockDriftShowcase.switch2.eth[0].macLayer.outboundEmitter incomingPackets:count 0
scalar ClockDriftShowcase.switch2.eth[0].macLayer.outboundEmitter incomingPacketLengths:sum 0
scalar ClockDriftShowcase.switch2.eth[0].macLayer.outboundEmitter flowIncomingPacketLengths:sum 0
scalar ClockDriftShowcase.switch2.eth[0].macLayer.fcsChecker outgoingPackets:count 10047
scalar ClockDriftShowcase.switch2.eth[0].macLayer.fcsChecker outgoingPacketLengths:sum 67998096
scalar ClockDriftShowcase.switch2.eth[0].macLayer.fcsChecker flowOutgoingPacketLengths:sum 0
scalar ClockDriftShowcase.switch2.eth[0].macLayer.fcsChecker incomingPackets:count 10047
scalar ClockDriftShowcase.switch2.eth[0].macLayer.fcsChecker incomingPacketLengths:sum 67998096
scalar ClockDriftShowcase.switch2.eth[0].macLayer.fcsChecker flowIncomingPacketLengths:sum 0
scalar ClockDriftShowcase.switch2.eth[0].macLayer.fcsChecker droppedPackets:count 0
scalar ClockDriftShowcase.switch2.eth[0].macLayer.fcsChecker droppedPacketLengths:sum 0
scalar ClockDriftShowcase.switch2.eth[0].macLayer.fcsChecker flowDroppedPacketLengths:sum 0
scalar ClockDriftShowcase.switch2.eth[0].macLayer.inboundEmitter outgoingPackets:count 10047
scalar ClockDriftShowcase.switch2.eth[0].macLayer.inboundEmitter outgoingPacketLengths:sum 67998096
scalar ClockDriftShowcase.switch2.eth[0].macLayer.inboundEmitter flowOutgoingPacketLengths:sum 0
scalar ClockDriftShowcase.switch2.eth[0].macLayer.inboundEmitter incomingPackets:count 10047
scalar ClockDriftShowcase.switch2.eth[0].macLayer.inboundEmitter incomingPacketLengths:sum 67998096
scalar ClockDriftShowcase.switch2.eth[0].macLayer.inboundEmitter flowIncomingPacketLengths:sum 0
scalar ClockDriftShowcase.switch2.eth[0].phyLayer.phyHeaderInserter outgoingPackets:count 0
scalar ClockDriftShowcase.switch2.eth[0].phyLayer.phyHeaderInserter outgoingPacketLengths:sum 0
scalar ClockDriftShowcase.switch2.eth[0].phyLayer.phyHeaderInserter flowOutgoingPacketLengths:sum 0
scalar ClockDriftShowcase.switch2.eth[0].phyLayer.phyHeaderInserter incomingPackets:count 0
scalar ClockDriftShowcase.switch2.eth[0].phyLayer.phyHeaderInserter incomingPacketLengths:sum 0
scalar ClockDriftShowcase.switch2.eth[0].phyLayer.phyHeaderInserter flowIncomingPacketLengths:sum 0
scalar ClockDriftShowcase.switch2.eth[0].phyLayer.outboundEmitter outgoingPackets:count 0
scalar ClockDriftShowcase.switch2.eth[0].phyLayer.outboundEmitter outgoingPacketLengths:sum 0
scalar ClockDriftShowcase.switch2.eth[0].phyLayer.outboundEmitter flowOutgoingPacketLengths:sum 0
scalar ClockDriftShowcase.switch2.eth[0].phyLayer.outboundEmitter incomingPackets:count 0
scalar ClockDriftShowcase.switch2.eth[0].phyLayer.outboundEmitter incomingPacketLengths:sum 0
scalar ClockDriftShowcase.switch2.eth[0].phyLayer.outboundEmitter flowIncomingPacketLengths:sum 0
scalar ClockDriftShowcase.switch2.eth[0].phyLayer.transmitter propagationTime 5e-08
scalar ClockDriftShowcase.switch2.eth[0].phyLayer.phyHeaderChecker outgoingPackets:count 10047
scalar ClockDriftShowcase.switch2.eth[0].phyLayer.phyHeaderChecker outgoingPacketLengths:sum 67998096
scalar ClockDriftShowcase.switch2.eth[0].phyLayer.phyHeaderChecker flowOutgoingPacketLengths:sum 0
scalar ClockDriftShowcase.switch2.eth[0].phyLayer.phyHeaderChecker incomingPackets:count 10047
scalar ClockDriftShowcase.switch2.eth[0].phyLayer.phyHeaderChecker incomingPacketLengths:sum 68641104
scalar ClockDriftShowcase.switch2.eth[0].phyLayer.phyHeaderChecker flowIncomingPacketLengths:sum 0
scalar ClockDriftShowcase.switch2.eth[0].phyLayer.phyHeaderChecker droppedPackets:count 0
scalar ClockDriftShowcase.switch2.eth[0].phyLayer.phyHeaderChecker droppedPacketLengths:sum 0
scalar ClockDriftShowcase.switch2.eth[0].phyLayer.phyHeaderChecker flowDroppedPacketLengths:sum 0
scalar ClockDriftShowcase.switch2.eth[0].phyLayer.inboundEmitter outgoingPackets:count 10047
scalar ClockDriftShowcase.switch2.eth[0].phyLayer.inboundEmitter outgoingPacketLengths:sum 68641104
scalar ClockDriftShowcase.switch2.eth[0].phyLayer.inboundEmitter flowOutgoingPacketLengths:sum 0
scalar ClockDriftShowcase.switch2.eth[0].phyLayer.inboundEmitter incomingPackets:count 10047
scalar ClockDriftShowcase.switch2.eth[0].phyLayer.inboundEmitter incomingPacketLengths:sum 68641104
scalar ClockDriftShowcase.switch2.eth[0].phyLayer.inboundEmitter flowIncomingPacketLengths:sum 0
scalar ClockDriftShowcase.switch2.eth[0] packetDropInterfaceDown:count 0
scalar ClockDriftShowcase.switch2.eth[0] packetDropInterfaceDown:sum(packetBytes) 0
scalar ClockDriftShowcase.switch2.eth[0] packetDropNoCarrier:count 0
scalar ClockDriftShowcase.switch2.eth[0] packetDropNoCarrier:sum(packetBytes) 0
scalar ClockDriftShowcase.switch2.eth[1].macLayer.queue queueLength:last 0
scalar ClockDriftShowcase.switch2.eth[1].macLayer.queue queueLength:max 1
scalar ClockDriftShowcase.switch2.eth[1].macLayer.queue queueLength:timeavg 0
scalar ClockDriftShowcase.switch2.eth[1].macLayer.queue queueBitLength:last 0
scalar ClockDriftShowcase.switch2.eth[1].macLayer.queue queueBitLength:max 6768
scalar ClockDriftShowcase.switch2.eth[1].macLayer.queue queueBitLength:timeavg 0
scalar ClockDriftShowcase.switch2.eth[1].macLayer.queue outgoingPackets:count 5024
scalar ClockDriftShowcase.switch2.eth[1].macLayer.queue outgoingPacketLengths:sum 34002432
scalar ClockDriftShowcase.switch2.eth[1].macLayer.queue incomingPackets:count 5024
scalar ClockDriftShowcase.switch2.eth[1].macLayer.queue incomingPacketLengths:sum 34002432
scalar ClockDriftShowcase.switch2.eth[1].macLayer.queue droppedPacketsQueueOverflow:count 0
scalar ClockDriftShowcase.switch2.eth[1].macLayer.queue droppedPacketLengthsQueueOverflow:sum 0
scalar ClockDriftShowcase.switch2.eth[1].macLayer.server incomingPackets:count 5024
scalar ClockDriftShowcase.switch2.eth[1].macLayer.server incomingPacketLengths:sum 34002432
scalar ClockDriftShowcase.switch2.eth[1].macLayer.server outgoingPackets:count 5024
scalar ClockDriftShowcase.switch2.eth[1].macLayer.server outgoingPacketLengths:sum 34002432
scalar ClockDriftShowcase.switch2.eth[1].macLayer.outboundEmitter outgoingPackets:count 5024
scalar ClockDriftShowcase.switch2.eth[1].macLayer.outboundEmitter outgoingPacketLengths:sum 34002432
scalar ClockDriftShowcase.switch2.eth[1].macLayer.outboundEmitter flowOutgoingPacketLengths:sum 0
scalar ClockDriftShowcase.switch2.eth[1].macLayer.outboundEmitter incomingPackets:count 5024
scalar ClockDriftShowcase.switch2.eth[1].macLayer.outboundEmitter incomingPacketLengths:sum 34002432
scalar ClockDriftShowcase.switch2.eth[1].macLayer.outboundEmitter flowIncomingPacketLengths:sum 0
scalar ClockDriftShowcase.switch2.eth[1].macLayer.fcsChecker outgoingPackets:count 0
scalar ClockDriftShowcase.switch2.eth[1].macLayer.fcsChecker outgoingPacketLengths:sum 0
scalar ClockDriftShowcase.switch2.eth[1].macLayer.fcsChecker flowOutgoingPacketLengths:sum 0
scalar ClockDriftShowcase.switch2.eth[1].macLayer.fcsChecker incomingPackets:count 0
scalar ClockDriftShowcase.switch2.eth[1].macLayer.fcsChecker incomingPacketLengths:sum 0
scalar ClockDriftShowcase.switch2.eth[1].macLayer.fcsChecker flowIncomingPacketLengths:sum 0
scalar ClockDriftShowcase.switch2.eth[1].macLayer.fcsChecker droppedPackets:count 0
scalar ClockDriftShowcase.switch2.eth[1].macLayer.fcsChecker droppedPacketLengths:sum 0
scalar ClockDriftShowcase.switch2.eth[1].macLayer.fcsChecker flowDroppedPacketLengths:sum 0
scalar ClockDriftShowcase.switch2.eth[1].macLayer.inboundEmitter outgoingPackets:count 0
scalar ClockDriftShowcase.switch2.eth[1].macLayer.inboundEmitter outgoingPacketLengths:sum 0
scalar ClockDriftShowcase.switch2.eth[1].macLayer.inboundEmitter flowOutgoingPacketLengths:sum 0
scalar ClockDriftShowcase.switch2.eth[1].macLayer.inboundEmitter incomingPackets:count 0
scalar ClockDriftShowcase.switch2.eth[1].macLayer.inboundEmitter incomingPacketLengths:sum 0
scalar ClockDriftShowcase.switch2.eth[1].macLayer.inboundEmitter flowIncomingPacketLengths:sum 0
scalar ClockDriftShowcase.switch2.eth[1].phyLayer.phyHeaderInserter outgoingPackets:count 5024
scalar ClockDriftShowcase.switch2.eth[1].phyLayer.phyHeaderInserter outgoingPacketLengths:sum 34323968
scalar ClockDriftShowcase.switch2.eth[1].phyLayer.phyHeaderInserter flowOutgoingPacketLengths:sum 0
scalar ClockDriftShowcase.switch2.eth[1].phyLayer.phyHeaderInserter incomingPackets:count 5024
scalar ClockDriftShowcase.switch2.eth[1].phyLayer.phyHeaderInserter incomingPacketLengths:sum 34002432
scalar ClockDriftShowcase.switch2.eth[1].phyLayer.phyHeaderInserter flowIncomingPacketLengths:sum 0
scalar ClockDriftShowcase.switch2.eth[1].phyLayer.outboundEmitter outgoingPackets:count 5024
scalar ClockDriftShowcase.switch2.eth[1].phyLayer.outboundEmitter outgoingPacketLengths:sum 34323968
scalar ClockDriftShowcase.switch2.eth[1].phyLayer.outboundEmitter flowOutgoingPacketLengths:sum 0
scalar ClockDriftShowcase.switch2.eth[1].phyLayer.outboundEmitter incomingPackets:count 5024
scalar ClockDriftShowcase.switch2.eth[1].phyLayer.outboundEmitter incomingPacketLengths:sum 34323968
scalar ClockDriftShowcase.switch2.eth[1].phyLayer.outboundEmitter flowIncomingPacketLengths:sum 0
scalar ClockDriftShowcase.switch2.eth[1].phyLayer.transmitter propagationTime 5e-08
scalar ClockDriftShowcase.switch2.eth[1].phyLayer.phyHeaderChecker outgoingPackets:count 0
scalar ClockDriftShowcase.switch2.eth[1].phyLayer.phyHeaderChecker outgoingPacketLengths:sum 0
scalar ClockDriftShowcase.switch2.eth[1].phyLayer.phyHeaderChecker flowOutgoingPacketLengths:sum 0
scalar ClockDriftShowcase.switch2.eth[1].phyLayer.phyHeaderChecker incomingPackets:count 0
scalar ClockDriftShowcase.switch2.eth[1].phyLayer.phyHeaderChecker incomingPacketLengths:sum 0
scalar ClockDriftShowcase.switch2.eth[1].phyLayer.phyHeaderChecker flowIncomingPacketLengths:sum 0
scalar ClockDriftShowcase.switch2.eth[1].phyLayer.phyHeaderChecker droppedPackets:count 0
scalar ClockDriftShowcase.switch2.eth[1].phyLayer.phyHeaderChecker droppedPacketLengths:sum 0
scalar ClockDriftShowcase.switch2.eth[1].phyLayer.phyHeaderChecker flowDroppedPacketLengths:sum 0
scalar ClockDriftShowcase.switch2.eth[1].phyLayer.inboundEmitter outgoingPackets:count 0
scalar ClockDriftShowcase.switch2.eth[1].phyLayer.inboundEmitter outgoingPacketLengths:sum 0
scalar ClockDriftShowcase.switch2.eth[1].phyLayer.inboundEmitter flowOutgoingPacketLengths:sum 0
scalar ClockDriftShowcase.switch2.eth[1].phyLayer.inboundEmitter incomingPackets:count 0
scalar ClockDriftShowcase.switch2.eth[1].phyLayer.inboundEmitter incomingPacketLengths:sum 0
scalar ClockDriftShowcase.switch2.eth[1].phyLayer.inboundEmitter flowIncomingPacketLengths:sum 0
scalar ClockDriftShowcase.switch2.eth[1] packetDropInterfaceDown:count 0
scalar ClockDriftShowcase.switch2.eth[1] packetDropInterfaceDown:sum(packetBytes) 0
scalar ClockDriftShowcase.switch2.eth[1] packetDropNoCarrier:count 0
scalar ClockDriftShowcase.switch2.eth[1] packetDropNoCarrier:sum(packetBytes) 0
scalar ClockDriftShowcase.switch2.eth[2].macLayer.queue queueLength:last 0
scalar ClockDriftShowcase.switch2.eth[2].macLayer.queue queueLength:max 1
scalar ClockDriftShowcase.switch2.eth[2].macLayer.queue queueLength:timeavg 0
scalar ClockDriftShowcase.switch2.eth[2].macLayer.queue queueBitLength:last 0
scalar ClockDriftShowcase.switch2.eth[2].macLayer.queue queueBitLength:max 6768
scalar ClockDriftShowcase.switch2.eth[2].macLayer.queue queueBitLength:timeavg 0
scalar ClockDriftShowcase.switch2.eth[2].macLayer.queue outgoingPackets:count 5023
scalar ClockDriftShowcase.switch2.eth[2].macLayer.queue outgoingPacketLengths:sum 33995664
scalar ClockDriftShowcase.switch2.eth[2].macLayer.queue incomingPackets:count 5023
scalar ClockDriftShowcase.switch2.eth[2].macLayer.queue incomingPacketLengths:sum 33995664
scalar ClockDriftShowcase.switch2.eth[2].macLayer.queue droppedPacketsQueueOverflow:count 0
scalar ClockDriftShowcase.switch2.eth[2].macLayer.queue droppedPacketLengthsQueueOverflow:sum 0
scalar ClockDriftShowcase.switch2.eth[2].macLayer.server incomingPackets:count 5023
scalar ClockDriftShowcase.switch2.eth[2].macLayer.server incomingPacketLengths:sum 33995664
scalar ClockDriftShowcase.switch2.eth[2].macLayer.server outgoingPackets:count 5023
scalar ClockDriftShowcase.switch2.eth[2].macLayer.server outgoingPacketLengths:sum 33995664
scalar ClockDriftShowcase.switch2.eth[2].macLayer.outboundEmitter outgoingPackets:count 5023
scalar ClockDriftShowcase.switch2.eth[2].macLayer.outboundEmitter outgoingPacketLengths:sum 33995664
scalar ClockDriftShowcase.switch2.eth[2].macLayer.outboundEmitter flowOutgoingPacketLengths:sum 0
scalar ClockDriftShowcase.switch2.eth[2].macLayer.outboundEmitter incomingPackets:count 5023
scalar ClockDriftShowcase.switch2.eth[2].macLayer.outboundEmitter incomingPacketLengths:sum 33995664
scalar ClockDriftShowcase.switch2.eth[2].macLayer.outboundEmitter flowIncomingPacketLengths:sum 0
scalar ClockDriftShowcase.switch2.eth[2].macLayer.fcsChecker outgoingPackets:count 0
scalar ClockDriftShowcase.switch2.eth[2].macLayer.fcsChecker outgoingPacketLengths:sum 0
scalar ClockDriftShowcase.switch2.eth[2].macLayer.fcsChecker flowOutgoingPacketLengths:sum 0
scalar ClockDriftShowcase.switch2.eth[2].macLayer.fcsChecker incomingPackets:count 0
scalar ClockDriftShowcase.switch2.eth[2].macLayer.fcsChecker incomingPacketLengths:sum 0
scalar ClockDriftShowcase.switch2.eth[2].macLayer.fcsChecker flowIncomingPacketLengths:sum 0
scalar ClockDriftShowcase.switch2.eth[2].macLayer.fcsChecker droppedPackets:count 0
scalar ClockDriftShowcase.switch2.eth[2].macLayer.fcsChecker droppedPacketLengths:sum 0
scalar ClockDriftShowcase.switch2.eth[2].macLayer.fcsChecker flowDroppedPacketLengths:sum 0
scalar ClockDriftShowcase.switch2.eth[2].macLayer.inboundEmitter outgoingPackets:count 0
scalar ClockDriftShowcase.switch2.eth[2].macLayer.inboundEmitter outgoingPacketLengths:sum 0
scalar ClockDriftShowcase.switch2.eth[2].macLayer.inboundEmitter flowOutgoingPacketLengths:sum 0
scalar ClockDriftShowcase.switch2.eth[2].macLayer.inboundEmitter incomingPackets:count 0
scalar ClockDriftShowcase.switch2.eth[2].macLayer.inboundEmitter incomingPacketLengths:sum 0
scalar ClockDriftShowcase.switch2.eth[2].macLayer.inboundEmitter flowIncomingPacketLengths:sum 0
scalar ClockDriftShowcase.switch2.eth[2].phyLayer.phyHeaderInserter outgoingPackets:count 5023
scalar ClockDriftShowcase.switch2.eth[2].phyLayer.phyHeaderInserter outgoingPacketLengths:sum 34317136
scalar ClockDriftShowcase.switch2.eth[2].phyLayer.phyHeaderInserter flowOutgoingPacketLengths:sum 0
scalar ClockDriftShowcase.switch2.eth[2].phyLayer.phyHeaderInserter incomingPackets:count 5023
scalar ClockDriftShowcase.switch2.eth[2].phyLayer.phyHeaderInserter incomingPacketLengths:sum 33995664
scalar ClockDriftShowcase.switch2.eth[2].phyLayer.phyHeaderInserter flowIncomingPacketLengths:sum 0
scalar ClockDriftShowcase.switch2.eth[2].phyLayer.outboundEmitter outgoingPackets:count 5023
scalar ClockDriftShowcase.switch2.eth[2].phyLayer.outboundEmitter outgoingPacketLengths:sum 34317136
scalar ClockDriftShowcase.switch2.eth[2].phyLayer.outboundEmitter flowOutgoingPacketLengths:sum 0
scalar ClockDriftShowcase.switch2.eth[2].phyLayer.outboundEmitter incomingPackets:count 5023
scalar ClockDriftShowcase.switch2.eth[2].phyLayer.outboundEmitter incomingPacketLengths:sum 34317136
scalar ClockDriftShowcase.switch2.eth[2].phyLayer.outboundEmitter flowIncomingPacketLengths:sum 0
scalar ClockDriftShowcase.switch2.eth[2].phyLayer.transmitter propagationTime 5e-08
scalar ClockDriftShowcase.switch2.eth[2].phyLayer.phyHeaderChecker outgoingPackets:count 0
scalar ClockDriftShowcase.switch2.eth[2].phyLayer.phyHeaderChecker outgoingPacketLengths:sum 0
scalar ClockDriftShowcase.switch2.eth[2].phyLayer.phyHeaderChecker flowOutgoingPacketLengths:sum 0
scalar ClockDriftShowcase.switch2.eth[2].phyLayer.phyHeaderChecker incomingPackets:count 0
scalar ClockDriftShowcase.switch2.eth[2].phyLayer.phyHeaderChecker incomingPacketLengths:sum 0
scalar ClockDriftShowcase.switch2.eth[2].phyLayer.phyHeaderChecker flowIncomingPacketLengths:sum 0
scalar ClockDriftShowcase.switch2.eth[2].phyLayer.phyHeaderChecker droppedPackets:count 0
scalar ClockDriftShowcase.switch2.eth[2].phyLayer.phyHeaderChecker droppedPacketLengths:sum 0
scalar ClockDriftShowcase.switch2.eth[2].phyLayer.phyHeaderChecker flowDroppedPacketLengths:sum 0
scalar ClockDriftShowcase.switch2.eth[2].phyLayer.inboundEmitter outgoingPackets:count 0
scalar ClockDriftShowcase.switch2.eth[2].phyLayer.inboundEmitter outgoingPacketLengths:sum 0
scalar ClockDriftShowcase.switch2.eth[2].phyLayer.inboundEmitter flowOutgoingPacketLengths:sum 0
scalar ClockDriftShowcase.switch2.eth[2].phyLayer.inboundEmitter incomingPackets:count 0
scalar ClockDriftShowcase.switch2.eth[2].phyLayer.inboundEmitter incomingPacketLengths:sum 0
scalar ClockDriftShowcase.switch2.eth[2].phyLayer.inboundEmitter flowIncomingPacketLengths:sum 0
scalar ClockDriftShowcase.switch2.eth[2] packetDropInterfaceDown:count 0
scalar ClockDriftShowcase.switch2.eth[2] packetDropInterfaceDown:sum(packetBytes) 0
scalar ClockDriftShowcase.switch2.eth[2] packetDropNoCarrier:count 0
scalar ClockDriftShowcase.switch2.eth[2] packetDropNoCarrier:sum(packetBytes) 0
scalar ClockDriftShowcase.sink1.ethernet.macHeaderInserter outgoingPackets:count 0
scalar ClockDriftShowcase.sink1.ethernet.macHeaderInserter outgoingPacketLengths:sum 0
scalar ClockDriftShowcase.sink1.ethernet.macHeaderInserter flowOutgoingPacketLengths:sum 0
scalar ClockDriftShowcase.sink1.ethernet.macHeaderInserter incomingPackets:count 0
scalar ClockDriftShowcase.sink1.ethernet.macHeaderInserter incomingPacketLengths:sum 0
scalar ClockDriftShowcase.sink1.ethernet.macHeaderInserter flowIncomingPacketLengths:sum 0
scalar ClockDriftShowcase.sink1.ethernet.paddingInserter outgoingPackets:count 0
scalar ClockDriftShowcase.sink1.ethernet.paddingInserter outgoingPacketLengths:sum 0
scalar ClockDriftShowcase.sink1.ethernet.paddingInserter flowOutgoingPacketLengths:sum 0
scalar ClockDriftShowcase.sink1.ethernet.paddingInserter incomingPackets:count 0
scalar ClockDriftShowcase.sink1.ethernet.paddingInserter incomingPacketLengths:sum 0
scalar ClockDriftShowcase.sink1.ethernet.paddingInserter flowIncomingPacketLengths:sum 0
scalar ClockDriftShowcase.sink1.ethernet.fcsInserter outgoingPackets:count 0
scalar ClockDriftShowcase.sink1.ethernet.fcsInserter outgoingPacketLengths:sum 0
scalar ClockDriftShowcase.sink1.ethernet.fcsInserter flowOutgoingPacketLengths:sum 0
scalar ClockDriftShowcase.sink1.ethernet.fcsInserter incomingPackets:count 0
scalar ClockDriftShowcase.sink1.ethernet.fcsInserter incomingPacketLengths:sum 0
scalar ClockDriftShowcase.sink1.ethernet.fcsInserter flowIncomingPacketLengths:sum 0
scalar ClockDriftShowcase.sink1.ethernet.macHeaderChecker outgoingPackets:count 5024
scalar ClockDriftShowcase.sink1.ethernet.macHeaderChecker outgoingPacketLengths:sum 33278976
scalar ClockDriftShowcase.sink1.ethernet.macHeaderChecker flowOutgoingPacketLengths:sum 0
scalar ClockDriftShowcase.sink1.ethernet.macHeaderChecker incomingPackets:count 5024
scalar ClockDriftShowcase.sink1.ethernet.macHeaderChecker incomingPacketLengths:sum 33841664
scalar ClockDriftShowcase.sink1.ethernet.macHeaderChecker flowIncomingPacketLengths:sum 0
scalar ClockDriftShowcase.sink1.ethernet.macHeaderChecker droppedPackets:count 0
scalar ClockDriftShowcase.sink1.ethernet.macHeaderChecker droppedPacketLengths:sum 0
scalar ClockDriftShowcase.sink1.ethernet.macHeaderChecker flowDroppedPacketLengths:sum 0
[...]
scalar ClockDriftShowcase.sink2.eth[0].phyLayer.receiver flowReceptionTime:vector:count 0
scalar ClockDriftShowcase.sink2.eth[0].phyLayer.receiver flowReceptionTime:vector:sum 0
scalar ClockDriftShowcase.sink2.eth[0].phyLayer.receiver flowReceptionTime:vector:sumweights 0
scalar ClockDriftShowcase.sink2.eth[0].phyLayer.receiver flowReceptionTime:vector:mean -nan
scalar ClockDriftShowcase.sink2.eth[0].phyLayer.receiver flowReceptionTime:vector:stddev nan
scalar ClockDriftShowcase.sink2.eth[0].phyLayer.receiver flowReceptionTime:vector:min inf
scalar ClockDriftShowcase.sink2.eth[0].phyLayer.receiver flowReceptionTime:vector:max -inf
scalar ClockDriftShowcase.sink2.eth[0].phyLayer.receiver flowReceptionTime:vector:starttime nan
scalar ClockDriftShowcase.sink2.eth[0].phyLayer.receiver flowReceptionTime:vector:endtime nan
scalar ClockDriftShowcase.sink2.eth[0] packetDropInterfaceDown:vector(packetBytes):count 0
scalar ClockDriftShowcase.sink2.eth[0] packetDropInterfaceDown:vector(packetBytes):sum 0
scalar ClockDriftShowcase.sink2.eth[0] packetDropInterfaceDown:vector(packetBytes):sumweights 0
scalar ClockDriftShowcase.sink2.eth[0] packetDropInterfaceDown:vector(packetBytes):mean -nan
scalar ClockDriftShowcase.sink2.eth[0] packetDropInterfaceDown:vector(packetBytes):stddev nan
scalar ClockDriftShowcase.sink2.eth[0] packetDropInterfaceDown:vector(packetBytes):min inf
scalar ClockDriftShowcase.sink2.eth[0] packetDropInterfaceDown:vector(packetBytes):max -inf
scalar ClockDriftShowcase.sink2.eth[0] packetDropInterfaceDown:vector(packetBytes):starttime nan
scalar ClockDriftShowcase.sink2.eth[0] packetDropInterfaceDown:vector(packetBytes):endtime nan
scalar ClockDriftShowcase.sink2.eth[0] packetDropNoCarrier:vector(packetBytes):count 0
scalar ClockDriftShowcase.sink2.eth[0] packetDropNoCarrier:vector(packetBytes):sum 0
scalar ClockDriftShowcase.sink2.eth[0] packetDropNoCarrier:vector(packetBytes):sumweights 0
scalar ClockDriftShowcase.sink2.eth[0] packetDropNoCarrier:vector(packetBytes):mean -nan
scalar ClockDriftShowcase.sink2.eth[0] packetDropNoCarrier:vector(packetBytes):stddev nan
scalar ClockDriftShowcase.sink2.eth[0] packetDropNoCarrier:vector(packetBytes):min inf
scalar ClockDriftShowcase.sink2.eth[0] packetDropNoCarrier:vector(packetBytes):max -inf
scalar ClockDriftShowcase.sink2.eth[0] packetDropNoCarrier:vector(packetBytes):starttime nan
scalar ClockDriftShowcase.sink2.eth[0] packetDropNoCarrier:vector(packetBytes):endtime nan
scalar ClockDriftShowcase.sink2.ipv4.ip packetDropAddressResolutionFailed:vector(packetBytes):count 0
scalar ClockDriftShowcase.sink2.ipv4.ip packetDropAddressResolutionFailed:vector(packetBytes):sum 0
scalar ClockDriftShowcase.sink2.ipv4.ip packetDropAddressResolutionFailed:vector(packetBytes):sumweights 0
scalar ClockDriftShowcase.sink2.ipv4.ip packetDropAddressResolutionFailed:vector(packetBytes):mean -nan
scalar ClockDriftShowcase.sink2.ipv4.ip packetDropAddressResolutionFailed:vector(packetBytes):stddev nan
scalar ClockDriftShowcase.sink2.ipv4.ip packetDropAddressResolutionFailed:vector(packetBytes):min inf
scalar ClockDriftShowcase.sink2.ipv4.ip packetDropAddressResolutionFailed:vector(packetBytes):max -inf
scalar ClockDriftShowcase.sink2.ipv4.ip packetDropAddressResolutionFailed:vector(packetBytes):starttime nan
scalar ClockDriftShowcase.sink2.ipv4.ip packetDropAddressResolutionFailed:vector(packetBytes):endtime nan
scalar ClockDriftShowcase.sink2.ipv4.ip packetDropHopLimitReached:vector(packetBytes):count 0
scalar ClockDriftShowcase.sink2.ipv4.ip packetDropHopLimitReached:vector(packetBytes):sum 0
scalar ClockDriftShowcase.sink2.ipv4.ip packetDropHopLimitReached:vector(packetBytes):sumweights 0
scalar ClockDriftShowcase.sink2.ipv4.ip packetDropHopLimitReached:vector(packetBytes):mean -nan
scalar ClockDriftShowcase.sink2.ipv4.ip packetDropHopLimitReached:vector(packetBytes):stddev nan
scalar ClockDriftShowcase.sink2.ipv4.ip packetDropHopLimitReached:vector(packetBytes):min inf
scalar ClockDriftShowcase.sink2.ipv4.ip packetDropHopLimitReached:vector(packetBytes):max -inf
scalar ClockDriftShowcase.sink2.ipv4.ip packetDropHopLimitReached:vector(packetBytes):starttime nan
scalar ClockDriftShowcase.sink2.ipv4.ip packetDropHopLimitReached:vector(packetBytes):endtime nan
scalar ClockDriftShowcase.sink2.ipv4.ip packetDropForwardingDisabled:vector(packetBytes):count 0
scalar ClockDriftShowcase.sink2.ipv4.ip packetDropForwardingDisabled:vector(packetBytes):sum 0
scalar ClockDriftShowcase.sink2.ipv4.ip packetDropForwardingDisabled:vector(packetBytes):sumweights 0
scalar ClockDriftShowcase.sink2.ipv4.ip packetDropForwardingDisabled:vector(packetBytes):mean -nan
scalar ClockDriftShowcase.sink2.ipv4.ip packetDropForwardingDisabled:vector(packetBytes):stddev nan
scalar ClockDriftShowcase.sink2.ipv4.ip packetDropForwardingDisabled:vector(packetBytes):min inf
scalar ClockDriftShowcase.sink2.ipv4.ip packetDropForwardingDisabled:vector(packetBytes):max -inf
scalar ClockDriftShowcase.sink2.ipv4.ip packetDropForwardingDisabled:vector(packetBytes):starttime nan
scalar ClockDriftShowcase.sink2.ipv4.ip packetDropForwardingDisabled:vector(packetBytes):endtime nan
scalar ClockDriftShowcase.sink2.ipv4.ip packetDropLifetimeExpired:vector(packetBytes):count 0
scalar ClockDriftShowcase.sink2.ipv4.ip packetDropLifetimeExpired:vector(packetBytes):sum 0
scalar ClockDriftShowcase.sink2.ipv4.ip packetDropLifetimeExpired:vector(packetBytes):sumweights 0
scalar ClockDriftShowcase.sink2.ipv4.ip packetDropLifetimeExpired:vector(packetBytes):mean -nan
scalar ClockDriftShowcase.sink2.ipv4.ip packetDropLifetimeExpired:vector(packetBytes):stddev nan
scalar ClockDriftShowcase.sink2.ipv4.ip packetDropLifetimeExpired:vector(packetBytes):min inf
scalar ClockDriftShowcase.sink2.ipv4.ip packetDropLifetimeExpired:vector(packetBytes):max -inf
scalar ClockDriftShowcase.sink2.ipv4.ip packetDropLifetimeExpired:vector(packetBytes):starttime nan
scalar ClockDriftShowcase.sink2.ipv4.ip packetDropLifetimeExpired:vector(packetBytes):endtime nan
scalar ClockDriftShowcase.sink2.ipv4.ip packetDropNoInterfaceFound:vector(packetBytes):count 0
scalar ClockDriftShowcase.sink2.ipv4.ip packetDropNoInterfaceFound:vector(packetBytes):sum 0
scalar ClockDriftShowcase.sink2.ipv4.ip packetDropNoInterfaceFound:vector(packetBytes):sumweights 0
scalar ClockDriftShowcase.sink2.ipv4.ip packetDropNoInterfaceFound:vector(packetBytes):mean -nan
scalar ClockDriftShowcase.sink2.ipv4.ip packetDropNoInterfaceFound:vector(packetBytes):stddev nan
scalar ClockDriftShowcase.sink2.ipv4.ip packetDropNoInterfaceFound:vector(packetBytes):min inf
scalar ClockDriftShowcase.sink2.ipv4.ip packetDropNoInterfaceFound:vector(packetBytes):max -inf
scalar ClockDriftShowcase.sink2.ipv4.ip packetDropNoInterfaceFound:vector(packetBytes):starttime nan
scalar ClockDriftShowcase.sink2.ipv4.ip packetDropNoInterfaceFound:vector(packetBytes):endtime nan
scalar ClockDriftShowcase.sink2.ipv4.ip packetDropNoRouteFound:vector(packetBytes):count 0
scalar ClockDriftShowcase.sink2.ipv4.ip packetDropNoRouteFound:vector(packetBytes):sum 0
scalar ClockDriftShowcase.sink2.ipv4.ip packetDropNoRouteFound:vector(packetBytes):sumweights 0
scalar ClockDriftShowcase.sink2.ipv4.ip packetDropNoRouteFound:vector(packetBytes):mean -nan
scalar ClockDriftShowcase.sink2.ipv4.ip packetDropNoRouteFound:vector(packetBytes):stddev nan
scalar ClockDriftShowcase.sink2.ipv4.ip packetDropNoRouteFound:vector(packetBytes):min inf
scalar ClockDriftShowcase.sink2.ipv4.ip packetDropNoRouteFound:vector(packetBytes):max -inf
scalar ClockDriftShowcase.sink2.ipv4.ip packetDropNoRouteFound:vector(packetBytes):starttime nan
scalar ClockDriftShowcase.sink2.ipv4.ip packetDropNoRouteFound:vector(packetBytes):endtime nan
scalar ClockDriftShowcase.sink2.ipv4.ip packetDropUndefined:vector(packetBytes):count 0
scalar ClockDriftShowcase.sink2.ipv4.ip packetDropUndefined:vector(packetBytes):sum 0
scalar ClockDriftShowcase.sink2.ipv4.ip packetDropUndefined:vector(packetBytes):sumweights 0
scalar ClockDriftShowcase.sink2.ipv4.ip packetDropUndefined:vector(packetBytes):mean -nan
scalar ClockDriftShowcase.sink2.ipv4.ip packetDropUndefined:vector(packetBytes):stddev nan
scalar ClockDriftShowcase.sink2.ipv4.ip packetDropUndefined:vector(packetBytes):min inf
scalar ClockDriftShowcase.sink2.ipv4.ip packetDropUndefined:vector(packetBytes):max -inf
scalar ClockDriftShowcase.sink2.ipv4.ip packetDropUndefined:vector(packetBytes):starttime nan
scalar ClockDriftShowcase.sink2.ipv4.ip packetDropUndefined:vector(packetBytes):endtime nan
scalar ClockDriftShowcase.sink2.udp packetSent:vector(packetBytes):count 0
scalar ClockDriftShowcase.sink2.udp packetSent:vector(packetBytes):sum 0
scalar ClockDriftShowcase.sink2.udp packetSent:vector(packetBytes):sumweights 0
scalar ClockDriftShowcase.sink2.udp packetSent:vector(packetBytes):mean -nan
scalar ClockDriftShowcase.sink2.udp packetSent:vector(packetBytes):stddev nan
scalar ClockDriftShowcase.sink2.udp packetSent:vector(packetBytes):min inf
scalar ClockDriftShowcase.sink2.udp packetSent:vector(packetBytes):max -inf
scalar ClockDriftShowcase.sink2.udp packetSent:vector(packetBytes):starttime nan
scalar ClockDriftShowcase.sink2.udp packetSent:vector(packetBytes):endtime nan
scalar ClockDriftShowcase.sink2.udp packetReceived:vector(packetBytes):count 5022
scalar ClockDriftShowcase.sink2.udp packetReceived:vector(packetBytes):sum 4057776
scalar ClockDriftShowcase.sink2.udp packetReceived:vector(packetBytes):sumweights 5022
scalar ClockDriftShowcase.sink2.udp packetReceived:vector(packetBytes):mean 808
scalar ClockDriftShowcase.sink2.udp packetReceived:vector(packetBytes):stddev 0
scalar ClockDriftShowcase.sink2.udp packetReceived:vector(packetBytes):min 808
scalar ClockDriftShowcase.sink2.udp packetReceived:vector(packetBytes):max 808
scalar ClockDriftShowcase.sink2.udp packetReceived:vector(packetBytes):starttime 3.0764e-05
scalar ClockDriftShowcase.sink2.udp packetReceived:vector(packetBytes):endtime 0.099982032732
scalar ClockDriftShowcase.sink2.udp passedUpPk:vector(count):count 5023
scalar ClockDriftShowcase.sink2.udp passedUpPk:vector(count):sum 12612753
scalar ClockDriftShowcase.sink2.udp passedUpPk:vector(count):sumweights 5023
scalar ClockDriftShowcase.sink2.udp passedUpPk:vector(count):mean 2511
scalar ClockDriftShowcase.sink2.udp passedUpPk:vector(count):stddev 1450.1595314539
scalar ClockDriftShowcase.sink2.udp passedUpPk:vector(count):min 0
scalar ClockDriftShowcase.sink2.udp passedUpPk:vector(count):max 5022
scalar ClockDriftShowcase.sink2.udp passedUpPk:vector(count):starttime 0
scalar ClockDriftShowcase.sink2.udp passedUpPk:vector(count):endtime 0.099982032732
scalar ClockDriftShowcase.sink2.udp droppedPkWrongPort:vector(count):count 1
scalar ClockDriftShowcase.sink2.udp droppedPkWrongPort:vector(count):sum 0
scalar ClockDriftShowcase.sink2.udp droppedPkWrongPort:vector(count):sumweights 1
scalar ClockDriftShowcase.sink2.udp droppedPkWrongPort:vector(count):mean 0
scalar ClockDriftShowcase.sink2.udp droppedPkWrongPort:vector(count):stddev nan
scalar ClockDriftShowcase.sink2.udp droppedPkWrongPort:vector(count):min 0
scalar ClockDriftShowcase.sink2.udp droppedPkWrongPort:vector(count):max 0
scalar ClockDriftShowcase.sink2.udp droppedPkWrongPort:vector(count):starttime 0
scalar ClockDriftShowcase.sink2.udp droppedPkWrongPort:vector(count):endtime 0
scalar ClockDriftShowcase.sink2.udp droppedPkBadChecksum:vector(count):count 1
scalar ClockDriftShowcase.sink2.udp droppedPkBadChecksum:vector(count):sum 0
scalar ClockDriftShowcase.sink2.udp droppedPkBadChecksum:vector(count):sumweights 1
scalar ClockDriftShowcase.sink2.udp droppedPkBadChecksum:vector(count):mean 0
scalar ClockDriftShowcase.sink2.udp droppedPkBadChecksum:vector(count):stddev nan
scalar ClockDriftShowcase.sink2.udp droppedPkBadChecksum:vector(count):min 0
scalar ClockDriftShowcase.sink2.udp droppedPkBadChecksum:vector(count):max 0
scalar ClockDriftShowcase.sink2.udp droppedPkBadChecksum:vector(count):starttime 0
scalar ClockDriftShowcase.sink2.udp droppedPkBadChecksum:vector(count):endtime 0
scalar ClockDriftShowcase.sink2.app[0].sink droppedPacketLengths:vector:count 5022
scalar ClockDriftShowcase.sink2.app[0].sink droppedPacketLengths:vector:sum 32140800
scalar ClockDriftShowcase.sink2.app[0].sink droppedPacketLengths:vector:sumweights 5022
scalar ClockDriftShowcase.sink2.app[0].sink droppedPacketLengths:vector:mean 6400
scalar ClockDriftShowcase.sink2.app[0].sink droppedPacketLengths:vector:stddev 0
scalar ClockDriftShowcase.sink2.app[0].sink droppedPacketLengths:vector:min 6400
scalar ClockDriftShowcase.sink2.app[0].sink droppedPacketLengths:vector:max 6400
scalar ClockDriftShowcase.sink2.app[0].sink droppedPacketLengths:vector:starttime 3.0764e-05
scalar ClockDriftShowcase.sink2.app[0].sink droppedPacketLengths:vector:endtime 0.099982032732
scalar ClockDriftShowcase.sink2.app[0].sink droppedDataRate:vector:count 51
scalar ClockDriftShowcase.sink2.app[0].sink droppedDataRate:vector:sum 16381588710.777
scalar ClockDriftShowcase.sink2.app[0].sink droppedDataRate:vector:sumweights 51
scalar ClockDriftShowcase.sink2.app[0].sink droppedDataRate:vector:mean 321207621.77994
scalar ClockDriftShowcase.sink2.app[0].sink droppedDataRate:vector:stddev 2094482.2191031
scalar ClockDriftShowcase.sink2.app[0].sink droppedDataRate:vector:min 307977374.53842
scalar ClockDriftShowcase.sink2.app[0].sink droppedDataRate:vector:max 324318236.34511
scalar ClockDriftShowcase.sink2.app[0].sink droppedDataRate:vector:starttime 0.002003006109
scalar ClockDriftShowcase.sink2.app[0].sink droppedDataRate:vector:endtime 0.1
scalar ClockDriftShowcase.sink2.app[0].sink packetLengths:vector:count 5022
scalar ClockDriftShowcase.sink2.app[0].sink packetLengths:vector:sum 32140800
scalar ClockDriftShowcase.sink2.app[0].sink packetLengths:vector:sumweights 5022
scalar ClockDriftShowcase.sink2.app[0].sink packetLengths:vector:mean 6400
scalar ClockDriftShowcase.sink2.app[0].sink packetLengths:vector:stddev 0
scalar ClockDriftShowcase.sink2.app[0].sink packetLengths:vector:min 6400
scalar ClockDriftShowcase.sink2.app[0].sink packetLengths:vector:max 6400
scalar ClockDriftShowcase.sink2.app[0].sink packetLengths:vector:starttime 3.0764e-05
scalar ClockDriftShowcase.sink2.app[0].sink packetLengths:vector:endtime 0.099982032732
scalar ClockDriftShowcase.sink2.app[0].sink dataRate:vector:count 51
scalar ClockDriftShowcase.sink2.app[0].sink dataRate:vector:sum 16381588710.777
scalar ClockDriftShowcase.sink2.app[0].sink dataRate:vector:sumweights 51
scalar ClockDriftShowcase.sink2.app[0].sink dataRate:vector:mean 321207621.77994
scalar ClockDriftShowcase.sink2.app[0].sink dataRate:vector:stddev 2094482.2191031
scalar ClockDriftShowcase.sink2.app[0].sink dataRate:vector:min 307977374.53842
scalar ClockDriftShowcase.sink2.app[0].sink dataRate:vector:max 324318236.34511
scalar ClockDriftShowcase.sink2.app[0].sink dataRate:vector:starttime 0.002003006109
scalar ClockDriftShowcase.sink2.app[0].sink dataRate:vector:endtime 0.1
scalar ClockDriftShowcase.sink2.app[0].sink meanBitLifeTimePerPacket:vector:count 5022
scalar ClockDriftShowcase.sink2.app[0].sink meanBitLifeTimePerPacket:vector:sum 0.119345478515
scalar ClockDriftShowcase.sink2.app[0].sink meanBitLifeTimePerPacket:vector:sumweights 5022
scalar ClockDriftShowcase.sink2.app[0].sink meanBitLifeTimePerPacket:vector:mean 2.3764531763241e-05
scalar ClockDriftShowcase.sink2.app[0].sink meanBitLifeTimePerPacket:vector:stddev 5.5704405660566e-06
scalar ClockDriftShowcase.sink2.app[0].sink meanBitLifeTimePerPacket:vector:min 2.0646e-05
scalar ClockDriftShowcase.sink2.app[0].sink meanBitLifeTimePerPacket:vector:max 3.7575432e-05
scalar ClockDriftShowcase.sink2.app[0].sink meanBitLifeTimePerPacket:vector:starttime 3.0764e-05
scalar ClockDriftShowcase.sink2.app[0].sink meanBitLifeTimePerPacket:vector:endtime 0.099982032732
scalar ClockDriftShowcase.sink2.app[0].sink packetJitter:vector:count 5022
scalar ClockDriftShowcase.sink2.app[0].sink packetJitter:vector:sum 3.255533e-05
scalar ClockDriftShowcase.sink2.app[0].sink packetJitter:vector:sumweights 5022
scalar ClockDriftShowcase.sink2.app[0].sink packetJitter:vector:mean 6.4825428116288e-09
scalar ClockDriftShowcase.sink2.app[0].sink packetJitter:vector:stddev 1.2744537953324e-06
scalar ClockDriftShowcase.sink2.app[0].sink packetJitter:vector:min -1.311986e-05
scalar ClockDriftShowcase.sink2.app[0].sink packetJitter:vector:max 2.0764e-05
scalar ClockDriftShowcase.sink2.app[0].sink packetJitter:vector:starttime 3.0764e-05
scalar ClockDriftShowcase.sink2.app[0].sink packetJitter:vector:endtime 0.099982032732
scalar ClockDriftShowcase.sink2.app[0].sink packetDelayDifferenceToMean:vector:count 5022
scalar ClockDriftShowcase.sink2.app[0].sink packetDelayDifferenceToMean:vector:sum -0.011819114507814
scalar ClockDriftShowcase.sink2.app[0].sink packetDelayDifferenceToMean:vector:sumweights 5022
scalar ClockDriftShowcase.sink2.app[0].sink packetDelayDifferenceToMean:vector:mean -2.3534676439294e-06
scalar ClockDriftShowcase.sink2.app[0].sink packetDelayDifferenceToMean:vector:stddev 5.0479755823031e-06
scalar ClockDriftShowcase.sink2.app[0].sink packetDelayDifferenceToMean:vector:min -1.6641224402399e-05
scalar ClockDriftShowcase.sink2.app[0].sink packetDelayDifferenceToMean:vector:max 2.2711533522421e-06
scalar ClockDriftShowcase.sink2.app[0].sink packetDelayDifferenceToMean:vector:starttime 3.0764e-05
scalar ClockDriftShowcase.sink2.app[0].sink packetDelayDifferenceToMean:vector:endtime 0.099982032732
scalar ClockDriftShowcase.sink2.app[0].sink packetDelayVariation:vector:count 5022
scalar ClockDriftShowcase.sink2.app[0].sink packetDelayVariation:vector:sum 0.0089397663322872
scalar ClockDriftShowcase.sink2.app[0].sink packetDelayVariation:vector:sumweights 5022
scalar ClockDriftShowcase.sink2.app[0].sink packetDelayVariation:vector:mean 1.7801207352225e-06
scalar ClockDriftShowcase.sink2.app[0].sink packetDelayVariation:vector:stddev 1.7599280993739e-06
scalar ClockDriftShowcase.sink2.app[0].sink packetDelayVariation:vector:min 0
scalar ClockDriftShowcase.sink2.app[0].sink packetDelayVariation:vector:max 5.5698859346438e-06
scalar ClockDriftShowcase.sink2.app[0].sink packetDelayVariation:vector:starttime 3.0764e-05
scalar ClockDriftShowcase.sink2.app[0].sink packetDelayVariation:vector:endtime 0.099982032732
scalar ClockDriftShowcase.sink2.app[0].io packetSent:vector(packetBytes):count 0
scalar ClockDriftShowcase.sink2.app[0].io packetSent:vector(packetBytes):sum 0
scalar ClockDriftShowcase.sink2.app[0].io packetSent:vector(packetBytes):sumweights 0
scalar ClockDriftShowcase.sink2.app[0].io packetSent:vector(packetBytes):mean -nan
scalar ClockDriftShowcase.sink2.app[0].io packetSent:vector(packetBytes):stddev nan
scalar ClockDriftShowcase.sink2.app[0].io packetSent:vector(packetBytes):min inf
scalar ClockDriftShowcase.sink2.app[0].io packetSent:vector(packetBytes):max -inf
scalar ClockDriftShowcase.sink2.app[0].io packetSent:vector(packetBytes):starttime nan
scalar ClockDriftShowcase.sink2.app[0].io packetSent:vector(packetBytes):endtime nan
scalar ClockDriftShowcase.sink2.app[0].io packetReceived:vector(packetBytes):count 5022
scalar ClockDriftShowcase.sink2.app[0].io packetReceived:vector(packetBytes):sum 4017600
scalar ClockDriftShowcase.sink2.app[0].io packetReceived:vector(packetBytes):sumweights 5022
scalar ClockDriftShowcase.sink2.app[0].io packetReceived:vector(packetBytes):mean 800
scalar ClockDriftShowcase.sink2.app[0].io packetReceived:vector(packetBytes):stddev 0
scalar ClockDriftShowcase.sink2.app[0].io packetReceived:vector(packetBytes):min 800
scalar ClockDriftShowcase.sink2.app[0].io packetReceived:vector(packetBytes):max 800
scalar ClockDriftShowcase.sink2.app[0].io packetReceived:vector(packetBytes):starttime 3.0764e-05
scalar ClockDriftShowcase.sink2.app[0].io packetReceived:vector(packetBytes):endtime 0.099982032732

