version 3
run sync2-0-20260107-11:05:53-8754
attr configname sync2
attr datetime 20260107-11:05:53
attr datetimef 20260107-110553
attr experiment sync2
attr inifile omnetpp.ini
attr iterationvars ""
attr iterationvarsd ""
attr iterationvarsf ""
attr measurement ""
attr network GptpMasterSlave
attr processid 8754
attr repetition 0
attr replication #0
attr resultdir results
attr runnumber 0
attr seedset 0
config **.param-recording false
config image-path /home/levy/workspace/inet/images
config output-scalar-file results/omnetpp.ini-sync2-#0.sca
config output-scalar-precision 17
config output-vector-file results/omnetpp.ini-sync2-#0.vec
config output-vector-precision 17
config record-eventlog false
config sim-time-limit 10s
config extends "sync1, _DriftSlave"
config description "gptp on, master is precise, client is late"
config description "gptp on, master is precise, client is precise"
config *.gptpSlave.clock.oscillator.driftRate -100000ppm
config sim-time-limit 10s
config simtime-resolution fs
config network GptpMasterSlave
config **.transmitter.typename StreamingTransmitter
config **.receiver.typename DestreamingReceiver
config **.eth[*].bitrate 100Mbps
config **.configurator.assignDisjunctSubnetAddresses false
config **.configurator.addStaticRoutes false
config **.configurator.addSubnetRoutes true
config **.configurator.addDefaultRoutes true
config **.configurator.optimizeRoutes false
config **.configurator.dumpAddresses true
config **.configurator.dumpRoutes true
config *.configurator.config "xml(\"<config>                                 <interface hosts='gptpMaster' names='eth0' address='10.0.0.1'/>                                 <interface hosts='gptpSlave' names='eth0' address='10.0.0.2'/>                              </config>\")"
config **.oscillator.nominalTickLength 10ns
config *.gptpMaster.gptp.masterPorts "[\"eth0\"]"
config *.gptpSlave.gptp.slavePort "\"eth0\""

scalar GptpMasterSlave.gptpMaster.ethernet pauseSent:count 0
scalar GptpMasterSlave.gptpMaster.ethernet pauseSent:sum 0
scalar GptpMasterSlave.gptpMaster.ethernet decapPk:count 10
scalar GptpMasterSlave.gptpMaster.ethernet decapPk:sum(packetBytes) 540
scalar GptpMasterSlave.gptpMaster.ethernet encapPk:count 180
scalar GptpMasterSlave.gptpMaster.ethernet encapPk:sum(packetBytes) 10680
scalar GptpMasterSlave.gptpMaster.lo[0].lo rcvdPkFromHl:count 0
scalar GptpMasterSlave.gptpMaster.lo[0].lo rcvdPkFromHl:sum(packetBytes) 0
scalar GptpMasterSlave.gptpMaster.lo[0].lo passedUpPk:count 0
scalar GptpMasterSlave.gptpMaster.lo[0].lo passedUpPk:sum(packetBytes) 0
scalar GptpMasterSlave.gptpMaster.lo[0] packetDropInterfaceDown:count 0
scalar GptpMasterSlave.gptpMaster.lo[0] packetDropInterfaceDown:sum(packetBytes) 0
scalar GptpMasterSlave.gptpMaster.lo[0] packetDropNoCarrier:count 0
scalar GptpMasterSlave.gptpMaster.lo[0] packetDropNoCarrier:sum(packetBytes) 0
scalar GptpMasterSlave.gptpMaster.eth[0].macLayer.queue queueLength:last 1
scalar GptpMasterSlave.gptpMaster.eth[0].macLayer.queue queueLength:max 1
scalar GptpMasterSlave.gptpMaster.eth[0].macLayer.queue queueLength:timeavg 5.2784000000000022e-05
scalar GptpMasterSlave.gptpMaster.eth[0].macLayer.queue queueBitLength:last 752
scalar GptpMasterSlave.gptpMaster.eth[0].macLayer.queue queueBitLength:max 752
scalar GptpMasterSlave.gptpMaster.eth[0].macLayer.queue queueBitLength:timeavg 0.039524608000000065
scalar GptpMasterSlave.gptpMaster.eth[0].macLayer.queue outgoingPackets:count 179
scalar GptpMasterSlave.gptpMaster.eth[0].macLayer.queue outgoingPacketLengths:sum 110608
scalar GptpMasterSlave.gptpMaster.eth[0].macLayer.queue incomingPackets:count 180
scalar GptpMasterSlave.gptpMaster.eth[0].macLayer.queue incomingPacketLengths:sum 111360
scalar GptpMasterSlave.gptpMaster.eth[0].macLayer.queue droppedPacketsQueueOverflow:count 0
scalar GptpMasterSlave.gptpMaster.eth[0].macLayer.queue droppedPacketLengthsQueueOverflow:sum 0
scalar GptpMasterSlave.gptpMaster.eth[0].macLayer.server incomingPackets:count 179
scalar GptpMasterSlave.gptpMaster.eth[0].macLayer.server incomingPacketLengths:sum 110608
scalar GptpMasterSlave.gptpMaster.eth[0].macLayer.server outgoingPackets:count 179
scalar GptpMasterSlave.gptpMaster.eth[0].macLayer.server outgoingPacketLengths:sum 110608
scalar GptpMasterSlave.gptpMaster.eth[0].macLayer.outboundEmitter outgoingPackets:count 179
scalar GptpMasterSlave.gptpMaster.eth[0].macLayer.outboundEmitter outgoingPacketLengths:sum 110608
scalar GptpMasterSlave.gptpMaster.eth[0].macLayer.outboundEmitter flowOutgoingPacketLengths:sum 0
scalar GptpMasterSlave.gptpMaster.eth[0].macLayer.outboundEmitter incomingPackets:count 179
scalar GptpMasterSlave.gptpMaster.eth[0].macLayer.outboundEmitter incomingPacketLengths:sum 110608
scalar GptpMasterSlave.gptpMaster.eth[0].macLayer.outboundEmitter flowIncomingPacketLengths:sum 0
scalar GptpMasterSlave.gptpMaster.eth[0].macLayer.fcsChecker outgoingPackets:count 10
scalar GptpMasterSlave.gptpMaster.eth[0].macLayer.fcsChecker outgoingPacketLengths:sum 5760
scalar GptpMasterSlave.gptpMaster.eth[0].macLayer.fcsChecker flowOutgoingPacketLengths:sum 0
scalar GptpMasterSlave.gptpMaster.eth[0].macLayer.fcsChecker incomingPackets:count 10
scalar GptpMasterSlave.gptpMaster.eth[0].macLayer.fcsChecker incomingPacketLengths:sum 5760
scalar GptpMasterSlave.gptpMaster.eth[0].macLayer.fcsChecker flowIncomingPacketLengths:sum 0
scalar GptpMasterSlave.gptpMaster.eth[0].macLayer.fcsChecker droppedPackets:count 0
scalar GptpMasterSlave.gptpMaster.eth[0].macLayer.fcsChecker droppedPacketLengths:sum 0
scalar GptpMasterSlave.gptpMaster.eth[0].macLayer.fcsChecker flowDroppedPacketLengths:sum 0
scalar GptpMasterSlave.gptpMaster.eth[0].macLayer.inboundEmitter outgoingPackets:count 10
scalar GptpMasterSlave.gptpMaster.eth[0].macLayer.inboundEmitter outgoingPacketLengths:sum 5760
scalar GptpMasterSlave.gptpMaster.eth[0].macLayer.inboundEmitter flowOutgoingPacketLengths:sum 0
scalar GptpMasterSlave.gptpMaster.eth[0].macLayer.inboundEmitter incomingPackets:count 10
scalar GptpMasterSlave.gptpMaster.eth[0].macLayer.inboundEmitter incomingPacketLengths:sum 5760
scalar GptpMasterSlave.gptpMaster.eth[0].macLayer.inboundEmitter flowIncomingPacketLengths:sum 0
scalar GptpMasterSlave.gptpMaster.eth[0].phyLayer.phyHeaderInserter outgoingPackets:count 179
scalar GptpMasterSlave.gptpMaster.eth[0].phyLayer.phyHeaderInserter outgoingPacketLengths:sum 122064
scalar GptpMasterSlave.gptpMaster.eth[0].phyLayer.phyHeaderInserter flowOutgoingPacketLengths:sum 0
scalar GptpMasterSlave.gptpMaster.eth[0].phyLayer.phyHeaderInserter incomingPackets:count 179
scalar GptpMasterSlave.gptpMaster.eth[0].phyLayer.phyHeaderInserter incomingPacketLengths:sum 110608
scalar GptpMasterSlave.gptpMaster.eth[0].phyLayer.phyHeaderInserter flowIncomingPacketLengths:sum 0
scalar GptpMasterSlave.gptpMaster.eth[0].phyLayer.outboundEmitter outgoingPackets:count 179
scalar GptpMasterSlave.gptpMaster.eth[0].phyLayer.outboundEmitter outgoingPacketLengths:sum 122064
scalar GptpMasterSlave.gptpMaster.eth[0].phyLayer.outboundEmitter flowOutgoingPacketLengths:sum 0
scalar GptpMasterSlave.gptpMaster.eth[0].phyLayer.outboundEmitter incomingPackets:count 179
scalar GptpMasterSlave.gptpMaster.eth[0].phyLayer.outboundEmitter incomingPacketLengths:sum 122064
scalar GptpMasterSlave.gptpMaster.eth[0].phyLayer.outboundEmitter flowIncomingPacketLengths:sum 0
scalar GptpMasterSlave.gptpMaster.eth[0].phyLayer.transmitter propagationTime 0.01
scalar GptpMasterSlave.gptpMaster.eth[0].phyLayer.phyHeaderChecker outgoingPackets:count 10
scalar GptpMasterSlave.gptpMaster.eth[0].phyLayer.phyHeaderChecker outgoingPacketLengths:sum 5760
scalar GptpMasterSlave.gptpMaster.eth[0].phyLayer.phyHeaderChecker flowOutgoingPacketLengths:sum 0
scalar GptpMasterSlave.gptpMaster.eth[0].phyLayer.phyHeaderChecker incomingPackets:count 10
scalar GptpMasterSlave.gptpMaster.eth[0].phyLayer.phyHeaderChecker incomingPacketLengths:sum 6400
scalar GptpMasterSlave.gptpMaster.eth[0].phyLayer.phyHeaderChecker flowIncomingPacketLengths:sum 0
scalar GptpMasterSlave.gptpMaster.eth[0].phyLayer.phyHeaderChecker droppedPackets:count 0
scalar GptpMasterSlave.gptpMaster.eth[0].phyLayer.phyHeaderChecker droppedPacketLengths:sum 0
scalar GptpMasterSlave.gptpMaster.eth[0].phyLayer.phyHeaderChecker flowDroppedPacketLengths:sum 0
scalar GptpMasterSlave.gptpMaster.eth[0].phyLayer.inboundEmitter outgoingPackets:count 10
scalar GptpMasterSlave.gptpMaster.eth[0].phyLayer.inboundEmitter outgoingPacketLengths:sum 6400
scalar GptpMasterSlave.gptpMaster.eth[0].phyLayer.inboundEmitter flowOutgoingPacketLengths:sum 0
scalar GptpMasterSlave.gptpMaster.eth[0].phyLayer.inboundEmitter incomingPackets:count 10
scalar GptpMasterSlave.gptpMaster.eth[0].phyLayer.inboundEmitter incomingPacketLengths:sum 6400
scalar GptpMasterSlave.gptpMaster.eth[0].phyLayer.inboundEmitter flowIncomingPacketLengths:sum 0
scalar GptpMasterSlave.gptpMaster.eth[0] packetDropInterfaceDown:count 0
scalar GptpMasterSlave.gptpMaster.eth[0] packetDropInterfaceDown:sum(packetBytes) 0
scalar GptpMasterSlave.gptpMaster.eth[0] packetDropNoCarrier:count 0
scalar GptpMasterSlave.gptpMaster.eth[0] packetDropNoCarrier:sum(packetBytes) 0
scalar GptpMasterSlave.gptpMaster.ipv4.ip packetDropAddressResolutionFailed:count 0
scalar GptpMasterSlave.gptpMaster.ipv4.ip packetDropAddressResolutionFailed:sum(packetBytes) 0
scalar GptpMasterSlave.gptpMaster.ipv4.ip packetDropHopLimitReached:count 0
scalar GptpMasterSlave.gptpMaster.ipv4.ip packetDropHopLimitReached:sum(packetBytes) 0
scalar GptpMasterSlave.gptpMaster.ipv4.ip packetDropForwardingDisabled:count 0
scalar GptpMasterSlave.gptpMaster.ipv4.ip packetDropForwardingDisabled:sum(packetBytes) 0
scalar GptpMasterSlave.gptpMaster.ipv4.ip packetDropLifetimeExpired:count 0
scalar GptpMasterSlave.gptpMaster.ipv4.ip packetDropLifetimeExpired:sum(packetBytes) 0
scalar GptpMasterSlave.gptpMaster.ipv4.ip packetDropNoInterfaceFound:count 0
scalar GptpMasterSlave.gptpMaster.ipv4.ip packetDropNoInterfaceFound:sum(packetBytes) 0
scalar GptpMasterSlave.gptpMaster.ipv4.ip packetDropNoRouteFound:count 0
scalar GptpMasterSlave.gptpMaster.ipv4.ip packetDropNoRouteFound:sum(packetBytes) 0
scalar GptpMasterSlave.gptpMaster.ipv4.ip packetDropUndefined:count 0
scalar GptpMasterSlave.gptpMaster.ipv4.ip packetDropUndefined:sum(packetBytes) 0
scalar GptpMasterSlave.gptpMaster.ipv4.arp arpResolutionFailed:count 0
scalar GptpMasterSlave.gptpMaster.ipv4.arp arpResolutionCompleted:count 0
scalar GptpMasterSlave.gptpMaster.ipv4.arp arpResolutionInitiated:count 0
scalar GptpMasterSlave.gptpMaster.ipv4.arp arpReplySent:count 0
scalar GptpMasterSlave.gptpMaster.ipv4.arp arpReplySent:sum(packetBytes) 0
scalar GptpMasterSlave.gptpMaster.ipv4.arp arpRequestSent:count 0
scalar GptpMasterSlave.gptpMaster.ipv4.arp arpRequestSent:sum(packetBytes) 0
scalar GptpMasterSlave.gptpMaster.udp packetReceived:count 0
scalar GptpMasterSlave.gptpMaster.udp packetReceived:sum(packetBytes) 0
scalar GptpMasterSlave.gptpMaster.udp packetSent:count 0
scalar GptpMasterSlave.gptpMaster.udp packetSent:sum(packetBytes) 0
scalar GptpMasterSlave.gptpMaster.udp passedUpPk:count 0
scalar GptpMasterSlave.gptpMaster.udp droppedPkWrongPort:count 0
scalar GptpMasterSlave.gptpMaster.udp droppedPkBadChecksum:count 0
scalar GptpMasterSlave.gptpMaster.gptp packetDropNotAddressedToUs:count 0
scalar GptpMasterSlave.gptpMaster.gptp packetDropNotAddressedToUs:sum(packetBytes) 0
scalar GptpMasterSlave.gptpSlave.ethernet pauseSent:count 0
scalar GptpMasterSlave.gptpSlave.ethernet pauseSent:sum 0
scalar GptpMasterSlave.gptpSlave.ethernet decapPk:count 178
scalar GptpMasterSlave.gptpSlave.ethernet decapPk:sum(packetBytes) 10560
scalar GptpMasterSlave.gptpSlave.ethernet encapPk:count 10
scalar GptpMasterSlave.gptpSlave.ethernet encapPk:sum(packetBytes) 540
scalar GptpMasterSlave.gptpSlave.lo[0].lo rcvdPkFromHl:count 0
scalar GptpMasterSlave.gptpSlave.lo[0].lo rcvdPkFromHl:sum(packetBytes) 0
scalar GptpMasterSlave.gptpSlave.lo[0].lo passedUpPk:count 0
scalar GptpMasterSlave.gptpSlave.lo[0].lo passedUpPk:sum(packetBytes) 0
scalar GptpMasterSlave.gptpSlave.lo[0] packetDropInterfaceDown:count 0
scalar GptpMasterSlave.gptpSlave.lo[0] packetDropInterfaceDown:sum(packetBytes) 0
scalar GptpMasterSlave.gptpSlave.lo[0] packetDropNoCarrier:count 0
scalar GptpMasterSlave.gptpSlave.lo[0] packetDropNoCarrier:sum(packetBytes) 0
scalar GptpMasterSlave.gptpSlave.eth[0].macLayer.queue queueLength:last 0
scalar GptpMasterSlave.gptpSlave.eth[0].macLayer.queue queueLength:max 1
scalar GptpMasterSlave.gptpSlave.eth[0].macLayer.queue queueLength:timeavg 0
scalar GptpMasterSlave.gptpSlave.eth[0].macLayer.queue queueBitLength:last 0
scalar GptpMasterSlave.gptpSlave.eth[0].macLayer.queue queueBitLength:max 576
scalar GptpMasterSlave.gptpSlave.eth[0].macLayer.queue queueBitLength:timeavg 0
scalar GptpMasterSlave.gptpSlave.eth[0].macLayer.queue outgoingPackets:count 10
scalar GptpMasterSlave.gptpSlave.eth[0].macLayer.queue outgoingPacketLengths:sum 5760
scalar GptpMasterSlave.gptpSlave.eth[0].macLayer.queue incomingPackets:count 10
scalar GptpMasterSlave.gptpSlave.eth[0].macLayer.queue incomingPacketLengths:sum 5760
scalar GptpMasterSlave.gptpSlave.eth[0].macLayer.queue droppedPacketsQueueOverflow:count 0
scalar GptpMasterSlave.gptpSlave.eth[0].macLayer.queue droppedPacketLengthsQueueOverflow:sum 0
scalar GptpMasterSlave.gptpSlave.eth[0].macLayer.server incomingPackets:count 10
scalar GptpMasterSlave.gptpSlave.eth[0].macLayer.server incomingPacketLengths:sum 5760
scalar GptpMasterSlave.gptpSlave.eth[0].macLayer.server outgoingPackets:count 10
scalar GptpMasterSlave.gptpSlave.eth[0].macLayer.server outgoingPacketLengths:sum 5760
scalar GptpMasterSlave.gptpSlave.eth[0].macLayer.outboundEmitter outgoingPackets:count 10
scalar GptpMasterSlave.gptpSlave.eth[0].macLayer.outboundEmitter outgoingPacketLengths:sum 5760
scalar GptpMasterSlave.gptpSlave.eth[0].macLayer.outboundEmitter flowOutgoingPacketLengths:sum 0
scalar GptpMasterSlave.gptpSlave.eth[0].macLayer.outboundEmitter incomingPackets:count 10
scalar GptpMasterSlave.gptpSlave.eth[0].macLayer.outboundEmitter incomingPacketLengths:sum 5760
scalar GptpMasterSlave.gptpSlave.eth[0].macLayer.outboundEmitter flowIncomingPacketLengths:sum 0
scalar GptpMasterSlave.gptpSlave.eth[0].macLayer.fcsChecker outgoingPackets:count 178
scalar GptpMasterSlave.gptpSlave.eth[0].macLayer.fcsChecker outgoingPacketLengths:sum 110112
scalar GptpMasterSlave.gptpSlave.eth[0].macLayer.fcsChecker flowOutgoingPacketLengths:sum 0
scalar GptpMasterSlave.gptpSlave.eth[0].macLayer.fcsChecker incomingPackets:count 178
scalar GptpMasterSlave.gptpSlave.eth[0].macLayer.fcsChecker incomingPacketLengths:sum 110112
scalar GptpMasterSlave.gptpSlave.eth[0].macLayer.fcsChecker flowIncomingPacketLengths:sum 0
scalar GptpMasterSlave.gptpSlave.eth[0].macLayer.fcsChecker droppedPackets:count 0
scalar GptpMasterSlave.gptpSlave.eth[0].macLayer.fcsChecker droppedPacketLengths:sum 0
scalar GptpMasterSlave.gptpSlave.eth[0].macLayer.fcsChecker flowDroppedPacketLengths:sum 0
scalar GptpMasterSlave.gptpSlave.eth[0].macLayer.inboundEmitter outgoingPackets:count 178
scalar GptpMasterSlave.gptpSlave.eth[0].macLayer.inboundEmitter outgoingPacketLengths:sum 110112
scalar GptpMasterSlave.gptpSlave.eth[0].macLayer.inboundEmitter flowOutgoingPacketLengths:sum 0
scalar GptpMasterSlave.gptpSlave.eth[0].macLayer.inboundEmitter incomingPackets:count 178
scalar GptpMasterSlave.gptpSlave.eth[0].macLayer.inboundEmitter incomingPacketLengths:sum 110112
scalar GptpMasterSlave.gptpSlave.eth[0].macLayer.inboundEmitter flowIncomingPacketLengths:sum 0
scalar GptpMasterSlave.gptpSlave.eth[0].phyLayer.phyHeaderInserter outgoingPackets:count 10
scalar GptpMasterSlave.gptpSlave.eth[0].phyLayer.phyHeaderInserter outgoingPacketLengths:sum 6400
scalar GptpMasterSlave.gptpSlave.eth[0].phyLayer.phyHeaderInserter flowOutgoingPacketLengths:sum 0
scalar GptpMasterSlave.gptpSlave.eth[0].phyLayer.phyHeaderInserter incomingPackets:count 10
scalar GptpMasterSlave.gptpSlave.eth[0].phyLayer.phyHeaderInserter incomingPacketLengths:sum 5760
scalar GptpMasterSlave.gptpSlave.eth[0].phyLayer.phyHeaderInserter flowIncomingPacketLengths:sum 0
scalar GptpMasterSlave.gptpSlave.eth[0].phyLayer.outboundEmitter outgoingPackets:count 10
scalar GptpMasterSlave.gptpSlave.eth[0].phyLayer.outboundEmitter outgoingPacketLengths:sum 6400
scalar GptpMasterSlave.gptpSlave.eth[0].phyLayer.outboundEmitter flowOutgoingPacketLengths:sum 0
scalar GptpMasterSlave.gptpSlave.eth[0].phyLayer.outboundEmitter incomingPackets:count 10
scalar GptpMasterSlave.gptpSlave.eth[0].phyLayer.outboundEmitter incomingPacketLengths:sum 6400
scalar GptpMasterSlave.gptpSlave.eth[0].phyLayer.outboundEmitter flowIncomingPacketLengths:sum 0
scalar GptpMasterSlave.gptpSlave.eth[0].phyLayer.transmitter propagationTime 0.01
scalar GptpMasterSlave.gptpSlave.eth[0].phyLayer.phyHeaderChecker outgoingPackets:count 178
scalar GptpMasterSlave.gptpSlave.eth[0].phyLayer.phyHeaderChecker outgoingPacketLengths:sum 110112
scalar GptpMasterSlave.gptpSlave.eth[0].phyLayer.phyHeaderChecker flowOutgoingPacketLengths:sum 0
scalar GptpMasterSlave.gptpSlave.eth[0].phyLayer.phyHeaderChecker incomingPackets:count 178
scalar GptpMasterSlave.gptpSlave.eth[0].phyLayer.phyHeaderChecker incomingPacketLengths:sum 121504
scalar GptpMasterSlave.gptpSlave.eth[0].phyLayer.phyHeaderChecker flowIncomingPacketLengths:sum 0
scalar GptpMasterSlave.gptpSlave.eth[0].phyLayer.phyHeaderChecker droppedPackets:count 0
scalar GptpMasterSlave.gptpSlave.eth[0].phyLayer.phyHeaderChecker droppedPacketLengths:sum 0
scalar GptpMasterSlave.gptpSlave.eth[0].phyLayer.phyHeaderChecker flowDroppedPacketLengths:sum 0
scalar GptpMasterSlave.gptpSlave.eth[0].phyLayer.inboundEmitter outgoingPackets:count 178
scalar GptpMasterSlave.gptpSlave.eth[0].phyLayer.inboundEmitter outgoingPacketLengths:sum 121504
scalar GptpMasterSlave.gptpSlave.eth[0].phyLayer.inboundEmitter flowOutgoingPacketLengths:sum 0
scalar GptpMasterSlave.gptpSlave.eth[0].phyLayer.inboundEmitter incomingPackets:count 178
scalar GptpMasterSlave.gptpSlave.eth[0].phyLayer.inboundEmitter incomingPacketLengths:sum 121504
scalar GptpMasterSlave.gptpSlave.eth[0].phyLayer.inboundEmitter flowIncomingPacketLengths:sum 0
scalar GptpMasterSlave.gptpSlave.eth[0] packetDropInterfaceDown:count 0
scalar GptpMasterSlave.gptpSlave.eth[0] packetDropInterfaceDown:sum(packetBytes) 0
scalar GptpMasterSlave.gptpSlave.eth[0] packetDropNoCarrier:count 0
scalar GptpMasterSlave.gptpSlave.eth[0] packetDropNoCarrier:sum(packetBytes) 0
scalar GptpMasterSlave.gptpSlave.ipv4.ip packetDropAddressResolutionFailed:count 0
scalar GptpMasterSlave.gptpSlave.ipv4.ip packetDropAddressResolutionFailed:sum(packetBytes) 0
scalar GptpMasterSlave.gptpSlave.ipv4.ip packetDropHopLimitReached:count 0
scalar GptpMasterSlave.gptpSlave.ipv4.ip packetDropHopLimitReached:sum(packetBytes) 0
scalar GptpMasterSlave.gptpSlave.ipv4.ip packetDropForwardingDisabled:count 0
scalar GptpMasterSlave.gptpSlave.ipv4.ip packetDropForwardingDisabled:sum(packetBytes) 0
scalar GptpMasterSlave.gptpSlave.ipv4.ip packetDropLifetimeExpired:count 0
scalar GptpMasterSlave.gptpSlave.ipv4.ip packetDropLifetimeExpired:sum(packetBytes) 0
scalar GptpMasterSlave.gptpSlave.ipv4.ip packetDropNoInterfaceFound:count 0
scalar GptpMasterSlave.gptpSlave.ipv4.ip packetDropNoInterfaceFound:sum(packetBytes) 0
scalar GptpMasterSlave.gptpSlave.ipv4.ip packetDropNoRouteFound:count 0
scalar GptpMasterSlave.gptpSlave.ipv4.ip packetDropNoRouteFound:sum(packetBytes) 0
scalar GptpMasterSlave.gptpSlave.ipv4.ip packetDropUndefined:count 0
scalar GptpMasterSlave.gptpSlave.ipv4.ip packetDropUndefined:sum(packetBytes) 0
scalar GptpMasterSlave.gptpSlave.ipv4.arp arpResolutionFailed:count 0
scalar GptpMasterSlave.gptpSlave.ipv4.arp arpResolutionCompleted:count 0
scalar GptpMasterSlave.gptpSlave.ipv4.arp arpResolutionInitiated:count 0
scalar GptpMasterSlave.gptpSlave.ipv4.arp arpReplySent:count 0
scalar GptpMasterSlave.gptpSlave.ipv4.arp arpReplySent:sum(packetBytes) 0
scalar GptpMasterSlave.gptpSlave.ipv4.arp arpRequestSent:count 0
scalar GptpMasterSlave.gptpSlave.ipv4.arp arpRequestSent:sum(packetBytes) 0
scalar GptpMasterSlave.gptpSlave.udp packetReceived:count 0
scalar GptpMasterSlave.gptpSlave.udp packetReceived:sum(packetBytes) 0
scalar GptpMasterSlave.gptpSlave.udp packetSent:count 0
scalar GptpMasterSlave.gptpSlave.udp packetSent:sum(packetBytes) 0
scalar GptpMasterSlave.gptpSlave.udp passedUpPk:count 0
scalar GptpMasterSlave.gptpSlave.udp droppedPkWrongPort:count 0
scalar GptpMasterSlave.gptpSlave.udp droppedPkBadChecksum:count 0
scalar GptpMasterSlave.gptpSlave.gptp packetDropNotAddressedToUs:count 0
scalar GptpMasterSlave.gptpSlave.gptp packetDropNotAddressedToUs:sum(packetBytes) 0
scalar GptpMasterSlave.gptpMaster.eth[0].macLayer.queue queueingTime:histogram:count 179
scalar GptpMasterSlave.gptpMaster.eth[0].macLayer.queue queueingTime:histogram:sumweights 179
scalar GptpMasterSlave.gptpMaster.eth[0].macLayer.queue queueingTime:histogram:mean 2.9488268156424593e-06
scalar GptpMasterSlave.gptpMaster.eth[0].macLayer.queue queueingTime:histogram:stddev 3.2259147763070165e-06
scalar GptpMasterSlave.gptpMaster.eth[0].macLayer.queue queueingTime:histogram:min 0
scalar GptpMasterSlave.gptpMaster.eth[0].macLayer.queue queueingTime:histogram:max 6.5600000000000007e-06
scalar GptpMasterSlave.gptpMaster.eth[0].macLayer.queue queueingTime:histogram:numbins 82
scalar GptpMasterSlave.gptpMaster.eth[0].macLayer.queue queueingTime:histogram:rangemin 0
scalar GptpMasterSlave.gptpMaster.eth[0].macLayer.queue queueingTime:histogram:rangemax 8.2000000000000011e-06
scalar GptpMasterSlave.gptpMaster.eth[0].macLayer.queue queueingTime:histogram:underflows 0
scalar GptpMasterSlave.gptpMaster.eth[0].macLayer.queue queueingTime:histogram:overflows 0
scalar GptpMasterSlave.gptpMaster.eth[0].macLayer.queue outgoingPacketLengths:histogram:count 179
scalar GptpMasterSlave.gptpMaster.eth[0].macLayer.queue outgoingPacketLengths:histogram:sumweights 179
scalar GptpMasterSlave.gptpMaster.eth[0].macLayer.queue outgoingPacketLengths:histogram:mean 617.92178770949715
scalar GptpMasterSlave.gptpMaster.eth[0].macLayer.queue outgoingPacketLengths:histogram:stddev 121.88876179929747
scalar GptpMasterSlave.gptpMaster.eth[0].macLayer.queue outgoingPacketLengths:histogram:min 496
scalar GptpMasterSlave.gptpMaster.eth[0].macLayer.queue outgoingPacketLengths:histogram:max 752
scalar GptpMasterSlave.gptpMaster.eth[0].macLayer.queue outgoingPacketLengths:histogram:numbins 78
scalar GptpMasterSlave.gptpMaster.eth[0].macLayer.queue outgoingPacketLengths:histogram:rangemin 430
scalar GptpMasterSlave.gptpMaster.eth[0].macLayer.queue outgoingPacketLengths:histogram:rangemax 820
scalar GptpMasterSlave.gptpMaster.eth[0].macLayer.queue outgoingPacketLengths:histogram:underflows 0
scalar GptpMasterSlave.gptpMaster.eth[0].macLayer.queue outgoingPacketLengths:histogram:overflows 0
scalar GptpMasterSlave.gptpMaster.eth[0].macLayer.queue flowQueueingTime:histogram:count 0
scalar GptpMasterSlave.gptpMaster.eth[0].macLayer.queue flowQueueingTime:histogram:sumweights 0
scalar GptpMasterSlave.gptpMaster.eth[0].macLayer.queue flowQueueingTime:histogram:mean -nan
scalar GptpMasterSlave.gptpMaster.eth[0].macLayer.queue flowQueueingTime:histogram:stddev nan
scalar GptpMasterSlave.gptpMaster.eth[0].macLayer.queue flowQueueingTime:histogram:min nan
scalar GptpMasterSlave.gptpMaster.eth[0].macLayer.queue flowQueueingTime:histogram:max nan
scalar GptpMasterSlave.gptpMaster.eth[0].macLayer.queue flowQueueingTime:histogram:numbins 1
scalar GptpMasterSlave.gptpMaster.eth[0].macLayer.queue flowQueueingTime:histogram:rangemin 0
scalar GptpMasterSlave.gptpMaster.eth[0].macLayer.queue flowQueueingTime:histogram:rangemax 1
scalar GptpMasterSlave.gptpMaster.eth[0].macLayer.queue flowQueueingTime:histogram:underflows 0
scalar GptpMasterSlave.gptpMaster.eth[0].macLayer.queue flowQueueingTime:histogram:overflows 0
scalar GptpMasterSlave.gptpMaster.eth[0].macLayer.queue incomingPacketLengths:histogram:count 180
scalar GptpMasterSlave.gptpMaster.eth[0].macLayer.queue incomingPacketLengths:histogram:sumweights 180
scalar GptpMasterSlave.gptpMaster.eth[0].macLayer.queue incomingPacketLengths:histogram:mean 618.66666666666663
scalar GptpMasterSlave.gptpMaster.eth[0].macLayer.queue incomingPacketLengths:histogram:stddev 121.95795593875692
scalar GptpMasterSlave.gptpMaster.eth[0].macLayer.queue incomingPacketLengths:histogram:min 496
scalar GptpMasterSlave.gptpMaster.eth[0].macLayer.queue incomingPacketLengths:histogram:max 752
scalar GptpMasterSlave.gptpMaster.eth[0].macLayer.queue incomingPacketLengths:histogram:numbins 78
scalar GptpMasterSlave.gptpMaster.eth[0].macLayer.queue incomingPacketLengths:histogram:rangemin 430
scalar GptpMasterSlave.gptpMaster.eth[0].macLayer.queue incomingPacketLengths:histogram:rangemax 820
scalar GptpMasterSlave.gptpMaster.eth[0].macLayer.queue incomingPacketLengths:histogram:underflows 0
scalar GptpMasterSlave.gptpMaster.eth[0].macLayer.queue incomingPacketLengths:histogram:overflows 0
scalar GptpMasterSlave.gptpMaster.eth[0].macLayer.server incomingPacketLengths:histogram:count 179
scalar GptpMasterSlave.gptpMaster.eth[0].macLayer.server incomingPacketLengths:histogram:sumweights 179
scalar GptpMasterSlave.gptpMaster.eth[0].macLayer.server incomingPacketLengths:histogram:mean 617.92178770949715
scalar GptpMasterSlave.gptpMaster.eth[0].macLayer.server incomingPacketLengths:histogram:stddev 121.88876179929747
scalar GptpMasterSlave.gptpMaster.eth[0].macLayer.server incomingPacketLengths:histogram:min 496
scalar GptpMasterSlave.gptpMaster.eth[0].macLayer.server incomingPacketLengths:histogram:max 752
scalar GptpMasterSlave.gptpMaster.eth[0].macLayer.server incomingPacketLengths:histogram:numbins 78
scalar GptpMasterSlave.gptpMaster.eth[0].macLayer.server incomingPacketLengths:histogram:rangemin 430
scalar GptpMasterSlave.gptpMaster.eth[0].macLayer.server incomingPacketLengths:histogram:rangemax 820
scalar GptpMasterSlave.gptpMaster.eth[0].macLayer.server incomingPacketLengths:histogram:underflows 0
scalar GptpMasterSlave.gptpMaster.eth[0].macLayer.server incomingPacketLengths:histogram:overflows 0
scalar GptpMasterSlave.gptpMaster.eth[0].macLayer.server outgoingPacketLengths:histogram:count 179
scalar GptpMasterSlave.gptpMaster.eth[0].macLayer.server outgoingPacketLengths:histogram:sumweights 179
scalar GptpMasterSlave.gptpMaster.eth[0].macLayer.server outgoingPacketLengths:histogram:mean 617.92178770949715
scalar GptpMasterSlave.gptpMaster.eth[0].macLayer.server outgoingPacketLengths:histogram:stddev 121.88876179929747
scalar GptpMasterSlave.gptpMaster.eth[0].macLayer.server outgoingPacketLengths:histogram:min 496
scalar GptpMasterSlave.gptpMaster.eth[0].macLayer.server outgoingPacketLengths:histogram:max 752
scalar GptpMasterSlave.gptpMaster.eth[0].macLayer.server outgoingPacketLengths:histogram:numbins 78
scalar GptpMasterSlave.gptpMaster.eth[0].macLayer.server outgoingPacketLengths:histogram:rangemin 430
scalar GptpMasterSlave.gptpMaster.eth[0].macLayer.server outgoingPacketLengths:histogram:rangemax 820
scalar GptpMasterSlave.gptpMaster.eth[0].macLayer.server outgoingPacketLengths:histogram:underflows 0
scalar GptpMasterSlave.gptpMaster.eth[0].macLayer.server outgoingPacketLengths:histogram:overflows 0
scalar GptpMasterSlave.gptpMaster.eth[0].macLayer.outboundEmitter outgoingPacketLengths:histogram:count 179
scalar GptpMasterSlave.gptpMaster.eth[0].macLayer.outboundEmitter outgoingPacketLengths:histogram:sumweights 179
scalar GptpMasterSlave.gptpMaster.eth[0].macLayer.outboundEmitter outgoingPacketLengths:histogram:mean 617.92178770949715
scalar GptpMasterSlave.gptpMaster.eth[0].macLayer.outboundEmitter outgoingPacketLengths:histogram:stddev 121.88876179929747
scalar GptpMasterSlave.gptpMaster.eth[0].macLayer.outboundEmitter outgoingPacketLengths:histogram:min 496
scalar GptpMasterSlave.gptpMaster.eth[0].macLayer.outboundEmitter outgoingPacketLengths:histogram:max 752
scalar GptpMasterSlave.gptpMaster.eth[0].macLayer.outboundEmitter outgoingPacketLengths:histogram:numbins 78
scalar GptpMasterSlave.gptpMaster.eth[0].macLayer.outboundEmitter outgoingPacketLengths:histogram:rangemin 430
scalar GptpMasterSlave.gptpMaster.eth[0].macLayer.outboundEmitter outgoingPacketLengths:histogram:rangemax 820
scalar GptpMasterSlave.gptpMaster.eth[0].macLayer.outboundEmitter outgoingPacketLengths:histogram:underflows 0
scalar GptpMasterSlave.gptpMaster.eth[0].macLayer.outboundEmitter outgoingPacketLengths:histogram:overflows 0
scalar GptpMasterSlave.gptpMaster.eth[0].macLayer.outboundEmitter flowOutgoingPacketLengths:histogram:count 0
scalar GptpMasterSlave.gptpMaster.eth[0].macLayer.outboundEmitter flowOutgoingPacketLengths:histogram:sumweights 0
scalar GptpMasterSlave.gptpMaster.eth[0].macLayer.outboundEmitter flowOutgoingPacketLengths:histogram:mean -nan
scalar GptpMasterSlave.gptpMaster.eth[0].macLayer.outboundEmitter flowOutgoingPacketLengths:histogram:stddev nan
scalar GptpMasterSlave.gptpMaster.eth[0].macLayer.outboundEmitter flowOutgoingPacketLengths:histogram:min nan
scalar GptpMasterSlave.gptpMaster.eth[0].macLayer.outboundEmitter flowOutgoingPacketLengths:histogram:max nan
scalar GptpMasterSlave.gptpMaster.eth[0].macLayer.outboundEmitter flowOutgoingPacketLengths:histogram:numbins 1
scalar GptpMasterSlave.gptpMaster.eth[0].macLayer.outboundEmitter flowOutgoingPacketLengths:histogram:rangemin 0
scalar GptpMasterSlave.gptpMaster.eth[0].macLayer.outboundEmitter flowOutgoingPacketLengths:histogram:rangemax 1
scalar GptpMasterSlave.gptpMaster.eth[0].macLayer.outboundEmitter flowOutgoingPacketLengths:histogram:underflows 0
scalar GptpMasterSlave.gptpMaster.eth[0].macLayer.outboundEmitter flowOutgoingPacketLengths:histogram:overflows 0
scalar GptpMasterSlave.gptpMaster.eth[0].macLayer.outboundEmitter incomingPacketLengths:histogram:count 179
scalar GptpMasterSlave.gptpMaster.eth[0].macLayer.outboundEmitter incomingPacketLengths:histogram:sumweights 179
scalar GptpMasterSlave.gptpMaster.eth[0].macLayer.outboundEmitter incomingPacketLengths:histogram:mean 617.92178770949715
scalar GptpMasterSlave.gptpMaster.eth[0].macLayer.outboundEmitter incomingPacketLengths:histogram:stddev 121.88876179929747
scalar GptpMasterSlave.gptpMaster.eth[0].macLayer.outboundEmitter incomingPacketLengths:histogram:min 496
scalar GptpMasterSlave.gptpMaster.eth[0].macLayer.outboundEmitter incomingPacketLengths:histogram:max 752
scalar GptpMasterSlave.gptpMaster.eth[0].macLayer.outboundEmitter incomingPacketLengths:histogram:numbins 78
scalar GptpMasterSlave.gptpMaster.eth[0].macLayer.outboundEmitter incomingPacketLengths:histogram:rangemin 430
scalar GptpMasterSlave.gptpMaster.eth[0].macLayer.outboundEmitter incomingPacketLengths:histogram:rangemax 820
scalar GptpMasterSlave.gptpMaster.eth[0].macLayer.outboundEmitter incomingPacketLengths:histogram:underflows 0
scalar GptpMasterSlave.gptpMaster.eth[0].macLayer.outboundEmitter incomingPacketLengths:histogram:overflows 0
scalar GptpMasterSlave.gptpMaster.eth[0].macLayer.outboundEmitter flowIncomingPacketLengths:histogram:count 0
scalar GptpMasterSlave.gptpMaster.eth[0].macLayer.outboundEmitter flowIncomingPacketLengths:histogram:sumweights 0
scalar GptpMasterSlave.gptpMaster.eth[0].macLayer.outboundEmitter flowIncomingPacketLengths:histogram:mean -nan
scalar GptpMasterSlave.gptpMaster.eth[0].macLayer.outboundEmitter flowIncomingPacketLengths:histogram:stddev nan
scalar GptpMasterSlave.gptpMaster.eth[0].macLayer.outboundEmitter flowIncomingPacketLengths:histogram:min nan
scalar GptpMasterSlave.gptpMaster.eth[0].macLayer.outboundEmitter flowIncomingPacketLengths:histogram:max nan
scalar GptpMasterSlave.gptpMaster.eth[0].macLayer.outboundEmitter flowIncomingPacketLengths:histogram:numbins 1
scalar GptpMasterSlave.gptpMaster.eth[0].macLayer.outboundEmitter flowIncomingPacketLengths:histogram:rangemin 0
scalar GptpMasterSlave.gptpMaster.eth[0].macLayer.outboundEmitter flowIncomingPacketLengths:histogram:rangemax 1
scalar GptpMasterSlave.gptpMaster.eth[0].macLayer.outboundEmitter flowIncomingPacketLengths:histogram:underflows 0
scalar GptpMasterSlave.gptpMaster.eth[0].macLayer.outboundEmitter flowIncomingPacketLengths:histogram:overflows 0
scalar GptpMasterSlave.gptpMaster.eth[0].macLayer.fcsChecker outgoingPacketLengths:histogram:count 10
scalar GptpMasterSlave.gptpMaster.eth[0].macLayer.fcsChecker outgoingPacketLengths:histogram:sumweights 10
scalar GptpMasterSlave.gptpMaster.eth[0].macLayer.fcsChecker outgoingPacketLengths:histogram:mean 576
scalar GptpMasterSlave.gptpMaster.eth[0].macLayer.fcsChecker outgoingPacketLengths:histogram:stddev 0
scalar GptpMasterSlave.gptpMaster.eth[0].macLayer.fcsChecker outgoingPacketLengths:histogram:min 576
scalar GptpMasterSlave.gptpMaster.eth[0].macLayer.fcsChecker outgoingPacketLengths:histogram:max 576
scalar GptpMasterSlave.gptpMaster.eth[0].macLayer.fcsChecker outgoingPacketLengths:histogram:numbins 2
scalar GptpMasterSlave.gptpMaster.eth[0].macLayer.fcsChecker outgoingPacketLengths:histogram:rangemin 575
scalar GptpMasterSlave.gptpMaster.eth[0].macLayer.fcsChecker outgoingPacketLengths:histogram:rangemax 577
scalar GptpMasterSlave.gptpMaster.eth[0].macLayer.fcsChecker outgoingPacketLengths:histogram:underflows 0
scalar GptpMasterSlave.gptpMaster.eth[0].macLayer.fcsChecker outgoingPacketLengths:histogram:overflows 0
scalar GptpMasterSlave.gptpMaster.eth[0].macLayer.fcsChecker flowOutgoingPacketLengths:histogram:count 0
scalar GptpMasterSlave.gptpMaster.eth[0].macLayer.fcsChecker flowOutgoingPacketLengths:histogram:sumweights 0
scalar GptpMasterSlave.gptpMaster.eth[0].macLayer.fcsChecker flowOutgoingPacketLengths:histogram:mean -nan
scalar GptpMasterSlave.gptpMaster.eth[0].macLayer.fcsChecker flowOutgoingPacketLengths:histogram:stddev nan
scalar GptpMasterSlave.gptpMaster.eth[0].macLayer.fcsChecker flowOutgoingPacketLengths:histogram:min nan
scalar GptpMasterSlave.gptpMaster.eth[0].macLayer.fcsChecker flowOutgoingPacketLengths:histogram:max nan
scalar GptpMasterSlave.gptpMaster.eth[0].macLayer.fcsChecker flowOutgoingPacketLengths:histogram:numbins 1
scalar GptpMasterSlave.gptpMaster.eth[0].macLayer.fcsChecker flowOutgoingPacketLengths:histogram:rangemin 0
scalar GptpMasterSlave.gptpMaster.eth[0].macLayer.fcsChecker flowOutgoingPacketLengths:histogram:rangemax 1
scalar GptpMasterSlave.gptpMaster.eth[0].macLayer.fcsChecker flowOutgoingPacketLengths:histogram:underflows 0
scalar GptpMasterSlave.gptpMaster.eth[0].macLayer.fcsChecker flowOutgoingPacketLengths:histogram:overflows 0
scalar GptpMasterSlave.gptpMaster.eth[0].macLayer.fcsChecker incomingPacketLengths:histogram:count 10
scalar GptpMasterSlave.gptpMaster.eth[0].macLayer.fcsChecker incomingPacketLengths:histogram:sumweights 10
scalar GptpMasterSlave.gptpMaster.eth[0].macLayer.fcsChecker incomingPacketLengths:histogram:mean 576
scalar GptpMasterSlave.gptpMaster.eth[0].macLayer.fcsChecker incomingPacketLengths:histogram:stddev 0
scalar GptpMasterSlave.gptpMaster.eth[0].macLayer.fcsChecker incomingPacketLengths:histogram:min 576
scalar GptpMasterSlave.gptpMaster.eth[0].macLayer.fcsChecker incomingPacketLengths:histogram:max 576
scalar GptpMasterSlave.gptpMaster.eth[0].macLayer.fcsChecker incomingPacketLengths:histogram:numbins 2
scalar GptpMasterSlave.gptpMaster.eth[0].macLayer.fcsChecker incomingPacketLengths:histogram:rangemin 575
scalar GptpMasterSlave.gptpMaster.eth[0].macLayer.fcsChecker incomingPacketLengths:histogram:rangemax 577
scalar GptpMasterSlave.gptpMaster.eth[0].macLayer.fcsChecker incomingPacketLengths:histogram:underflows 0
scalar GptpMasterSlave.gptpMaster.eth[0].macLayer.fcsChecker incomingPacketLengths:histogram:overflows 0
scalar GptpMasterSlave.gptpMaster.eth[0].macLayer.fcsChecker flowIncomingPacketLengths:histogram:count 0
scalar GptpMasterSlave.gptpMaster.eth[0].macLayer.fcsChecker flowIncomingPacketLengths:histogram:sumweights 0
scalar GptpMasterSlave.gptpMaster.eth[0].macLayer.fcsChecker flowIncomingPacketLengths:histogram:mean -nan
scalar GptpMasterSlave.gptpMaster.eth[0].macLayer.fcsChecker flowIncomingPacketLengths:histogram:stddev nan
scalar GptpMasterSlave.gptpMaster.eth[0].macLayer.fcsChecker flowIncomingPacketLengths:histogram:min nan
scalar GptpMasterSlave.gptpMaster.eth[0].macLayer.fcsChecker flowIncomingPacketLengths:histogram:max nan
scalar GptpMasterSlave.gptpMaster.eth[0].macLayer.fcsChecker flowIncomingPacketLengths:histogram:numbins 1
scalar GptpMasterSlave.gptpMaster.eth[0].macLayer.fcsChecker flowIncomingPacketLengths:histogram:rangemin 0
scalar GptpMasterSlave.gptpMaster.eth[0].macLayer.fcsChecker flowIncomingPacketLengths:histogram:rangemax 1
scalar GptpMasterSlave.gptpMaster.eth[0].macLayer.fcsChecker flowIncomingPacketLengths:histogram:underflows 0
scalar GptpMasterSlave.gptpMaster.eth[0].macLayer.fcsChecker flowIncomingPacketLengths:histogram:overflows 0
scalar GptpMasterSlave.gptpMaster.eth[0].macLayer.fcsChecker droppedPacketLengths:histogram:count 0
scalar GptpMasterSlave.gptpMaster.eth[0].macLayer.fcsChecker droppedPacketLengths:histogram:sumweights 0
scalar GptpMasterSlave.gptpMaster.eth[0].macLayer.fcsChecker droppedPacketLengths:histogram:mean -nan
scalar GptpMasterSlave.gptpMaster.eth[0].macLayer.fcsChecker droppedPacketLengths:histogram:stddev nan
scalar GptpMasterSlave.gptpMaster.eth[0].macLayer.fcsChecker droppedPacketLengths:histogram:min nan
scalar GptpMasterSlave.gptpMaster.eth[0].macLayer.fcsChecker droppedPacketLengths:histogram:max nan
scalar GptpMasterSlave.gptpMaster.eth[0].macLayer.fcsChecker droppedPacketLengths:histogram:numbins 1
scalar GptpMasterSlave.gptpMaster.eth[0].macLayer.fcsChecker droppedPacketLengths:histogram:rangemin 0
scalar GptpMasterSlave.gptpMaster.eth[0].macLayer.fcsChecker droppedPacketLengths:histogram:rangemax 1
scalar GptpMasterSlave.gptpMaster.eth[0].macLayer.fcsChecker droppedPacketLengths:histogram:underflows 0
scalar GptpMasterSlave.gptpMaster.eth[0].macLayer.fcsChecker droppedPacketLengths:histogram:overflows 0
scalar GptpMasterSlave.gptpMaster.eth[0].macLayer.fcsChecker flowDroppedPacketLengths:histogram:count 0
scalar GptpMasterSlave.gptpMaster.eth[0].macLayer.fcsChecker flowDroppedPacketLengths:histogram:sumweights 0
scalar GptpMasterSlave.gptpMaster.eth[0].macLayer.fcsChecker flowDroppedPacketLengths:histogram:mean -nan
scalar GptpMasterSlave.gptpMaster.eth[0].macLayer.fcsChecker flowDroppedPacketLengths:histogram:stddev nan
scalar GptpMasterSlave.gptpMaster.eth[0].macLayer.fcsChecker flowDroppedPacketLengths:histogram:min nan
scalar GptpMasterSlave.gptpMaster.eth[0].macLayer.fcsChecker flowDroppedPacketLengths:histogram:max nan
scalar GptpMasterSlave.gptpMaster.eth[0].macLayer.fcsChecker flowDroppedPacketLengths:histogram:numbins 1
scalar GptpMasterSlave.gptpMaster.eth[0].macLayer.fcsChecker flowDroppedPacketLengths:histogram:rangemin 0
scalar GptpMasterSlave.gptpMaster.eth[0].macLayer.fcsChecker flowDroppedPacketLengths:histogram:rangemax 1
scalar GptpMasterSlave.gptpMaster.eth[0].macLayer.fcsChecker flowDroppedPacketLengths:histogram:underflows 0
scalar GptpMasterSlave.gptpMaster.eth[0].macLayer.fcsChecker flowDroppedPacketLengths:histogram:overflows 0
scalar GptpMasterSlave.gptpMaster.eth[0].macLayer.inboundEmitter outgoingPacketLengths:histogram:count 10
scalar GptpMasterSlave.gptpMaster.eth[0].macLayer.inboundEmitter outgoingPacketLengths:histogram:sumweights 10
scalar GptpMasterSlave.gptpMaster.eth[0].macLayer.inboundEmitter outgoingPacketLengths:histogram:mean 576
scalar GptpMasterSlave.gptpMaster.eth[0].macLayer.inboundEmitter outgoingPacketLengths:histogram:stddev 0
scalar GptpMasterSlave.gptpMaster.eth[0].macLayer.inboundEmitter outgoingPacketLengths:histogram:min 576
scalar GptpMasterSlave.gptpMaster.eth[0].macLayer.inboundEmitter outgoingPacketLengths:histogram:max 576
scalar GptpMasterSlave.gptpMaster.eth[0].macLayer.inboundEmitter outgoingPacketLengths:histogram:numbins 2
scalar GptpMasterSlave.gptpMaster.eth[0].macLayer.inboundEmitter outgoingPacketLengths:histogram:rangemin 575
scalar GptpMasterSlave.gptpMaster.eth[0].macLayer.inboundEmitter outgoingPacketLengths:histogram:rangemax 577
scalar GptpMasterSlave.gptpMaster.eth[0].macLayer.inboundEmitter outgoingPacketLengths:histogram:underflows 0
scalar GptpMasterSlave.gptpMaster.eth[0].macLayer.inboundEmitter outgoingPacketLengths:histogram:overflows 0
scalar GptpMasterSlave.gptpMaster.eth[0].macLayer.inboundEmitter flowOutgoingPacketLengths:histogram:count 0
scalar GptpMasterSlave.gptpMaster.eth[0].macLayer.inboundEmitter flowOutgoingPacketLengths:histogram:sumweights 0
scalar GptpMasterSlave.gptpMaster.eth[0].macLayer.inboundEmitter flowOutgoingPacketLengths:histogram:mean -nan
scalar GptpMasterSlave.gptpMaster.eth[0].macLayer.inboundEmitter flowOutgoingPacketLengths:histogram:stddev nan
scalar GptpMasterSlave.gptpMaster.eth[0].macLayer.inboundEmitter flowOutgoingPacketLengths:histogram:min nan
scalar GptpMasterSlave.gptpMaster.eth[0].macLayer.inboundEmitter flowOutgoingPacketLengths:histogram:max nan
scalar GptpMasterSlave.gptpMaster.eth[0].macLayer.inboundEmitter flowOutgoingPacketLengths:histogram:numbins 1
scalar GptpMasterSlave.gptpMaster.eth[0].macLayer.inboundEmitter flowOutgoingPacketLengths:histogram:rangemin 0
scalar GptpMasterSlave.gptpMaster.eth[0].macLayer.inboundEmitter flowOutgoingPacketLengths:histogram:rangemax 1
scalar GptpMasterSlave.gptpMaster.eth[0].macLayer.inboundEmitter flowOutgoingPacketLengths:histogram:underflows 0
scalar GptpMasterSlave.gptpMaster.eth[0].macLayer.inboundEmitter flowOutgoingPacketLengths:histogram:overflows 0
scalar GptpMasterSlave.gptpMaster.eth[0].macLayer.inboundEmitter incomingPacketLengths:histogram:count 10
scalar GptpMasterSlave.gptpMaster.eth[0].macLayer.inboundEmitter incomingPacketLengths:histogram:sumweights 10
scalar GptpMasterSlave.gptpMaster.eth[0].macLayer.inboundEmitter incomingPacketLengths:histogram:mean 576
scalar GptpMasterSlave.gptpMaster.eth[0].macLayer.inboundEmitter incomingPacketLengths:histogram:stddev 0
scalar GptpMasterSlave.gptpMaster.eth[0].macLayer.inboundEmitter incomingPacketLengths:histogram:min 576
scalar GptpMasterSlave.gptpMaster.eth[0].macLayer.inboundEmitter incomingPacketLengths:histogram:max 576
scalar GptpMasterSlave.gptpMaster.eth[0].macLayer.inboundEmitter incomingPacketLengths:histogram:numbins 2
scalar GptpMasterSlave.gptpMaster.eth[0].macLayer.inboundEmitter incomingPacketLengths:histogram:rangemin 575
scalar GptpMasterSlave.gptpMaster.eth[0].macLayer.inboundEmitter incomingPacketLengths:histogram:rangemax 577
scalar GptpMasterSlave.gptpMaster.eth[0].macLayer.inboundEmitter incomingPacketLengths:histogram:underflows 0
scalar GptpMasterSlave.gptpMaster.eth[0].macLayer.inboundEmitter incomingPacketLengths:histogram:overflows 0
scalar GptpMasterSlave.gptpMaster.eth[0].macLayer.inboundEmitter flowIncomingPacketLengths:histogram:count 0
scalar GptpMasterSlave.gptpMaster.eth[0].macLayer.inboundEmitter flowIncomingPacketLengths:histogram:sumweights 0
scalar GptpMasterSlave.gptpMaster.eth[0].macLayer.inboundEmitter flowIncomingPacketLengths:histogram:mean -nan
scalar GptpMasterSlave.gptpMaster.eth[0].macLayer.inboundEmitter flowIncomingPacketLengths:histogram:stddev nan
scalar GptpMasterSlave.gptpMaster.eth[0].macLayer.inboundEmitter flowIncomingPacketLengths:histogram:min nan
scalar GptpMasterSlave.gptpMaster.eth[0].macLayer.inboundEmitter flowIncomingPacketLengths:histogram:max nan
scalar GptpMasterSlave.gptpMaster.eth[0].macLayer.inboundEmitter flowIncomingPacketLengths:histogram:numbins 1
scalar GptpMasterSlave.gptpMaster.eth[0].macLayer.inboundEmitter flowIncomingPacketLengths:histogram:rangemin 0
scalar GptpMasterSlave.gptpMaster.eth[0].macLayer.inboundEmitter flowIncomingPacketLengths:histogram:rangemax 1
scalar GptpMasterSlave.gptpMaster.eth[0].macLayer.inboundEmitter flowIncomingPacketLengths:histogram:underflows 0
scalar GptpMasterSlave.gptpMaster.eth[0].macLayer.inboundEmitter flowIncomingPacketLengths:histogram:overflows 0
scalar GptpMasterSlave.gptpMaster.eth[0].phyLayer.phyHeaderInserter outgoingPacketLengths:histogram:count 179
scalar GptpMasterSlave.gptpMaster.eth[0].phyLayer.phyHeaderInserter outgoingPacketLengths:histogram:sumweights 179
scalar GptpMasterSlave.gptpMaster.eth[0].phyLayer.phyHeaderInserter outgoingPacketLengths:histogram:mean 681.92178770949715
scalar GptpMasterSlave.gptpMaster.eth[0].phyLayer.phyHeaderInserter outgoingPacketLengths:histogram:stddev 121.88876179929747
scalar GptpMasterSlave.gptpMaster.eth[0].phyLayer.phyHeaderInserter outgoingPacketLengths:histogram:min 560
scalar GptpMasterSlave.gptpMaster.eth[0].phyLayer.phyHeaderInserter outgoingPacketLengths:histogram:max 816
scalar GptpMasterSlave.gptpMaster.eth[0].phyLayer.phyHeaderInserter outgoingPacketLengths:histogram:numbins 77
scalar GptpMasterSlave.gptpMaster.eth[0].phyLayer.phyHeaderInserter outgoingPacketLengths:histogram:rangemin 495
scalar GptpMasterSlave.gptpMaster.eth[0].phyLayer.phyHeaderInserter outgoingPacketLengths:histogram:rangemax 880
scalar GptpMasterSlave.gptpMaster.eth[0].phyLayer.phyHeaderInserter outgoingPacketLengths:histogram:underflows 0
scalar GptpMasterSlave.gptpMaster.eth[0].phyLayer.phyHeaderInserter outgoingPacketLengths:histogram:overflows 0
scalar GptpMasterSlave.gptpMaster.eth[0].phyLayer.phyHeaderInserter flowOutgoingPacketLengths:histogram:count 0
scalar GptpMasterSlave.gptpMaster.eth[0].phyLayer.phyHeaderInserter flowOutgoingPacketLengths:histogram:sumweights 0
scalar GptpMasterSlave.gptpMaster.eth[0].phyLayer.phyHeaderInserter flowOutgoingPacketLengths:histogram:mean -nan
scalar GptpMasterSlave.gptpMaster.eth[0].phyLayer.phyHeaderInserter flowOutgoingPacketLengths:histogram:stddev nan
scalar GptpMasterSlave.gptpMaster.eth[0].phyLayer.phyHeaderInserter flowOutgoingPacketLengths:histogram:min nan
scalar GptpMasterSlave.gptpMaster.eth[0].phyLayer.phyHeaderInserter flowOutgoingPacketLengths:histogram:max nan
scalar GptpMasterSlave.gptpMaster.eth[0].phyLayer.phyHeaderInserter flowOutgoingPacketLengths:histogram:numbins 1
scalar GptpMasterSlave.gptpMaster.eth[0].phyLayer.phyHeaderInserter flowOutgoingPacketLengths:histogram:rangemin 0
scalar GptpMasterSlave.gptpMaster.eth[0].phyLayer.phyHeaderInserter flowOutgoingPacketLengths:histogram:rangemax 1
scalar GptpMasterSlave.gptpMaster.eth[0].phyLayer.phyHeaderInserter flowOutgoingPacketLengths:histogram:underflows 0
scalar GptpMasterSlave.gptpMaster.eth[0].phyLayer.phyHeaderInserter flowOutgoingPacketLengths:histogram:overflows 0
scalar GptpMasterSlave.gptpMaster.eth[0].phyLayer.phyHeaderInserter incomingPacketLengths:histogram:count 179
scalar GptpMasterSlave.gptpMaster.eth[0].phyLayer.phyHeaderInserter incomingPacketLengths:histogram:sumweights 179
scalar GptpMasterSlave.gptpMaster.eth[0].phyLayer.phyHeaderInserter incomingPacketLengths:histogram:mean 617.92178770949715
scalar GptpMasterSlave.gptpMaster.eth[0].phyLayer.phyHeaderInserter incomingPacketLengths:histogram:stddev 121.88876179929747
scalar GptpMasterSlave.gptpMaster.eth[0].phyLayer.phyHeaderInserter incomingPacketLengths:histogram:min 496
scalar GptpMasterSlave.gptpMaster.eth[0].phyLayer.phyHeaderInserter incomingPacketLengths:histogram:max 752
scalar GptpMasterSlave.gptpMaster.eth[0].phyLayer.phyHeaderInserter incomingPacketLengths:histogram:numbins 78
scalar GptpMasterSlave.gptpMaster.eth[0].phyLayer.phyHeaderInserter incomingPacketLengths:histogram:rangemin 430
scalar GptpMasterSlave.gptpMaster.eth[0].phyLayer.phyHeaderInserter incomingPacketLengths:histogram:rangemax 820
scalar GptpMasterSlave.gptpMaster.eth[0].phyLayer.phyHeaderInserter incomingPacketLengths:histogram:underflows 0
scalar GptpMasterSlave.gptpMaster.eth[0].phyLayer.phyHeaderInserter incomingPacketLengths:histogram:overflows 0
scalar GptpMasterSlave.gptpMaster.eth[0].phyLayer.phyHeaderInserter flowIncomingPacketLengths:histogram:count 0
scalar GptpMasterSlave.gptpMaster.eth[0].phyLayer.phyHeaderInserter flowIncomingPacketLengths:histogram:sumweights 0
scalar GptpMasterSlave.gptpMaster.eth[0].phyLayer.phyHeaderInserter flowIncomingPacketLengths:histogram:mean -nan
scalar GptpMasterSlave.gptpMaster.eth[0].phyLayer.phyHeaderInserter flowIncomingPacketLengths:histogram:stddev nan
scalar GptpMasterSlave.gptpMaster.eth[0].phyLayer.phyHeaderInserter flowIncomingPacketLengths:histogram:min nan
scalar GptpMasterSlave.gptpMaster.eth[0].phyLayer.phyHeaderInserter flowIncomingPacketLengths:histogram:max nan
scalar GptpMasterSlave.gptpMaster.eth[0].phyLayer.phyHeaderInserter flowIncomingPacketLengths:histogram:numbins 1
scalar GptpMasterSlave.gptpMaster.eth[0].phyLayer.phyHeaderInserter flowIncomingPacketLengths:histogram:rangemin 0
scalar GptpMasterSlave.gptpMaster.eth[0].phyLayer.phyHeaderInserter flowIncomingPacketLengths:histogram:rangemax 1
scalar GptpMasterSlave.gptpMaster.eth[0].phyLayer.phyHeaderInserter flowIncomingPacketLengths:histogram:underflows 0
scalar GptpMasterSlave.gptpMaster.eth[0].phyLayer.phyHeaderInserter flowIncomingPacketLengths:histogram:overflows 0
scalar GptpMasterSlave.gptpMaster.eth[0].phyLayer.outboundEmitter outgoingPacketLengths:histogram:count 179
scalar GptpMasterSlave.gptpMaster.eth[0].phyLayer.outboundEmitter outgoingPacketLengths:histogram:sumweights 179
scalar GptpMasterSlave.gptpMaster.eth[0].phyLayer.outboundEmitter outgoingPacketLengths:histogram:mean 681.92178770949715
scalar GptpMasterSlave.gptpMaster.eth[0].phyLayer.outboundEmitter outgoingPacketLengths:histogram:stddev 121.88876179929747
scalar GptpMasterSlave.gptpMaster.eth[0].phyLayer.outboundEmitter outgoingPacketLengths:histogram:min 560
scalar GptpMasterSlave.gptpMaster.eth[0].phyLayer.outboundEmitter outgoingPacketLengths:histogram:max 816
scalar GptpMasterSlave.gptpMaster.eth[0].phyLayer.outboundEmitter outgoingPacketLengths:histogram:numbins 77
scalar GptpMasterSlave.gptpMaster.eth[0].phyLayer.outboundEmitter outgoingPacketLengths:histogram:rangemin 495
scalar GptpMasterSlave.gptpMaster.eth[0].phyLayer.outboundEmitter outgoingPacketLengths:histogram:rangemax 880
scalar GptpMasterSlave.gptpMaster.eth[0].phyLayer.outboundEmitter outgoingPacketLengths:histogram:underflows 0
scalar GptpMasterSlave.gptpMaster.eth[0].phyLayer.outboundEmitter outgoingPacketLengths:histogram:overflows 0
scalar GptpMasterSlave.gptpMaster.eth[0].phyLayer.outboundEmitter flowOutgoingPacketLengths:histogram:count 0
scalar GptpMasterSlave.gptpMaster.eth[0].phyLayer.outboundEmitter flowOutgoingPacketLengths:histogram:sumweights 0
scalar GptpMasterSlave.gptpMaster.eth[0].phyLayer.outboundEmitter flowOutgoingPacketLengths:histogram:mean -nan
scalar GptpMasterSlave.gptpMaster.eth[0].phyLayer.outboundEmitter flowOutgoingPacketLengths:histogram:stddev nan
scalar GptpMasterSlave.gptpMaster.eth[0].phyLayer.outboundEmitter flowOutgoingPacketLengths:histogram:min nan
scalar GptpMasterSlave.gptpMaster.eth[0].phyLayer.outboundEmitter flowOutgoingPacketLengths:histogram:max nan
scalar GptpMasterSlave.gptpMaster.eth[0].phyLayer.outboundEmitter flowOutgoingPacketLengths:histogram:numbins 1
scalar GptpMasterSlave.gptpMaster.eth[0].phyLayer.outboundEmitter flowOutgoingPacketLengths:histogram:rangemin 0
scalar GptpMasterSlave.gptpMaster.eth[0].phyLayer.outboundEmitter flowOutgoingPacketLengths:histogram:rangemax 1
scalar GptpMasterSlave.gptpMaster.eth[0].phyLayer.outboundEmitter flowOutgoingPacketLengths:histogram:underflows 0
scalar GptpMasterSlave.gptpMaster.eth[0].phyLayer.outboundEmitter flowOutgoingPacketLengths:histogram:overflows 0
scalar GptpMasterSlave.gptpMaster.eth[0].phyLayer.outboundEmitter incomingPacketLengths:histogram:count 179
scalar GptpMasterSlave.gptpMaster.eth[0].phyLayer.outboundEmitter incomingPacketLengths:histogram:sumweights 179
scalar GptpMasterSlave.gptpMaster.eth[0].phyLayer.outboundEmitter incomingPacketLengths:histogram:mean 681.92178770949715
scalar GptpMasterSlave.gptpMaster.eth[0].phyLayer.outboundEmitter incomingPacketLengths:histogram:stddev 121.88876179929747
scalar GptpMasterSlave.gptpMaster.eth[0].phyLayer.outboundEmitter incomingPacketLengths:histogram:min 560
scalar GptpMasterSlave.gptpMaster.eth[0].phyLayer.outboundEmitter incomingPacketLengths:histogram:max 816
scalar GptpMasterSlave.gptpMaster.eth[0].phyLayer.outboundEmitter incomingPacketLengths:histogram:numbins 77
scalar GptpMasterSlave.gptpMaster.eth[0].phyLayer.outboundEmitter incomingPacketLengths:histogram:rangemin 495
scalar GptpMasterSlave.gptpMaster.eth[0].phyLayer.outboundEmitter incomingPacketLengths:histogram:rangemax 880
scalar GptpMasterSlave.gptpMaster.eth[0].phyLayer.outboundEmitter incomingPacketLengths:histogram:underflows 0
scalar GptpMasterSlave.gptpMaster.eth[0].phyLayer.outboundEmitter incomingPacketLengths:histogram:overflows 0
scalar GptpMasterSlave.gptpMaster.eth[0].phyLayer.outboundEmitter flowIncomingPacketLengths:histogram:count 0
scalar GptpMasterSlave.gptpMaster.eth[0].phyLayer.outboundEmitter flowIncomingPacketLengths:histogram:sumweights 0
scalar GptpMasterSlave.gptpMaster.eth[0].phyLayer.outboundEmitter flowIncomingPacketLengths:histogram:mean -nan
scalar GptpMasterSlave.gptpMaster.eth[0].phyLayer.outboundEmitter flowIncomingPacketLengths:histogram:stddev nan
scalar GptpMasterSlave.gptpMaster.eth[0].phyLayer.outboundEmitter flowIncomingPacketLengths:histogram:min nan
scalar GptpMasterSlave.gptpMaster.eth[0].phyLayer.outboundEmitter flowIncomingPacketLengths:histogram:max nan
scalar GptpMasterSlave.gptpMaster.eth[0].phyLayer.outboundEmitter flowIncomingPacketLengths:histogram:numbins 1
scalar GptpMasterSlave.gptpMaster.eth[0].phyLayer.outboundEmitter flowIncomingPacketLengths:histogram:rangemin 0
scalar GptpMasterSlave.gptpMaster.eth[0].phyLayer.outboundEmitter flowIncomingPacketLengths:histogram:rangemax 1
scalar GptpMasterSlave.gptpMaster.eth[0].phyLayer.outboundEmitter flowIncomingPacketLengths:histogram:underflows 0
scalar GptpMasterSlave.gptpMaster.eth[0].phyLayer.outboundEmitter flowIncomingPacketLengths:histogram:overflows 0
scalar GptpMasterSlave.gptpMaster.eth[0].phyLayer.transmitter throughput:histogram:count 100
scalar GptpMasterSlave.gptpMaster.eth[0].phyLayer.transmitter throughput:histogram:sumweights 100
scalar GptpMasterSlave.gptpMaster.eth[0].phyLayer.transmitter throughput:histogram:mean 12150.4
scalar GptpMasterSlave.gptpMaster.eth[0].phyLayer.transmitter throughput:histogram:stddev 7108.9304939404756
scalar GptpMasterSlave.gptpMaster.eth[0].phyLayer.transmitter throughput:histogram:min 0
scalar GptpMasterSlave.gptpMaster.eth[0].phyLayer.transmitter throughput:histogram:max 26560
scalar GptpMasterSlave.gptpMaster.eth[0].phyLayer.transmitter throughput:histogram:numbins 67
scalar GptpMasterSlave.gptpMaster.eth[0].phyLayer.transmitter throughput:histogram:rangemin 0
scalar GptpMasterSlave.gptpMaster.eth[0].phyLayer.transmitter throughput:histogram:rangemax 33500
scalar GptpMasterSlave.gptpMaster.eth[0].phyLayer.transmitter throughput:histogram:underflows 0
scalar GptpMasterSlave.gptpMaster.eth[0].phyLayer.transmitter throughput:histogram:overflows 0
scalar GptpMasterSlave.gptpMaster.eth[0].phyLayer.transmitter utilization:histogram:count 100
scalar GptpMasterSlave.gptpMaster.eth[0].phyLayer.transmitter utilization:histogram:sumweights 100
scalar GptpMasterSlave.gptpMaster.eth[0].phyLayer.transmitter utilization:histogram:mean 0.012150399999999997
scalar GptpMasterSlave.gptpMaster.eth[0].phyLayer.transmitter utilization:histogram:stddev 0.0071089304939404739
scalar GptpMasterSlave.gptpMaster.eth[0].phyLayer.transmitter utilization:histogram:min 0
scalar GptpMasterSlave.gptpMaster.eth[0].phyLayer.transmitter utilization:histogram:max 0.02656
scalar GptpMasterSlave.gptpMaster.eth[0].phyLayer.transmitter utilization:histogram:numbins 67
scalar GptpMasterSlave.gptpMaster.eth[0].phyLayer.transmitter utilization:histogram:rangemin 0
scalar GptpMasterSlave.gptpMaster.eth[0].phyLayer.transmitter utilization:histogram:rangemax 0.033500000000000002
scalar GptpMasterSlave.gptpMaster.eth[0].phyLayer.transmitter utilization:histogram:underflows 0
scalar GptpMasterSlave.gptpMaster.eth[0].phyLayer.transmitter utilization:histogram:overflows 0
scalar GptpMasterSlave.gptpMaster.eth[0].phyLayer.transmitter transmissionTime:histogram:count 178
scalar GptpMasterSlave.gptpMaster.eth[0].phyLayer.transmitter transmissionTime:histogram:sumweights 178
scalar GptpMasterSlave.gptpMaster.eth[0].phyLayer.transmitter transmissionTime:histogram:mean 6.8260674157303303e-06
scalar GptpMasterSlave.gptpMaster.eth[0].phyLayer.transmitter transmissionTime:histogram:stddev 1.2188663974630736e-06
scalar GptpMasterSlave.gptpMaster.eth[0].phyLayer.transmitter transmissionTime:histogram:min 5.6000000000000006e-06
scalar GptpMasterSlave.gptpMaster.eth[0].phyLayer.transmitter transmissionTime:histogram:max 8.1599999999999998e-06
scalar GptpMasterSlave.gptpMaster.eth[0].phyLayer.transmitter transmissionTime:histogram:numbins 77
scalar GptpMasterSlave.gptpMaster.eth[0].phyLayer.transmitter transmissionTime:histogram:rangemin 4.9500000000000009e-06
scalar GptpMasterSlave.gptpMaster.eth[0].phyLayer.transmitter transmissionTime:histogram:rangemax 8.8000000000000021e-06
scalar GptpMasterSlave.gptpMaster.eth[0].phyLayer.transmitter transmissionTime:histogram:underflows 0
scalar GptpMasterSlave.gptpMaster.eth[0].phyLayer.transmitter transmissionTime:histogram:overflows 0
scalar GptpMasterSlave.gptpMaster.eth[0].phyLayer.transmitter flowTransmissionTime:histogram:count 0
scalar GptpMasterSlave.gptpMaster.eth[0].phyLayer.transmitter flowTransmissionTime:histogram:sumweights 0
scalar GptpMasterSlave.gptpMaster.eth[0].phyLayer.transmitter flowTransmissionTime:histogram:mean -nan
scalar GptpMasterSlave.gptpMaster.eth[0].phyLayer.transmitter flowTransmissionTime:histogram:stddev nan
scalar GptpMasterSlave.gptpMaster.eth[0].phyLayer.transmitter flowTransmissionTime:histogram:min nan
scalar GptpMasterSlave.gptpMaster.eth[0].phyLayer.transmitter flowTransmissionTime:histogram:max nan
scalar GptpMasterSlave.gptpMaster.eth[0].phyLayer.transmitter flowTransmissionTime:histogram:numbins 1
scalar GptpMasterSlave.gptpMaster.eth[0].phyLayer.transmitter flowTransmissionTime:histogram:rangemin 0
scalar GptpMasterSlave.gptpMaster.eth[0].phyLayer.transmitter flowTransmissionTime:histogram:rangemax 1
scalar GptpMasterSlave.gptpMaster.eth[0].phyLayer.transmitter flowTransmissionTime:histogram:underflows 0
scalar GptpMasterSlave.gptpMaster.eth[0].phyLayer.transmitter flowTransmissionTime:histogram:overflows 0
scalar GptpMasterSlave.gptpMaster.eth[0].phyLayer.phyHeaderChecker outgoingPacketLengths:histogram:count 10
scalar GptpMasterSlave.gptpMaster.eth[0].phyLayer.phyHeaderChecker outgoingPacketLengths:histogram:sumweights 10
scalar GptpMasterSlave.gptpMaster.eth[0].phyLayer.phyHeaderChecker outgoingPacketLengths:histogram:mean 576
scalar GptpMasterSlave.gptpMaster.eth[0].phyLayer.phyHeaderChecker outgoingPacketLengths:histogram:stddev 0
scalar GptpMasterSlave.gptpMaster.eth[0].phyLayer.phyHeaderChecker outgoingPacketLengths:histogram:min 576
scalar GptpMasterSlave.gptpMaster.eth[0].phyLayer.phyHeaderChecker outgoingPacketLengths:histogram:max 576
scalar GptpMasterSlave.gptpMaster.eth[0].phyLayer.phyHeaderChecker outgoingPacketLengths:histogram:numbins 2
scalar GptpMasterSlave.gptpMaster.eth[0].phyLayer.phyHeaderChecker outgoingPacketLengths:histogram:rangemin 575
scalar GptpMasterSlave.gptpMaster.eth[0].phyLayer.phyHeaderChecker outgoingPacketLengths:histogram:rangemax 577
scalar GptpMasterSlave.gptpMaster.eth[0].phyLayer.phyHeaderChecker outgoingPacketLengths:histogram:underflows 0
scalar GptpMasterSlave.gptpMaster.eth[0].phyLayer.phyHeaderChecker outgoingPacketLengths:histogram:overflows 0
scalar GptpMasterSlave.gptpMaster.eth[0].phyLayer.phyHeaderChecker flowOutgoingPacketLengths:histogram:count 0
scalar GptpMasterSlave.gptpMaster.eth[0].phyLayer.phyHeaderChecker flowOutgoingPacketLengths:histogram:sumweights 0
scalar GptpMasterSlave.gptpMaster.eth[0].phyLayer.phyHeaderChecker flowOutgoingPacketLengths:histogram:mean -nan
scalar GptpMasterSlave.gptpMaster.eth[0].phyLayer.phyHeaderChecker flowOutgoingPacketLengths:histogram:stddev nan
scalar GptpMasterSlave.gptpMaster.eth[0].phyLayer.phyHeaderChecker flowOutgoingPacketLengths:histogram:min nan
scalar GptpMasterSlave.gptpMaster.eth[0].phyLayer.phyHeaderChecker flowOutgoingPacketLengths:histogram:max nan
scalar GptpMasterSlave.gptpMaster.eth[0].phyLayer.phyHeaderChecker flowOutgoingPacketLengths:histogram:numbins 1
scalar GptpMasterSlave.gptpMaster.eth[0].phyLayer.phyHeaderChecker flowOutgoingPacketLengths:histogram:rangemin 0
scalar GptpMasterSlave.gptpMaster.eth[0].phyLayer.phyHeaderChecker flowOutgoingPacketLengths:histogram:rangemax 1
scalar GptpMasterSlave.gptpMaster.eth[0].phyLayer.phyHeaderChecker flowOutgoingPacketLengths:histogram:underflows 0
scalar GptpMasterSlave.gptpMaster.eth[0].phyLayer.phyHeaderChecker flowOutgoingPacketLengths:histogram:overflows 0
scalar GptpMasterSlave.gptpMaster.eth[0].phyLayer.phyHeaderChecker incomingPacketLengths:histogram:count 10
scalar GptpMasterSlave.gptpMaster.eth[0].phyLayer.phyHeaderChecker incomingPacketLengths:histogram:sumweights 10
scalar GptpMasterSlave.gptpMaster.eth[0].phyLayer.phyHeaderChecker incomingPacketLengths:histogram:mean 640
scalar GptpMasterSlave.gptpMaster.eth[0].phyLayer.phyHeaderChecker incomingPacketLengths:histogram:stddev 0
scalar GptpMasterSlave.gptpMaster.eth[0].phyLayer.phyHeaderChecker incomingPacketLengths:histogram:min 640
scalar GptpMasterSlave.gptpMaster.eth[0].phyLayer.phyHeaderChecker incomingPacketLengths:histogram:max 640
scalar GptpMasterSlave.gptpMaster.eth[0].phyLayer.phyHeaderChecker incomingPacketLengths:histogram:numbins 2
scalar GptpMasterSlave.gptpMaster.eth[0].phyLayer.phyHeaderChecker incomingPacketLengths:histogram:rangemin 639
scalar GptpMasterSlave.gptpMaster.eth[0].phyLayer.phyHeaderChecker incomingPacketLengths:histogram:rangemax 641
scalar GptpMasterSlave.gptpMaster.eth[0].phyLayer.phyHeaderChecker incomingPacketLengths:histogram:underflows 0
scalar GptpMasterSlave.gptpMaster.eth[0].phyLayer.phyHeaderChecker incomingPacketLengths:histogram:overflows 0
scalar GptpMasterSlave.gptpMaster.eth[0].phyLayer.phyHeaderChecker flowIncomingPacketLengths:histogram:count 0
scalar GptpMasterSlave.gptpMaster.eth[0].phyLayer.phyHeaderChecker flowIncomingPacketLengths:histogram:sumweights 0
scalar GptpMasterSlave.gptpMaster.eth[0].phyLayer.phyHeaderChecker flowIncomingPacketLengths:histogram:mean -nan
scalar GptpMasterSlave.gptpMaster.eth[0].phyLayer.phyHeaderChecker flowIncomingPacketLengths:histogram:stddev nan
scalar GptpMasterSlave.gptpMaster.eth[0].phyLayer.phyHeaderChecker flowIncomingPacketLengths:histogram:min nan
scalar GptpMasterSlave.gptpMaster.eth[0].phyLayer.phyHeaderChecker flowIncomingPacketLengths:histogram:max nan
scalar GptpMasterSlave.gptpMaster.eth[0].phyLayer.phyHeaderChecker flowIncomingPacketLengths:histogram:numbins 1
scalar GptpMasterSlave.gptpMaster.eth[0].phyLayer.phyHeaderChecker flowIncomingPacketLengths:histogram:rangemin 0
scalar GptpMasterSlave.gptpMaster.eth[0].phyLayer.phyHeaderChecker flowIncomingPacketLengths:histogram:rangemax 1
scalar GptpMasterSlave.gptpMaster.eth[0].phyLayer.phyHeaderChecker flowIncomingPacketLengths:histogram:underflows 0
scalar GptpMasterSlave.gptpMaster.eth[0].phyLayer.phyHeaderChecker flowIncomingPacketLengths:histogram:overflows 0
scalar GptpMasterSlave.gptpMaster.eth[0].phyLayer.phyHeaderChecker droppedPacketLengths:histogram:count 0
scalar GptpMasterSlave.gptpMaster.eth[0].phyLayer.phyHeaderChecker droppedPacketLengths:histogram:sumweights 0
scalar GptpMasterSlave.gptpMaster.eth[0].phyLayer.phyHeaderChecker droppedPacketLengths:histogram:mean -nan
scalar GptpMasterSlave.gptpMaster.eth[0].phyLayer.phyHeaderChecker droppedPacketLengths:histogram:stddev nan
scalar GptpMasterSlave.gptpMaster.eth[0].phyLayer.phyHeaderChecker droppedPacketLengths:histogram:min nan
scalar GptpMasterSlave.gptpMaster.eth[0].phyLayer.phyHeaderChecker droppedPacketLengths:histogram:max nan
scalar GptpMasterSlave.gptpMaster.eth[0].phyLayer.phyHeaderChecker droppedPacketLengths:histogram:numbins 1
scalar GptpMasterSlave.gptpMaster.eth[0].phyLayer.phyHeaderChecker droppedPacketLengths:histogram:rangemin 0
scalar GptpMasterSlave.gptpMaster.eth[0].phyLayer.phyHeaderChecker droppedPacketLengths:histogram:rangemax 1
scalar GptpMasterSlave.gptpMaster.eth[0].phyLayer.phyHeaderChecker droppedPacketLengths:histogram:underflows 0
scalar GptpMasterSlave.gptpMaster.eth[0].phyLayer.phyHeaderChecker droppedPacketLengths:histogram:overflows 0
scalar GptpMasterSlave.gptpMaster.eth[0].phyLayer.phyHeaderChecker flowDroppedPacketLengths:histogram:count 0
scalar GptpMasterSlave.gptpMaster.eth[0].phyLayer.phyHeaderChecker flowDroppedPacketLengths:histogram:sumweights 0
scalar GptpMasterSlave.gptpMaster.eth[0].phyLayer.phyHeaderChecker flowDroppedPacketLengths:histogram:mean -nan
scalar GptpMasterSlave.gptpMaster.eth[0].phyLayer.phyHeaderChecker flowDroppedPacketLengths:histogram:stddev nan
scalar GptpMasterSlave.gptpMaster.eth[0].phyLayer.phyHeaderChecker flowDroppedPacketLengths:histogram:min nan
scalar GptpMasterSlave.gptpMaster.eth[0].phyLayer.phyHeaderChecker flowDroppedPacketLengths:histogram:max nan
scalar GptpMasterSlave.gptpMaster.eth[0].phyLayer.phyHeaderChecker flowDroppedPacketLengths:histogram:numbins 1
scalar GptpMasterSlave.gptpMaster.eth[0].phyLayer.phyHeaderChecker flowDroppedPacketLengths:histogram:rangemin 0
scalar GptpMasterSlave.gptpMaster.eth[0].phyLayer.phyHeaderChecker flowDroppedPacketLengths:histogram:rangemax 1
scalar GptpMasterSlave.gptpMaster.eth[0].phyLayer.phyHeaderChecker flowDroppedPacketLengths:histogram:underflows 0
scalar GptpMasterSlave.gptpMaster.eth[0].phyLayer.phyHeaderChecker flowDroppedPacketLengths:histogram:overflows 0
scalar GptpMasterSlave.gptpMaster.eth[0].phyLayer.inboundEmitter outgoingPacketLengths:histogram:count 10
scalar GptpMasterSlave.gptpMaster.eth[0].phyLayer.inboundEmitter outgoingPacketLengths:histogram:sumweights 10
scalar GptpMasterSlave.gptpMaster.eth[0].phyLayer.inboundEmitter outgoingPacketLengths:histogram:mean 640
scalar GptpMasterSlave.gptpMaster.eth[0].phyLayer.inboundEmitter outgoingPacketLengths:histogram:stddev 0
scalar GptpMasterSlave.gptpMaster.eth[0].phyLayer.inboundEmitter outgoingPacketLengths:histogram:min 640
scalar GptpMasterSlave.gptpMaster.eth[0].phyLayer.inboundEmitter outgoingPacketLengths:histogram:max 640
scalar GptpMasterSlave.gptpMaster.eth[0].phyLayer.inboundEmitter outgoingPacketLengths:histogram:numbins 2
scalar GptpMasterSlave.gptpMaster.eth[0].phyLayer.inboundEmitter outgoingPacketLengths:histogram:rangemin 639
scalar GptpMasterSlave.gptpMaster.eth[0].phyLayer.inboundEmitter outgoingPacketLengths:histogram:rangemax 641
scalar GptpMasterSlave.gptpMaster.eth[0].phyLayer.inboundEmitter outgoingPacketLengths:histogram:underflows 0
scalar GptpMasterSlave.gptpMaster.eth[0].phyLayer.inboundEmitter outgoingPacketLengths:histogram:overflows 0
scalar GptpMasterSlave.gptpMaster.eth[0].phyLayer.inboundEmitter flowOutgoingPacketLengths:histogram:count 0
scalar GptpMasterSlave.gptpMaster.eth[0].phyLayer.inboundEmitter flowOutgoingPacketLengths:histogram:sumweights 0
scalar GptpMasterSlave.gptpMaster.eth[0].phyLayer.inboundEmitter flowOutgoingPacketLengths:histogram:mean -nan
scalar GptpMasterSlave.gptpMaster.eth[0].phyLayer.inboundEmitter flowOutgoingPacketLengths:histogram:stddev nan
scalar GptpMasterSlave.gptpMaster.eth[0].phyLayer.inboundEmitter flowOutgoingPacketLengths:histogram:min nan
scalar GptpMasterSlave.gptpMaster.eth[0].phyLayer.inboundEmitter flowOutgoingPacketLengths:histogram:max nan
scalar GptpMasterSlave.gptpMaster.eth[0].phyLayer.inboundEmitter flowOutgoingPacketLengths:histogram:numbins 1
scalar GptpMasterSlave.gptpMaster.eth[0].phyLayer.inboundEmitter flowOutgoingPacketLengths:histogram:rangemin 0
scalar GptpMasterSlave.gptpMaster.eth[0].phyLayer.inboundEmitter flowOutgoingPacketLengths:histogram:rangemax 1
scalar GptpMasterSlave.gptpMaster.eth[0].phyLayer.inboundEmitter flowOutgoingPacketLengths:histogram:underflows 0
scalar GptpMasterSlave.gptpMaster.eth[0].phyLayer.inboundEmitter flowOutgoingPacketLengths:histogram:overflows 0
scalar GptpMasterSlave.gptpMaster.eth[0].phyLayer.inboundEmitter incomingPacketLengths:histogram:count 10
scalar GptpMasterSlave.gptpMaster.eth[0].phyLayer.inboundEmitter incomingPacketLengths:histogram:sumweights 10
scalar GptpMasterSlave.gptpMaster.eth[0].phyLayer.inboundEmitter incomingPacketLengths:histogram:mean 640
scalar GptpMasterSlave.gptpMaster.eth[0].phyLayer.inboundEmitter incomingPacketLengths:histogram:stddev 0
scalar GptpMasterSlave.gptpMaster.eth[0].phyLayer.inboundEmitter incomingPacketLengths:histogram:min 640
scalar GptpMasterSlave.gptpMaster.eth[0].phyLayer.inboundEmitter incomingPacketLengths:histogram:max 640
scalar GptpMasterSlave.gptpMaster.eth[0].phyLayer.inboundEmitter incomingPacketLengths:histogram:numbins 2
scalar GptpMasterSlave.gptpMaster.eth[0].phyLayer.inboundEmitter incomingPacketLengths:histogram:rangemin 639
scalar GptpMasterSlave.gptpMaster.eth[0].phyLayer.inboundEmitter incomingPacketLengths:histogram:rangemax 641
scalar GptpMasterSlave.gptpMaster.eth[0].phyLayer.inboundEmitter incomingPacketLengths:histogram:underflows 0
scalar GptpMasterSlave.gptpMaster.eth[0].phyLayer.inboundEmitter incomingPacketLengths:histogram:overflows 0
scalar GptpMasterSlave.gptpMaster.eth[0].phyLayer.inboundEmitter flowIncomingPacketLengths:histogram:count 0
scalar GptpMasterSlave.gptpMaster.eth[0].phyLayer.inboundEmitter flowIncomingPacketLengths:histogram:sumweights 0
scalar GptpMasterSlave.gptpMaster.eth[0].phyLayer.inboundEmitter flowIncomingPacketLengths:histogram:mean -nan
scalar GptpMasterSlave.gptpMaster.eth[0].phyLayer.inboundEmitter flowIncomingPacketLengths:histogram:stddev nan
scalar GptpMasterSlave.gptpMaster.eth[0].phyLayer.inboundEmitter flowIncomingPacketLengths:histogram:min nan
scalar GptpMasterSlave.gptpMaster.eth[0].phyLayer.inboundEmitter flowIncomingPacketLengths:histogram:max nan
scalar GptpMasterSlave.gptpMaster.eth[0].phyLayer.inboundEmitter flowIncomingPacketLengths:histogram:numbins 1
scalar GptpMasterSlave.gptpMaster.eth[0].phyLayer.inboundEmitter flowIncomingPacketLengths:histogram:rangemin 0
scalar GptpMasterSlave.gptpMaster.eth[0].phyLayer.inboundEmitter flowIncomingPacketLengths:histogram:rangemax 1
scalar GptpMasterSlave.gptpMaster.eth[0].phyLayer.inboundEmitter flowIncomingPacketLengths:histogram:underflows 0
scalar GptpMasterSlave.gptpMaster.eth[0].phyLayer.inboundEmitter flowIncomingPacketLengths:histogram:overflows 0
scalar GptpMasterSlave.gptpMaster.eth[0].phyLayer.receiver throughput:histogram:count 100
scalar GptpMasterSlave.gptpMaster.eth[0].phyLayer.receiver throughput:histogram:sumweights 100
scalar GptpMasterSlave.gptpMaster.eth[0].phyLayer.receiver throughput:histogram:mean 640
scalar GptpMasterSlave.gptpMaster.eth[0].phyLayer.receiver throughput:histogram:stddev 1929.6726052976871
scalar GptpMasterSlave.gptpMaster.eth[0].phyLayer.receiver throughput:histogram:min 0
scalar GptpMasterSlave.gptpMaster.eth[0].phyLayer.receiver throughput:histogram:max 6400
scalar GptpMasterSlave.gptpMaster.eth[0].phyLayer.receiver throughput:histogram:numbins 80
scalar GptpMasterSlave.gptpMaster.eth[0].phyLayer.receiver throughput:histogram:rangemin 0
scalar GptpMasterSlave.gptpMaster.eth[0].phyLayer.receiver throughput:histogram:rangemax 8000
scalar GptpMasterSlave.gptpMaster.eth[0].phyLayer.receiver throughput:histogram:underflows 0
scalar GptpMasterSlave.gptpMaster.eth[0].phyLayer.receiver throughput:histogram:overflows 0
scalar GptpMasterSlave.gptpMaster.eth[0].phyLayer.receiver receptionTime:histogram:count 10
scalar GptpMasterSlave.gptpMaster.eth[0].phyLayer.receiver receptionTime:histogram:sumweights 10
scalar GptpMasterSlave.gptpMaster.eth[0].phyLayer.receiver receptionTime:histogram:mean 6.4000000000000014e-06
scalar GptpMasterSlave.gptpMaster.eth[0].phyLayer.receiver receptionTime:histogram:stddev 0
scalar GptpMasterSlave.gptpMaster.eth[0].phyLayer.receiver receptionTime:histogram:min 6.4000000000000006e-06
scalar GptpMasterSlave.gptpMaster.eth[0].phyLayer.receiver receptionTime:histogram:max 6.4000000000000006e-06
scalar GptpMasterSlave.gptpMaster.eth[0].phyLayer.receiver receptionTime:histogram:numbins 51
scalar GptpMasterSlave.gptpMaster.eth[0].phyLayer.receiver receptionTime:histogram:rangemin 0
scalar GptpMasterSlave.gptpMaster.eth[0].phyLayer.receiver receptionTime:histogram:rangemax 0.51000000000000001
scalar GptpMasterSlave.gptpMaster.eth[0].phyLayer.receiver receptionTime:histogram:underflows 0
scalar GptpMasterSlave.gptpMaster.eth[0].phyLayer.receiver receptionTime:histogram:overflows 0
scalar GptpMasterSlave.gptpMaster.eth[0].phyLayer.receiver flowReceptionTime:histogram:count 0
scalar GptpMasterSlave.gptpMaster.eth[0].phyLayer.receiver flowReceptionTime:histogram:sumweights 0
scalar GptpMasterSlave.gptpMaster.eth[0].phyLayer.receiver flowReceptionTime:histogram:mean -nan
scalar GptpMasterSlave.gptpMaster.eth[0].phyLayer.receiver flowReceptionTime:histogram:stddev nan
scalar GptpMasterSlave.gptpMaster.eth[0].phyLayer.receiver flowReceptionTime:histogram:min nan
scalar GptpMasterSlave.gptpMaster.eth[0].phyLayer.receiver flowReceptionTime:histogram:max nan
scalar GptpMasterSlave.gptpMaster.eth[0].phyLayer.receiver flowReceptionTime:histogram:numbins 1
scalar GptpMasterSlave.gptpMaster.eth[0].phyLayer.receiver flowReceptionTime:histogram:rangemin 0
scalar GptpMasterSlave.gptpMaster.eth[0].phyLayer.receiver flowReceptionTime:histogram:rangemax 1
scalar GptpMasterSlave.gptpMaster.eth[0].phyLayer.receiver flowReceptionTime:histogram:underflows 0
scalar GptpMasterSlave.gptpMaster.eth[0].phyLayer.receiver flowReceptionTime:histogram:overflows 0
scalar GptpMasterSlave.gptpSlave.eth[0].macLayer.queue queueingTime:histogram:count 10
scalar GptpMasterSlave.gptpSlave.eth[0].macLayer.queue queueingTime:histogram:sumweights 10
scalar GptpMasterSlave.gptpSlave.eth[0].macLayer.queue queueingTime:histogram:mean 0
scalar GptpMasterSlave.gptpSlave.eth[0].macLayer.queue queueingTime:histogram:stddev 0
scalar GptpMasterSlave.gptpSlave.eth[0].macLayer.queue queueingTime:histogram:min 0
scalar GptpMasterSlave.gptpSlave.eth[0].macLayer.queue queueingTime:histogram:max 0
scalar GptpMasterSlave.gptpSlave.eth[0].macLayer.queue queueingTime:histogram:numbins 50
scalar GptpMasterSlave.gptpSlave.eth[0].macLayer.queue queueingTime:histogram:rangemin -0.5
scalar GptpMasterSlave.gptpSlave.eth[0].macLayer.queue queueingTime:histogram:rangemax 0.5
scalar GptpMasterSlave.gptpSlave.eth[0].macLayer.queue queueingTime:histogram:underflows 0
scalar GptpMasterSlave.gptpSlave.eth[0].macLayer.queue queueingTime:histogram:overflows 0
scalar GptpMasterSlave.gptpSlave.eth[0].macLayer.queue outgoingPacketLengths:histogram:count 10
scalar GptpMasterSlave.gptpSlave.eth[0].macLayer.queue outgoingPacketLengths:histogram:sumweights 10
scalar GptpMasterSlave.gptpSlave.eth[0].macLayer.queue outgoingPacketLengths:histogram:mean 576
scalar GptpMasterSlave.gptpSlave.eth[0].macLayer.queue outgoingPacketLengths:histogram:stddev 0
scalar GptpMasterSlave.gptpSlave.eth[0].macLayer.queue outgoingPacketLengths:histogram:min 576
scalar GptpMasterSlave.gptpSlave.eth[0].macLayer.queue outgoingPacketLengths:histogram:max 576
scalar GptpMasterSlave.gptpSlave.eth[0].macLayer.queue outgoingPacketLengths:histogram:numbins 2
scalar GptpMasterSlave.gptpSlave.eth[0].macLayer.queue outgoingPacketLengths:histogram:rangemin 575
scalar GptpMasterSlave.gptpSlave.eth[0].macLayer.queue outgoingPacketLengths:histogram:rangemax 577
scalar GptpMasterSlave.gptpSlave.eth[0].macLayer.queue outgoingPacketLengths:histogram:underflows 0
scalar GptpMasterSlave.gptpSlave.eth[0].macLayer.queue outgoingPacketLengths:histogram:overflows 0
scalar GptpMasterSlave.gptpSlave.eth[0].macLayer.queue flowQueueingTime:histogram:count 0
scalar GptpMasterSlave.gptpSlave.eth[0].macLayer.queue flowQueueingTime:histogram:sumweights 0
scalar GptpMasterSlave.gptpSlave.eth[0].macLayer.queue flowQueueingTime:histogram:mean -nan
scalar GptpMasterSlave.gptpSlave.eth[0].macLayer.queue flowQueueingTime:histogram:stddev nan
scalar GptpMasterSlave.gptpSlave.eth[0].macLayer.queue flowQueueingTime:histogram:min nan
scalar GptpMasterSlave.gptpSlave.eth[0].macLayer.queue flowQueueingTime:histogram:max nan
scalar GptpMasterSlave.gptpSlave.eth[0].macLayer.queue flowQueueingTime:histogram:numbins 1
scalar GptpMasterSlave.gptpSlave.eth[0].macLayer.queue flowQueueingTime:histogram:rangemin 0
scalar GptpMasterSlave.gptpSlave.eth[0].macLayer.queue flowQueueingTime:histogram:rangemax 1
scalar GptpMasterSlave.gptpSlave.eth[0].macLayer.queue flowQueueingTime:histogram:underflows 0
scalar GptpMasterSlave.gptpSlave.eth[0].macLayer.queue flowQueueingTime:histogram:overflows 0
scalar GptpMasterSlave.gptpSlave.eth[0].macLayer.queue incomingPacketLengths:histogram:count 10
scalar GptpMasterSlave.gptpSlave.eth[0].macLayer.queue incomingPacketLengths:histogram:sumweights 10
scalar GptpMasterSlave.gptpSlave.eth[0].macLayer.queue incomingPacketLengths:histogram:mean 576
scalar GptpMasterSlave.gptpSlave.eth[0].macLayer.queue incomingPacketLengths:histogram:stddev 0
scalar GptpMasterSlave.gptpSlave.eth[0].macLayer.queue incomingPacketLengths:histogram:min 576
scalar GptpMasterSlave.gptpSlave.eth[0].macLayer.queue incomingPacketLengths:histogram:max 576
scalar GptpMasterSlave.gptpSlave.eth[0].macLayer.queue incomingPacketLengths:histogram:numbins 2
scalar GptpMasterSlave.gptpSlave.eth[0].macLayer.queue incomingPacketLengths:histogram:rangemin 575
scalar GptpMasterSlave.gptpSlave.eth[0].macLayer.queue incomingPacketLengths:histogram:rangemax 577
scalar GptpMasterSlave.gptpSlave.eth[0].macLayer.queue incomingPacketLengths:histogram:underflows 0
scalar GptpMasterSlave.gptpSlave.eth[0].macLayer.queue incomingPacketLengths:histogram:overflows 0
scalar GptpMasterSlave.gptpSlave.eth[0].macLayer.server incomingPacketLengths:histogram:count 10
scalar GptpMasterSlave.gptpSlave.eth[0].macLayer.server incomingPacketLengths:histogram:sumweights 10
scalar GptpMasterSlave.gptpSlave.eth[0].macLayer.server incomingPacketLengths:histogram:mean 576
scalar GptpMasterSlave.gptpSlave.eth[0].macLayer.server incomingPacketLengths:histogram:stddev 0
scalar GptpMasterSlave.gptpSlave.eth[0].macLayer.server incomingPacketLengths:histogram:min 576
scalar GptpMasterSlave.gptpSlave.eth[0].macLayer.server incomingPacketLengths:histogram:max 576
scalar GptpMasterSlave.gptpSlave.eth[0].macLayer.server incomingPacketLengths:histogram:numbins 2
scalar GptpMasterSlave.gptpSlave.eth[0].macLayer.server incomingPacketLengths:histogram:rangemin 575
scalar GptpMasterSlave.gptpSlave.eth[0].macLayer.server incomingPacketLengths:histogram:rangemax 577
scalar GptpMasterSlave.gptpSlave.eth[0].macLayer.server incomingPacketLengths:histogram:underflows 0
scalar GptpMasterSlave.gptpSlave.eth[0].macLayer.server incomingPacketLengths:histogram:overflows 0
scalar GptpMasterSlave.gptpSlave.eth[0].macLayer.server outgoingPacketLengths:histogram:count 10
scalar GptpMasterSlave.gptpSlave.eth[0].macLayer.server outgoingPacketLengths:histogram:sumweights 10
scalar GptpMasterSlave.gptpSlave.eth[0].macLayer.server outgoingPacketLengths:histogram:mean 576
scalar GptpMasterSlave.gptpSlave.eth[0].macLayer.server outgoingPacketLengths:histogram:stddev 0
scalar GptpMasterSlave.gptpSlave.eth[0].macLayer.server outgoingPacketLengths:histogram:min 576
scalar GptpMasterSlave.gptpSlave.eth[0].macLayer.server outgoingPacketLengths:histogram:max 576
scalar GptpMasterSlave.gptpSlave.eth[0].macLayer.server outgoingPacketLengths:histogram:numbins 2
scalar GptpMasterSlave.gptpSlave.eth[0].macLayer.server outgoingPacketLengths:histogram:rangemin 575
[...]
scalar GptpMasterSlave.gptpSlave.eth[0].phyLayer.inboundEmitter flowOutgoingPacketLengths:vector:stddev nan
scalar GptpMasterSlave.gptpSlave.eth[0].phyLayer.inboundEmitter flowOutgoingPacketLengths:vector:min inf
scalar GptpMasterSlave.gptpSlave.eth[0].phyLayer.inboundEmitter flowOutgoingPacketLengths:vector:max -inf
scalar GptpMasterSlave.gptpSlave.eth[0].phyLayer.inboundEmitter flowOutgoingPacketLengths:vector:starttime nan
scalar GptpMasterSlave.gptpSlave.eth[0].phyLayer.inboundEmitter flowOutgoingPacketLengths:vector:endtime nan
scalar GptpMasterSlave.gptpSlave.eth[0].phyLayer.inboundEmitter flowOutgoingDataRate:vector:count 100
scalar GptpMasterSlave.gptpSlave.eth[0].phyLayer.inboundEmitter flowOutgoingDataRate:vector:sum 0
scalar GptpMasterSlave.gptpSlave.eth[0].phyLayer.inboundEmitter flowOutgoingDataRate:vector:sumweights 100
scalar GptpMasterSlave.gptpSlave.eth[0].phyLayer.inboundEmitter flowOutgoingDataRate:vector:mean 0
scalar GptpMasterSlave.gptpSlave.eth[0].phyLayer.inboundEmitter flowOutgoingDataRate:vector:stddev 0
scalar GptpMasterSlave.gptpSlave.eth[0].phyLayer.inboundEmitter flowOutgoingDataRate:vector:min 0
scalar GptpMasterSlave.gptpSlave.eth[0].phyLayer.inboundEmitter flowOutgoingDataRate:vector:max 0
scalar GptpMasterSlave.gptpSlave.eth[0].phyLayer.inboundEmitter flowOutgoingDataRate:vector:starttime 0.10000000000000001
scalar GptpMasterSlave.gptpSlave.eth[0].phyLayer.inboundEmitter flowOutgoingDataRate:vector:endtime 10
scalar GptpMasterSlave.gptpSlave.eth[0].phyLayer.receiver throughput:vector:count 100
scalar GptpMasterSlave.gptpSlave.eth[0].phyLayer.receiver throughput:vector:sum 1215040
scalar GptpMasterSlave.gptpSlave.eth[0].phyLayer.receiver throughput:vector:sumweights 100
scalar GptpMasterSlave.gptpSlave.eth[0].phyLayer.receiver throughput:vector:mean 12150.4
scalar GptpMasterSlave.gptpSlave.eth[0].phyLayer.receiver throughput:vector:stddev 7108.9304939404756
scalar GptpMasterSlave.gptpSlave.eth[0].phyLayer.receiver throughput:vector:min 0
scalar GptpMasterSlave.gptpSlave.eth[0].phyLayer.receiver throughput:vector:max 26560
scalar GptpMasterSlave.gptpSlave.eth[0].phyLayer.receiver throughput:vector:starttime 0.10000000000000001
scalar GptpMasterSlave.gptpSlave.eth[0].phyLayer.receiver throughput:vector:endtime 10
scalar GptpMasterSlave.gptpSlave.eth[0].phyLayer.receiver receptionTime:vector:count 178
scalar GptpMasterSlave.gptpSlave.eth[0].phyLayer.receiver receptionTime:vector:sum 0.0012150399999999988
scalar GptpMasterSlave.gptpSlave.eth[0].phyLayer.receiver receptionTime:vector:sumweights 178
scalar GptpMasterSlave.gptpSlave.eth[0].phyLayer.receiver receptionTime:vector:mean 6.8260674157303303e-06
scalar GptpMasterSlave.gptpSlave.eth[0].phyLayer.receiver receptionTime:vector:stddev 1.2188663974630736e-06
scalar GptpMasterSlave.gptpSlave.eth[0].phyLayer.receiver receptionTime:vector:min 5.6000000000000006e-06
scalar GptpMasterSlave.gptpSlave.eth[0].phyLayer.receiver receptionTime:vector:max 8.1599999999999998e-06
scalar GptpMasterSlave.gptpSlave.eth[0].phyLayer.receiver receptionTime:vector:starttime 0.020012800000000004
scalar GptpMasterSlave.gptpSlave.eth[0].phyLayer.receiver receptionTime:vector:endtime 9.8850147200000027
scalar GptpMasterSlave.gptpSlave.eth[0].phyLayer.receiver flowReceptionTime:vector:count 0
scalar GptpMasterSlave.gptpSlave.eth[0].phyLayer.receiver flowReceptionTime:vector:sum 0
scalar GptpMasterSlave.gptpSlave.eth[0].phyLayer.receiver flowReceptionTime:vector:sumweights 0
scalar GptpMasterSlave.gptpSlave.eth[0].phyLayer.receiver flowReceptionTime:vector:mean -nan
scalar GptpMasterSlave.gptpSlave.eth[0].phyLayer.receiver flowReceptionTime:vector:stddev nan
scalar GptpMasterSlave.gptpSlave.eth[0].phyLayer.receiver flowReceptionTime:vector:min inf
scalar GptpMasterSlave.gptpSlave.eth[0].phyLayer.receiver flowReceptionTime:vector:max -inf
scalar GptpMasterSlave.gptpSlave.eth[0].phyLayer.receiver flowReceptionTime:vector:starttime nan
scalar GptpMasterSlave.gptpSlave.eth[0].phyLayer.receiver flowReceptionTime:vector:endtime nan
scalar GptpMasterSlave.gptpSlave.eth[0] packetDropInterfaceDown:vector(packetBytes):count 0
scalar GptpMasterSlave.gptpSlave.eth[0] packetDropInterfaceDown:vector(packetBytes):sum 0
scalar GptpMasterSlave.gptpSlave.eth[0] packetDropInterfaceDown:vector(packetBytes):sumweights 0
scalar GptpMasterSlave.gptpSlave.eth[0] packetDropInterfaceDown:vector(packetBytes):mean -nan
scalar GptpMasterSlave.gptpSlave.eth[0] packetDropInterfaceDown:vector(packetBytes):stddev nan
scalar GptpMasterSlave.gptpSlave.eth[0] packetDropInterfaceDown:vector(packetBytes):min inf
scalar GptpMasterSlave.gptpSlave.eth[0] packetDropInterfaceDown:vector(packetBytes):max -inf
scalar GptpMasterSlave.gptpSlave.eth[0] packetDropInterfaceDown:vector(packetBytes):starttime nan
scalar GptpMasterSlave.gptpSlave.eth[0] packetDropInterfaceDown:vector(packetBytes):endtime nan
scalar GptpMasterSlave.gptpSlave.eth[0] packetDropNoCarrier:vector(packetBytes):count 0
scalar GptpMasterSlave.gptpSlave.eth[0] packetDropNoCarrier:vector(packetBytes):sum 0
scalar GptpMasterSlave.gptpSlave.eth[0] packetDropNoCarrier:vector(packetBytes):sumweights 0
scalar GptpMasterSlave.gptpSlave.eth[0] packetDropNoCarrier:vector(packetBytes):mean -nan
scalar GptpMasterSlave.gptpSlave.eth[0] packetDropNoCarrier:vector(packetBytes):stddev nan
scalar GptpMasterSlave.gptpSlave.eth[0] packetDropNoCarrier:vector(packetBytes):min inf
scalar GptpMasterSlave.gptpSlave.eth[0] packetDropNoCarrier:vector(packetBytes):max -inf
scalar GptpMasterSlave.gptpSlave.eth[0] packetDropNoCarrier:vector(packetBytes):starttime nan
scalar GptpMasterSlave.gptpSlave.eth[0] packetDropNoCarrier:vector(packetBytes):endtime nan
scalar GptpMasterSlave.gptpSlave.ipv4.ip packetDropAddressResolutionFailed:vector(packetBytes):count 0
scalar GptpMasterSlave.gptpSlave.ipv4.ip packetDropAddressResolutionFailed:vector(packetBytes):sum 0
scalar GptpMasterSlave.gptpSlave.ipv4.ip packetDropAddressResolutionFailed:vector(packetBytes):sumweights 0
scalar GptpMasterSlave.gptpSlave.ipv4.ip packetDropAddressResolutionFailed:vector(packetBytes):mean -nan
scalar GptpMasterSlave.gptpSlave.ipv4.ip packetDropAddressResolutionFailed:vector(packetBytes):stddev nan
scalar GptpMasterSlave.gptpSlave.ipv4.ip packetDropAddressResolutionFailed:vector(packetBytes):min inf
scalar GptpMasterSlave.gptpSlave.ipv4.ip packetDropAddressResolutionFailed:vector(packetBytes):max -inf
scalar GptpMasterSlave.gptpSlave.ipv4.ip packetDropAddressResolutionFailed:vector(packetBytes):starttime nan
scalar GptpMasterSlave.gptpSlave.ipv4.ip packetDropAddressResolutionFailed:vector(packetBytes):endtime nan
scalar GptpMasterSlave.gptpSlave.ipv4.ip packetDropHopLimitReached:vector(packetBytes):count 0
scalar GptpMasterSlave.gptpSlave.ipv4.ip packetDropHopLimitReached:vector(packetBytes):sum 0
scalar GptpMasterSlave.gptpSlave.ipv4.ip packetDropHopLimitReached:vector(packetBytes):sumweights 0
scalar GptpMasterSlave.gptpSlave.ipv4.ip packetDropHopLimitReached:vector(packetBytes):mean -nan
scalar GptpMasterSlave.gptpSlave.ipv4.ip packetDropHopLimitReached:vector(packetBytes):stddev nan
scalar GptpMasterSlave.gptpSlave.ipv4.ip packetDropHopLimitReached:vector(packetBytes):min inf
scalar GptpMasterSlave.gptpSlave.ipv4.ip packetDropHopLimitReached:vector(packetBytes):max -inf
scalar GptpMasterSlave.gptpSlave.ipv4.ip packetDropHopLimitReached:vector(packetBytes):starttime nan
scalar GptpMasterSlave.gptpSlave.ipv4.ip packetDropHopLimitReached:vector(packetBytes):endtime nan
scalar GptpMasterSlave.gptpSlave.ipv4.ip packetDropForwardingDisabled:vector(packetBytes):count 0
scalar GptpMasterSlave.gptpSlave.ipv4.ip packetDropForwardingDisabled:vector(packetBytes):sum 0
scalar GptpMasterSlave.gptpSlave.ipv4.ip packetDropForwardingDisabled:vector(packetBytes):sumweights 0
scalar GptpMasterSlave.gptpSlave.ipv4.ip packetDropForwardingDisabled:vector(packetBytes):mean -nan
scalar GptpMasterSlave.gptpSlave.ipv4.ip packetDropForwardingDisabled:vector(packetBytes):stddev nan
scalar GptpMasterSlave.gptpSlave.ipv4.ip packetDropForwardingDisabled:vector(packetBytes):min inf
scalar GptpMasterSlave.gptpSlave.ipv4.ip packetDropForwardingDisabled:vector(packetBytes):max -inf
scalar GptpMasterSlave.gptpSlave.ipv4.ip packetDropForwardingDisabled:vector(packetBytes):starttime nan
scalar GptpMasterSlave.gptpSlave.ipv4.ip packetDropForwardingDisabled:vector(packetBytes):endtime nan
scalar GptpMasterSlave.gptpSlave.ipv4.ip packetDropLifetimeExpired:vector(packetBytes):count 0
scalar GptpMasterSlave.gptpSlave.ipv4.ip packetDropLifetimeExpired:vector(packetBytes):sum 0
scalar GptpMasterSlave.gptpSlave.ipv4.ip packetDropLifetimeExpired:vector(packetBytes):sumweights 0
scalar GptpMasterSlave.gptpSlave.ipv4.ip packetDropLifetimeExpired:vector(packetBytes):mean -nan
scalar GptpMasterSlave.gptpSlave.ipv4.ip packetDropLifetimeExpired:vector(packetBytes):stddev nan
scalar GptpMasterSlave.gptpSlave.ipv4.ip packetDropLifetimeExpired:vector(packetBytes):min inf
scalar GptpMasterSlave.gptpSlave.ipv4.ip packetDropLifetimeExpired:vector(packetBytes):max -inf
scalar GptpMasterSlave.gptpSlave.ipv4.ip packetDropLifetimeExpired:vector(packetBytes):starttime nan
scalar GptpMasterSlave.gptpSlave.ipv4.ip packetDropLifetimeExpired:vector(packetBytes):endtime nan
scalar GptpMasterSlave.gptpSlave.ipv4.ip packetDropNoInterfaceFound:vector(packetBytes):count 0
scalar GptpMasterSlave.gptpSlave.ipv4.ip packetDropNoInterfaceFound:vector(packetBytes):sum 0
scalar GptpMasterSlave.gptpSlave.ipv4.ip packetDropNoInterfaceFound:vector(packetBytes):sumweights 0
scalar GptpMasterSlave.gptpSlave.ipv4.ip packetDropNoInterfaceFound:vector(packetBytes):mean -nan
scalar GptpMasterSlave.gptpSlave.ipv4.ip packetDropNoInterfaceFound:vector(packetBytes):stddev nan
scalar GptpMasterSlave.gptpSlave.ipv4.ip packetDropNoInterfaceFound:vector(packetBytes):min inf
scalar GptpMasterSlave.gptpSlave.ipv4.ip packetDropNoInterfaceFound:vector(packetBytes):max -inf
scalar GptpMasterSlave.gptpSlave.ipv4.ip packetDropNoInterfaceFound:vector(packetBytes):starttime nan
scalar GptpMasterSlave.gptpSlave.ipv4.ip packetDropNoInterfaceFound:vector(packetBytes):endtime nan
scalar GptpMasterSlave.gptpSlave.ipv4.ip packetDropNoRouteFound:vector(packetBytes):count 0
scalar GptpMasterSlave.gptpSlave.ipv4.ip packetDropNoRouteFound:vector(packetBytes):sum 0
scalar GptpMasterSlave.gptpSlave.ipv4.ip packetDropNoRouteFound:vector(packetBytes):sumweights 0
scalar GptpMasterSlave.gptpSlave.ipv4.ip packetDropNoRouteFound:vector(packetBytes):mean -nan
scalar GptpMasterSlave.gptpSlave.ipv4.ip packetDropNoRouteFound:vector(packetBytes):stddev nan
scalar GptpMasterSlave.gptpSlave.ipv4.ip packetDropNoRouteFound:vector(packetBytes):min inf
scalar GptpMasterSlave.gptpSlave.ipv4.ip packetDropNoRouteFound:vector(packetBytes):max -inf
scalar GptpMasterSlave.gptpSlave.ipv4.ip packetDropNoRouteFound:vector(packetBytes):starttime nan
scalar GptpMasterSlave.gptpSlave.ipv4.ip packetDropNoRouteFound:vector(packetBytes):endtime nan
scalar GptpMasterSlave.gptpSlave.ipv4.ip packetDropUndefined:vector(packetBytes):count 0
scalar GptpMasterSlave.gptpSlave.ipv4.ip packetDropUndefined:vector(packetBytes):sum 0
scalar GptpMasterSlave.gptpSlave.ipv4.ip packetDropUndefined:vector(packetBytes):sumweights 0
scalar GptpMasterSlave.gptpSlave.ipv4.ip packetDropUndefined:vector(packetBytes):mean -nan
scalar GptpMasterSlave.gptpSlave.ipv4.ip packetDropUndefined:vector(packetBytes):stddev nan
scalar GptpMasterSlave.gptpSlave.ipv4.ip packetDropUndefined:vector(packetBytes):min inf
scalar GptpMasterSlave.gptpSlave.ipv4.ip packetDropUndefined:vector(packetBytes):max -inf
scalar GptpMasterSlave.gptpSlave.ipv4.ip packetDropUndefined:vector(packetBytes):starttime nan
scalar GptpMasterSlave.gptpSlave.ipv4.ip packetDropUndefined:vector(packetBytes):endtime nan
scalar GptpMasterSlave.gptpSlave.ipv4.arp arpRequestSent:vector(packetBytes):count 0
scalar GptpMasterSlave.gptpSlave.ipv4.arp arpRequestSent:vector(packetBytes):sum 0
scalar GptpMasterSlave.gptpSlave.ipv4.arp arpRequestSent:vector(packetBytes):sumweights 0
scalar GptpMasterSlave.gptpSlave.ipv4.arp arpRequestSent:vector(packetBytes):mean -nan
scalar GptpMasterSlave.gptpSlave.ipv4.arp arpRequestSent:vector(packetBytes):stddev nan
scalar GptpMasterSlave.gptpSlave.ipv4.arp arpRequestSent:vector(packetBytes):min inf
scalar GptpMasterSlave.gptpSlave.ipv4.arp arpRequestSent:vector(packetBytes):max -inf
scalar GptpMasterSlave.gptpSlave.ipv4.arp arpRequestSent:vector(packetBytes):starttime nan
scalar GptpMasterSlave.gptpSlave.ipv4.arp arpRequestSent:vector(packetBytes):endtime nan
scalar GptpMasterSlave.gptpSlave.ipv4.arp arpReplySent:vector(packetBytes):count 0
scalar GptpMasterSlave.gptpSlave.ipv4.arp arpReplySent:vector(packetBytes):sum 0
scalar GptpMasterSlave.gptpSlave.ipv4.arp arpReplySent:vector(packetBytes):sumweights 0
scalar GptpMasterSlave.gptpSlave.ipv4.arp arpReplySent:vector(packetBytes):mean -nan
scalar GptpMasterSlave.gptpSlave.ipv4.arp arpReplySent:vector(packetBytes):stddev nan
scalar GptpMasterSlave.gptpSlave.ipv4.arp arpReplySent:vector(packetBytes):min inf
scalar GptpMasterSlave.gptpSlave.ipv4.arp arpReplySent:vector(packetBytes):max -inf
scalar GptpMasterSlave.gptpSlave.ipv4.arp arpReplySent:vector(packetBytes):starttime nan
scalar GptpMasterSlave.gptpSlave.ipv4.arp arpReplySent:vector(packetBytes):endtime nan
scalar GptpMasterSlave.gptpSlave.udp packetSent:vector(packetBytes):count 0
scalar GptpMasterSlave.gptpSlave.udp packetSent:vector(packetBytes):sum 0
scalar GptpMasterSlave.gptpSlave.udp packetSent:vector(packetBytes):sumweights 0
scalar GptpMasterSlave.gptpSlave.udp packetSent:vector(packetBytes):mean -nan
scalar GptpMasterSlave.gptpSlave.udp packetSent:vector(packetBytes):stddev nan
scalar GptpMasterSlave.gptpSlave.udp packetSent:vector(packetBytes):min inf
scalar GptpMasterSlave.gptpSlave.udp packetSent:vector(packetBytes):max -inf
scalar GptpMasterSlave.gptpSlave.udp packetSent:vector(packetBytes):starttime nan
scalar GptpMasterSlave.gptpSlave.udp packetSent:vector(packetBytes):endtime nan
scalar GptpMasterSlave.gptpSlave.udp packetReceived:vector(packetBytes):count 0
scalar GptpMasterSlave.gptpSlave.udp packetReceived:vector(packetBytes):sum 0
scalar GptpMasterSlave.gptpSlave.udp packetReceived:vector(packetBytes):sumweights 0
scalar GptpMasterSlave.gptpSlave.udp packetReceived:vector(packetBytes):mean -nan
scalar GptpMasterSlave.gptpSlave.udp packetReceived:vector(packetBytes):stddev nan
scalar GptpMasterSlave.gptpSlave.udp packetReceived:vector(packetBytes):min inf
scalar GptpMasterSlave.gptpSlave.udp packetReceived:vector(packetBytes):max -inf
scalar GptpMasterSlave.gptpSlave.udp packetReceived:vector(packetBytes):starttime nan
scalar GptpMasterSlave.gptpSlave.udp packetReceived:vector(packetBytes):endtime nan
scalar GptpMasterSlave.gptpSlave.udp passedUpPk:vector(count):count 1
scalar GptpMasterSlave.gptpSlave.udp passedUpPk:vector(count):sum 0
scalar GptpMasterSlave.gptpSlave.udp passedUpPk:vector(count):sumweights 1
scalar GptpMasterSlave.gptpSlave.udp passedUpPk:vector(count):mean 0
scalar GptpMasterSlave.gptpSlave.udp passedUpPk:vector(count):stddev nan
scalar GptpMasterSlave.gptpSlave.udp passedUpPk:vector(count):min 0
scalar GptpMasterSlave.gptpSlave.udp passedUpPk:vector(count):max 0
scalar GptpMasterSlave.gptpSlave.udp passedUpPk:vector(count):starttime 0
scalar GptpMasterSlave.gptpSlave.udp passedUpPk:vector(count):endtime 0
scalar GptpMasterSlave.gptpSlave.udp droppedPkWrongPort:vector(count):count 1
scalar GptpMasterSlave.gptpSlave.udp droppedPkWrongPort:vector(count):sum 0
scalar GptpMasterSlave.gptpSlave.udp droppedPkWrongPort:vector(count):sumweights 1
scalar GptpMasterSlave.gptpSlave.udp droppedPkWrongPort:vector(count):mean 0
scalar GptpMasterSlave.gptpSlave.udp droppedPkWrongPort:vector(count):stddev nan
scalar GptpMasterSlave.gptpSlave.udp droppedPkWrongPort:vector(count):min 0
scalar GptpMasterSlave.gptpSlave.udp droppedPkWrongPort:vector(count):max 0
scalar GptpMasterSlave.gptpSlave.udp droppedPkWrongPort:vector(count):starttime 0
scalar GptpMasterSlave.gptpSlave.udp droppedPkWrongPort:vector(count):endtime 0
scalar GptpMasterSlave.gptpSlave.udp droppedPkBadChecksum:vector(count):count 1
scalar GptpMasterSlave.gptpSlave.udp droppedPkBadChecksum:vector(count):sum 0
scalar GptpMasterSlave.gptpSlave.udp droppedPkBadChecksum:vector(count):sumweights 1
scalar GptpMasterSlave.gptpSlave.udp droppedPkBadChecksum:vector(count):mean 0
scalar GptpMasterSlave.gptpSlave.udp droppedPkBadChecksum:vector(count):stddev nan
scalar GptpMasterSlave.gptpSlave.udp droppedPkBadChecksum:vector(count):min 0
scalar GptpMasterSlave.gptpSlave.udp droppedPkBadChecksum:vector(count):max 0
scalar GptpMasterSlave.gptpSlave.udp droppedPkBadChecksum:vector(count):starttime 0
scalar GptpMasterSlave.gptpSlave.udp droppedPkBadChecksum:vector(count):endtime 0
scalar GptpMasterSlave.gptpSlave.gptp gmRateRatio:vector:count 78
scalar GptpMasterSlave.gptpSlave.gptp gmRateRatio:vector:sum 86.672113659110806
scalar GptpMasterSlave.gptpSlave.gptp gmRateRatio:vector:sumweights 78
scalar GptpMasterSlave.gptpSlave.gptp gmRateRatio:vector:mean 1.1111809443475744
scalar GptpMasterSlave.gptpSlave.gptp gmRateRatio:vector:stddev 0.00020246052778722905
scalar GptpMasterSlave.gptpSlave.gptp gmRateRatio:vector:min 1.1111111111111112
scalar GptpMasterSlave.gptpSlave.gptp gmRateRatio:vector:max 1.1120002844733334
scalar GptpMasterSlave.gptpSlave.gptp gmRateRatio:vector:starttime 0.26001472000000003
scalar GptpMasterSlave.gptpSlave.gptp gmRateRatio:vector:endtime 9.8850147200000027
scalar GptpMasterSlave.gptpSlave.gptp neighborRateRatio:vector:count 9
scalar GptpMasterSlave.gptpSlave.gptp neighborRateRatio:vector:sum 10.000000004844493
scalar GptpMasterSlave.gptpSlave.gptp neighborRateRatio:vector:sumweights 9
scalar GptpMasterSlave.gptpSlave.gptp neighborRateRatio:vector:mean 1.1111111116493881
scalar GptpMasterSlave.gptpSlave.gptp neighborRateRatio:vector:stddev 0
scalar GptpMasterSlave.gptpSlave.gptp neighborRateRatio:vector:min 1.1111111037030368
scalar GptpMasterSlave.gptpSlave.gptp neighborRateRatio:vector:max 1.111111116049619
scalar GptpMasterSlave.gptpSlave.gptp neighborRateRatio:vector:starttime 1.0460216355555561
scalar GptpMasterSlave.gptpSlave.gptp neighborRateRatio:vector:endtime 9.0454519244444445
scalar GptpMasterSlave.gptpSlave.gptp pdelay:vector:count 10
scalar GptpMasterSlave.gptpSlave.gptp pdelay:vector:sum 0.093484700194071013
scalar GptpMasterSlave.gptpSlave.gptp pdelay:vector:sumweights 10
scalar GptpMasterSlave.gptpSlave.gptp pdelay:vector:mean 0.009348470019407102
scalar GptpMasterSlave.gptpSlave.gptp pdelay:vector:stddev 0.00020583892115041638
scalar GptpMasterSlave.gptpSlave.gptp pdelay:vector:min 0.0089996800000000012
scalar GptpMasterSlave.gptpSlave.gptp pdelay:vector:max 0.009612455538840001
scalar GptpMasterSlave.gptpSlave.gptp pdelay:vector:starttime 0.020020160000000002
scalar GptpMasterSlave.gptpSlave.gptp pdelay:vector:endtime 9.0454519244444445
scalar GptpMasterSlave.gptpSlave.gptp packetDropNotAddressedToUs:vector(packetBytes):count 0
scalar GptpMasterSlave.gptpSlave.gptp packetDropNotAddressedToUs:vector(packetBytes):sum 0
scalar GptpMasterSlave.gptpSlave.gptp packetDropNotAddressedToUs:vector(packetBytes):sumweights 0
scalar GptpMasterSlave.gptpSlave.gptp packetDropNotAddressedToUs:vector(packetBytes):mean -nan
scalar GptpMasterSlave.gptpSlave.gptp packetDropNotAddressedToUs:vector(packetBytes):stddev nan
scalar GptpMasterSlave.gptpSlave.gptp packetDropNotAddressedToUs:vector(packetBytes):min inf
scalar GptpMasterSlave.gptpSlave.gptp packetDropNotAddressedToUs:vector(packetBytes):max -inf
scalar GptpMasterSlave.gptpSlave.gptp packetDropNotAddressedToUs:vector(packetBytes):starttime nan
scalar GptpMasterSlave.gptpSlave.gptp packetDropNotAddressedToUs:vector(packetBytes):endtime nan

