version 3
run Dynamic-0-20230511-14:20:07-54581
attr configname Dynamic
attr datetime 20230511-14:20:07
attr datetimef 20230511-142007
attr description "Visualizing changing routing tables"
attr experiment Dynamic
attr inifile omnetpp.ini
attr iterationvars ""
attr iterationvarsd ""
attr iterationvarsf ""
attr measurement ""
attr network RoutingTableVisualizationDynamicShowcase
attr processid 54581
attr repetition 0
attr replication #0
attr resultdir results
attr runnumber 0
attr seedset 0
config **.param-recording false
config **.vector-recording false
config image-path /home/levy/workspace/inet/images
config output-scalar-file results/omnetpp.ini-Dynamic-#0.sca
config sim-time-limit 500s
config sim-time-limit 500s
config network RoutingTableVisualizationDynamicShowcase
config description "Visualizing changing routing tables"
config *.visualizer.*.routingTableVisualizer.destinationFilter "\"destinationHost\""
config *.visualizer.*.routingTableVisualizer.displayRoutingTables true
config *.visualizer.*.interfaceTableVisualizer.displayInterfaceTables false
config *.destinationHost.mobility.typename LinearMobility
config *.*.mobility.speed 10mps
config *.destinationHost.mobility.initialMovementHeading 90deg
config *.*.mobility.constraintAreaMinY 0m
config *.*.mobility.constraintAreaMaxY 600m
config *.visualizer.*.mobilityVisualizer.animationSpeed 0.1
config *.sourceHost.numApps 1
config *.sourceHost.app[0].typename PingApp
config *.sourceHost.app[*].destAddr "\"destinationHost\""
config **.displayCommunicationRanges true
config **.transmitter.power 1mW
config *.configurator.addStaticRoutes false
config **.routingTable.netmaskRoutes "\"\""
config *.visualizer.*.interfaceTableVisualizer.displayInterfaceTables true
config *.visualizer.*.interfaceTableVisualizer.interfaceFilter "\"not(lo*)\""
config *.visualizer.*.interfaceTableVisualizer.nodeFilter "\"not(*switch*)\""
config *.visualizer.*.interfaceTableVisualizer.displayWiredInterfacesAtConnections false
config *.visualizer.*.interfaceTableVisualizer.format "\"%N %n\""

scalar RoutingTableVisualizationDynamicShowcase.sourceHost.lo[0].lo rcvdPkFromHl:count 0
attr interpolationmode none
attr recordingmode count
attr source packetReceivedFromUpper
attr title "packets received from higher layer, count"
scalar RoutingTableVisualizationDynamicShowcase.sourceHost.lo[0].lo rcvdPkFromHl:sum(packetBytes) 0
attr interpolationmode none
attr recordingmode sum(packetBytes)
attr source packetReceivedFromUpper
attr title "packets received from higher layer, sum(packetBytes)"
scalar RoutingTableVisualizationDynamicShowcase.sourceHost.lo[0].lo passedUpPk:count 0
attr interpolationmode none
attr recordingmode count
attr source packetSentToUpper
attr title "packets passed to higher layer, count"
scalar RoutingTableVisualizationDynamicShowcase.sourceHost.lo[0].lo passedUpPk:sum(packetBytes) 0
attr interpolationmode none
attr recordingmode sum(packetBytes)
attr source packetSentToUpper
attr title "packets passed to higher layer, sum(packetBytes)"
scalar RoutingTableVisualizationDynamicShowcase.sourceHost.lo[0] packetDropInterfaceDown:count 0
attr interpolationmode none
attr recordingmode count
attr source packetDropReasonIsInterfaceDown(packetDropped)
attr title "packet drops: interface down, count"
scalar RoutingTableVisualizationDynamicShowcase.sourceHost.lo[0] packetDropInterfaceDown:sum(packetBytes) 0
attr interpolationmode none
attr recordingmode sum(packetBytes)
attr source packetDropReasonIsInterfaceDown(packetDropped)
attr title "packet drops: interface down, sum(packetBytes)"
scalar RoutingTableVisualizationDynamicShowcase.sourceHost.lo[0] packetDropNoCarrier:count 0
attr interpolationmode none
attr recordingmode count
attr source packetDropReasonIsNoCarrier(packetDropped)
attr title "packet drops: no carrier, count"
scalar RoutingTableVisualizationDynamicShowcase.sourceHost.lo[0] packetDropNoCarrier:sum(packetBytes) 0
attr interpolationmode none
attr recordingmode sum(packetBytes)
attr source packetDropReasonIsNoCarrier(packetDropped)
attr title "packet drops: no carrier, sum(packetBytes)"
scalar RoutingTableVisualizationDynamicShowcase.sourceHost.wlan[0].mac.dcf.channelAccess.pendingQueue queueLength:last 0
attr autoWarmupFilter false
attr interpolationmode sample-hold
attr recordingmode last
attr source "warmup(atomic(constant0(packetPushEnded) + count(packetPushStarted) - count(packetPulled) - count(packetRemoved) - count(packetDropped)))"
attr title "queue length, last"
attr unit pk
scalar RoutingTableVisualizationDynamicShowcase.sourceHost.wlan[0].mac.dcf.channelAccess.pendingQueue queueLength:max 2
attr autoWarmupFilter false
attr interpolationmode sample-hold
attr recordingmode max
attr source "warmup(atomic(constant0(packetPushEnded) + count(packetPushStarted) - count(packetPulled) - count(packetRemoved) - count(packetDropped)))"
attr title "queue length, max"
attr unit pk
scalar RoutingTableVisualizationDynamicShowcase.sourceHost.wlan[0].mac.dcf.channelAccess.pendingQueue queueLength:timeavg 3.9596e-05
attr autoWarmupFilter false
attr interpolationmode sample-hold
attr recordingmode timeavg
attr source "warmup(atomic(constant0(packetPushEnded) + count(packetPushStarted) - count(packetPulled) - count(packetRemoved) - count(packetDropped)))"
attr title "queue length, timeavg"
attr unit pk
scalar RoutingTableVisualizationDynamicShowcase.sourceHost.wlan[0].mac.dcf.channelAccess.pendingQueue queueBitLength:last 0
attr autoWarmupFilter false
attr interpolationmode sample-hold
attr recordingmode last
attr source "warmup(atomic(constant0(packetPushEnded) + sum(packetLength(packetPushStarted)) - sum(packetLength(packetPulled)) - sum(packetLength(packetRemoved)) - sum(packetLength(packetDropped))))"
attr title "queue bit length, last"
attr unit b
scalar RoutingTableVisualizationDynamicShowcase.sourceHost.wlan[0].mac.dcf.channelAccess.pendingQueue queueBitLength:max 1920
attr autoWarmupFilter false
attr interpolationmode sample-hold
attr recordingmode max
attr source "warmup(atomic(constant0(packetPushEnded) + sum(packetLength(packetPushStarted)) - sum(packetLength(packetPulled)) - sum(packetLength(packetRemoved)) - sum(packetLength(packetDropped))))"
attr title "queue bit length, max"
attr unit b
scalar RoutingTableVisualizationDynamicShowcase.sourceHost.wlan[0].mac.dcf.channelAccess.pendingQueue queueBitLength:timeavg 0.03614848
attr autoWarmupFilter false
attr interpolationmode sample-hold
attr recordingmode timeavg
attr source "warmup(atomic(constant0(packetPushEnded) + sum(packetLength(packetPushStarted)) - sum(packetLength(packetPulled)) - sum(packetLength(packetRemoved)) - sum(packetLength(packetDropped))))"
attr title "queue bit length, timeavg"
attr unit b
statistic RoutingTableVisualizationDynamicShowcase.sourceHost.wlan[0].mac.dcf.channelAccess.pendingQueue queueingTime:histogram
field count 599
field mean 3.3051752921536e-05
field stddev 0.000119993961635
field min 0
field max 0.000714
field sum 0.019798
field sqrsum 9.264692e-06
attr interpolationmode none
attr recordingmode histogram
attr source queueingTime(packetPulled)
attr title "queueing times"
attr unit s
bin	-inf	0
bin	0	546
bin	1e-05	0
bin	2e-05	0
bin	3e-05	0
bin	4e-05	0
bin	5e-05	0
bin	6e-05	0
bin	7e-05	0
bin	8e-05	0
bin	9e-05	2
bin	0.0001	0
bin	0.00011	2
bin	0.00012	0
bin	0.00013	0
bin	0.00014	1
bin	0.00015	5
bin	0.00016	1
bin	0.00017	0
bin	0.00018	0
bin	0.00019	3
bin	0.0002	0
bin	0.00021	4
bin	0.00022	0
bin	0.00023	0
bin	0.00024	0
bin	0.00025	0
bin	0.00026	0
bin	0.00027	3
bin	0.00028	0
bin	0.00029	0
bin	0.0003	0
bin	0.00031	2
bin	0.00032	0
bin	0.00033	2
bin	0.00034	0
bin	0.00035	2
bin	0.00036	0
bin	0.00037	0
bin	0.00038	0
bin	0.00039	2
bin	0.0004	1
bin	0.00041	4
bin	0.00042	0
bin	0.00043	0
bin	0.00044	0
bin	0.00045	3
bin	0.00046	0
bin	0.00047	0
bin	0.00048	0
bin	0.00049	0
bin	0.0005	0
bin	0.00051	0
bin	0.00052	0
bin	0.00053	3
bin	0.00054	0
bin	0.00055	0
bin	0.00056	2
bin	0.00057	1
bin	0.00058	0
bin	0.00059	3
bin	0.0006	0
bin	0.00061	0
bin	0.00062	0
bin	0.00063	1
bin	0.00064	0
bin	0.00065	2
bin	0.00066	0
bin	0.00067	1
bin	0.00068	0
bin	0.00069	2
bin	0.0007	0
bin	0.00071	1
bin	0.00072	0
bin	0.00073	0
bin	0.00074	0
bin	0.00075	0
bin	0.00076	0
bin	0.00077	0
bin	0.00078	0
bin	0.00079	0
bin	0.0008	0
bin	0.00081	0
bin	0.00082	0
scalar RoutingTableVisualizationDynamicShowcase.sourceHost.wlan[0].mac.dcf.channelAccess.pendingQueue outgoingPackets:count 599
attr recordingmode count
attr source packetPulled
attr title "outgoing packets, count"
attr unit pk
scalar RoutingTableVisualizationDynamicShowcase.sourceHost.wlan[0].mac.dcf.channelAccess.pendingQueue outgoingPacketLengths:sum 547808
attr interpolationmode none
attr recordingmode sum
attr source packetLength(packetPulled)
attr title "outgoing packet lengths, sum"
attr unit b
statistic RoutingTableVisualizationDynamicShowcase.sourceHost.wlan[0].mac.dcf.channelAccess.pendingQueue outgoingPacketLengths:histogram
field count 599
field mean 914.53756260434
field stddev 104.68604843623
field min 512
field max 960
field sum 547808
field sqrsum 507544576
attr interpolationmode none
attr recordingmode histogram
attr source packetLength(packetPulled)
attr title "outgoing packet lengths"
attr unit b
bin	-inf	0
bin	400	0
bin	410	0
bin	420	0
bin	430	0
bin	440	0
bin	450	0
bin	460	0
bin	470	0
bin	480	0
bin	490	0
bin	500	0
bin	510	9
bin	520	0
bin	530	0
bin	540	0
bin	550	0
bin	560	0
bin	570	0
bin	580	0
bin	590	0
bin	600	0
bin	610	0
bin	620	0
bin	630	0
bin	640	0
bin	650	0
bin	660	0
bin	670	5
bin	680	0
bin	690	0
bin	700	85
bin	710	0
bin	720	0
bin	730	0
bin	740	0
bin	750	0
bin	760	0
bin	770	0
bin	780	0
bin	790	0
bin	800	0
bin	810	0
bin	820	0
bin	830	0
bin	840	0
bin	850	0
bin	860	0
bin	870	0
bin	880	0
bin	890	0
bin	900	0
bin	910	0
bin	920	0
bin	930	0
bin	940	0
bin	950	0
bin	960	500
bin	970	0
bin	980	0
bin	990	0
bin	1000	0
bin	1010	0
bin	1020	0
bin	1030	0
bin	1040	0
bin	1050	0
bin	1060	0
bin	1070	0
bin	1080	0
statistic RoutingTableVisualizationDynamicShowcase.sourceHost.wlan[0].mac.dcf.channelAccess.pendingQueue flowQueueingTime:histogram
field count 0
field mean -nan
field stddev nan
field min nan
field max nan
field sum 0
field sqrsum 0
attr interpolationmode none
attr recordingmode histogram
attr source queueingTime(demuxFlow(packetPulled))
attr title "flow queueing times"
attr unit s
bin	-inf	0
bin	0	0
bin	1	0
scalar RoutingTableVisualizationDynamicShowcase.sourceHost.wlan[0].mac.dcf.channelAccess.pendingQueue incomingPackets:count 599
attr recordingmode count
attr source packetPushStarted
attr title "incoming packets, count"
attr unit pk
scalar RoutingTableVisualizationDynamicShowcase.sourceHost.wlan[0].mac.dcf.channelAccess.pendingQueue incomingPacketLengths:sum 547808
attr interpolationmode none
attr recordingmode sum
attr source packetLength(packetPushStarted)
attr title "incoming packet lengths, sum"
attr unit b
statistic RoutingTableVisualizationDynamicShowcase.sourceHost.wlan[0].mac.dcf.channelAccess.pendingQueue incomingPacketLengths:histogram
field count 599
field mean 914.53756260434
field stddev 104.68604843623
field min 512
field max 960
field sum 547808
field sqrsum 507544576
attr interpolationmode none
attr recordingmode histogram
attr source packetLength(packetPushStarted)
attr title "incoming packet lengths"
attr unit b
bin	-inf	0
bin	400	0
bin	410	0
bin	420	0
bin	430	0
bin	440	0
bin	450	0
bin	460	0
bin	470	0
bin	480	0
bin	490	0
bin	500	0
bin	510	9
bin	520	0
bin	530	0
bin	540	0
bin	550	0
bin	560	0
bin	570	0
bin	580	0
bin	590	0
bin	600	0
bin	610	0
bin	620	0
bin	630	0
bin	640	0
bin	650	0
bin	660	0
bin	670	5
bin	680	0
bin	690	0
bin	700	85
bin	710	0
bin	720	0
bin	730	0
bin	740	0
bin	750	0
bin	760	0
bin	770	0
bin	780	0
bin	790	0
bin	800	0
bin	810	0
bin	820	0
bin	830	0
bin	840	0
bin	850	0
bin	860	0
bin	870	0
bin	880	0
bin	890	0
bin	900	0
bin	910	0
bin	920	0
bin	930	0
bin	940	0
bin	950	0
bin	960	500
bin	970	0
bin	980	0
bin	990	0
bin	1000	0
bin	1010	0
bin	1020	0
bin	1030	0
bin	1040	0
bin	1050	0
bin	1060	0
bin	1070	0
bin	1080	0
scalar RoutingTableVisualizationDynamicShowcase.sourceHost.wlan[0].mac.dcf.channelAccess.pendingQueue droppedPacketsQueueOverflow:count 0
attr interpolationmode none
attr recordingmode count
attr source packetDropReasonIsQueueOverflow(packetDropped)
attr title "dropped packets: queue overflow, count"
attr unit pk
scalar RoutingTableVisualizationDynamicShowcase.sourceHost.wlan[0].mac.dcf.channelAccess.pendingQueue droppedPacketLengthsQueueOverflow:sum 0
attr interpolationmode none
attr recordingmode sum
attr source packetLength(packetDropReasonIsQueueOverflow(packetDropped))
attr title "dropped packet lengths: queue overflow, sum"
attr unit b
statistic RoutingTableVisualizationDynamicShowcase.sourceHost.wlan[0].mac.dcf.channelAccess.inProgressFrames queueingTime:histogram
field count 599
field mean 0.00039315847442237
field stddev 0.0031480956468749
field min 5e-05
field max 0.038149
field sum 0.235501926179
field sqrsum 0.0060190722867398
attr interpolationmode none
attr recordingmode histogram
attr source queueingTime(packetDequeued)
attr title "queueing times"
bin	-inf	0
bin	0	594
bin	0.001	0
bin	0.002	0
bin	0.003	0
bin	0.004	0
bin	0.005	0
bin	0.006	0
bin	0.007	0
bin	0.008	0
bin	0.009	0
bin	0.01	0
bin	0.011	0
bin	0.012	0
bin	0.013	0
bin	0.014	0
bin	0.015	0
bin	0.016	0
bin	0.017	0
bin	0.018	0
bin	0.019	0
bin	0.02	0
bin	0.021	0
bin	0.022	0
bin	0.023	0
bin	0.024	0
bin	0.025	0
bin	0.026	0
bin	0.027	1
bin	0.028	0
bin	0.029	0
bin	0.03	1
bin	0.031	0
bin	0.032	0
bin	0.033	0
bin	0.034	0
bin	0.035	0
bin	0.036	0
bin	0.037	1
bin	0.038	2
bin	0.039	0
bin	0.04	0
bin	0.041	0
bin	0.042	0
bin	0.043	0
bin	0.044	0
bin	0.045	0
bin	0.046	0
bin	0.047	0
bin	0.048	0
scalar RoutingTableVisualizationDynamicShowcase.sourceHost.wlan[0].mac.dcf.channelAccess.inProgressFrames queueLength:max 2
attr autoWarmupFilter false
attr interpolationmode sample-hold
attr recordingmode max
attr source "warmup(count(packetEnqueued) - count(packetDequeued))"
attr title "queue length, max"
scalar RoutingTableVisualizationDynamicShowcase.sourceHost.wlan[0].mac.dcf.channelAccess.inProgressFrames queueLength:timeavg 0.000471003852358
attr autoWarmupFilter false
attr interpolationmode sample-hold
attr recordingmode timeavg
attr source "warmup(count(packetEnqueued) - count(packetDequeued))"
attr title "queue length, timeavg"
scalar RoutingTableVisualizationDynamicShowcase.sourceHost.wlan[0].mac.dcf.channelAccess.contention channelAccessGranted:count 629
attr recordingmode count
attr title "channel access granted, count"
scalar RoutingTableVisualizationDynamicShowcase.sourceHost.wlan[0].mac.dcf.channelAccess.contention stateChanged:count 15138
attr enum IDLE,DEFER,IFS_AND_BACKOFF
attr interpolationmode none
attr recordingmode count
attr title "contention state changed, count"
attr type enum
scalar RoutingTableVisualizationDynamicShowcase.sourceHost.wlan[0].mac.dcf.channelAccess channelOwnershipChanged:count 1258
attr interpolationmode sample-hold
attr recordingmode count
attr title "channel ownership, count"
scalar RoutingTableVisualizationDynamicShowcase.sourceHost.wlan[0].mac.dcf.originatorMacDataService packetAggregated:count 0
attr recordingmode count
attr title "packets aggregated, count"
scalar RoutingTableVisualizationDynamicShowcase.sourceHost.wlan[0].mac.dcf.originatorMacDataService packetFragmented:count 0
attr recordingmode count
attr title "packets fragmented, count"
scalar RoutingTableVisualizationDynamicShowcase.sourceHost.wlan[0].mac.dcf.recipientMacDataService packetDeaggregated:count 0
attr recordingmode count
attr title "packets deaggregated, count"
scalar RoutingTableVisualizationDynamicShowcase.sourceHost.wlan[0].mac.dcf.recipientMacDataService packetDefragmented:count 636
attr recordingmode count
attr title "packets defragmented, count"
scalar RoutingTableVisualizationDynamicShowcase.sourceHost.wlan[0].mac.dcf.recipientMacDataService packetDropDuplicateDetected:count 0
attr interpolationmode none
attr recordingmode count
attr source packetDropReasonIsDuplicateDetected(packetDropped)
attr title "packet drops: duplicate detected, count"
scalar RoutingTableVisualizationDynamicShowcase.sourceHost.wlan[0].mac.dcf.recipientMacDataService packetDropDuplicateDetected:sum(packetBytes) 0
attr interpolationmode none
attr recordingmode sum(packetBytes)
attr source packetDropReasonIsDuplicateDetected(packetDropped)
attr title "packet drops: duplicate detected, sum(packetBytes)"
scalar RoutingTableVisualizationDynamicShowcase.sourceHost.wlan[0].mac.dcf.recoveryProcedure retryLimitReached:count 5
attr recordingmode count
attr title "retry limit reached, count"
scalar RoutingTableVisualizationDynamicShowcase.sourceHost.wlan[0].mac.dcf frameSequenceFinished:count 629
attr recordingmode count
attr title "finished frame sequences, count"
statistic RoutingTableVisualizationDynamicShowcase.sourceHost.wlan[0].mac.dcf frameSequenceDuration:histogram
field count 629
field mean 0.00010665074063116
field stddev 2.0628813519033e-05
field min 5e-05
field max 0.000125
field sum 0.067083315857
field sqrsum 7.4217294309866e-06
attr recordingmode histogram
attr source frameSequenceDuration(frameSequenceFinished)
attr title "frame sequence durations"
bin	-inf	0
bin	4e-05	0
bin	4.2e-05	0
bin	4.4e-05	0
bin	4.6e-05	0
bin	4.8e-05	3
bin	5e-05	0
bin	5.2e-05	0
bin	5.4e-05	0
bin	5.6e-05	90
bin	5.8e-05	0
bin	6e-05	0
bin	6.2e-05	0
bin	6.4e-05	0
bin	6.6e-05	0
bin	6.8e-05	0
bin	7e-05	0
bin	7.2e-05	0
bin	7.4e-05	0
bin	7.6e-05	0
bin	7.8e-05	0
bin	8e-05	0
bin	8.2e-05	0
bin	8.4e-05	0
bin	8.6e-05	0
bin	8.8e-05	0
bin	9e-05	0
bin	9.2e-05	0
bin	9.4e-05	6
bin	9.6e-05	0
bin	9.8e-05	0
bin	0.0001	0
bin	0.000102	0
bin	0.000104	0
bin	0.000106	0
bin	0.000108	0
bin	0.00011	0
bin	0.000112	0
bin	0.000114	495
bin	0.000116	0
bin	0.000118	0
bin	0.00012	0
bin	0.000122	0
bin	0.000124	35
bin	0.000126	0
bin	0.000128	0
bin	0.00013	0
bin	0.000132	0
bin	0.000134	0
bin	0.000136	0
bin	0.000138	0
bin	0.00014	0
bin	0.000142	0
statistic RoutingTableVisualizationDynamicShowcase.sourceHost.wlan[0].mac.dcf frameSequenceNumPackets:histogram
field count 629
field mean 1.852146263911
field stddev 0.35523743415321
field min 1
field max 2
field sum 1165
field sqrsum 2237
attr recordingmode histogram
attr source frameSequenceNumPackets(frameSequenceFinished)
attr title "frame sequences: number of packets"
bin	-inf	0
bin	0	0
bin	1	93
bin	2	536
bin	3	0
scalar RoutingTableVisualizationDynamicShowcase.sourceHost.wlan[0].mac.dcf packetReceivedFromPeer:count 1137
attr interpolationmode none
attr recordingmode count
attr title "packets received, count"
scalar RoutingTableVisualizationDynamicShowcase.sourceHost.wlan[0].mac.dcf packetReceivedFromPeer:sum(packetBytes) 77026
attr interpolationmode none
attr recordingmode sum(packetBytes)
attr title "packets received, sum(packetBytes)"
scalar RoutingTableVisualizationDynamicShowcase.sourceHost.wlan[0].mac.dcf packetReceivedFromPeerUnicast:count 1006
attr interpolationmode none
attr recordingmode count
attr source ieee80211Unicast(packetReceivedFromPeer)
attr title "packets received: unicast, count"
scalar RoutingTableVisualizationDynamicShowcase.sourceHost.wlan[0].mac.dcf packetReceivedFromPeerUnicast:sum(packetBytes) 65862
attr interpolationmode none
attr recordingmode sum(packetBytes)
attr source ieee80211Unicast(packetReceivedFromPeer)
attr title "packets received: unicast, sum(packetBytes)"
scalar RoutingTableVisualizationDynamicShowcase.sourceHost.wlan[0].mac.dcf packetReceivedFromPeerMulticast:count 131
attr interpolationmode none
attr recordingmode count
attr source ieee80211Multicast(packetReceivedFromPeer)
attr title "packets received: multicast, count"
scalar RoutingTableVisualizationDynamicShowcase.sourceHost.wlan[0].mac.dcf packetReceivedFromPeerMulticast:sum(packetBytes) 11164
attr interpolationmode none
attr recordingmode sum(packetBytes)
attr source ieee80211Multicast(packetReceivedFromPeer)
attr title "packets received: multicast, sum(packetBytes)"
scalar RoutingTableVisualizationDynamicShowcase.sourceHost.wlan[0].mac.dcf packetReceivedFromPeerBroadcast:count 131
attr interpolationmode none
attr recordingmode count
attr source ieee80211Broadcast(packetReceivedFromPeer)
attr title "packets received: broadcast, count"
scalar RoutingTableVisualizationDynamicShowcase.sourceHost.wlan[0].mac.dcf packetReceivedFromPeerBroadcast:sum(packetBytes) 11164
attr interpolationmode none
attr recordingmode sum(packetBytes)
attr source ieee80211Broadcast(packetReceivedFromPeer)
attr title "packets received: broadcast, sum(packetBytes)"
scalar RoutingTableVisualizationDynamicShowcase.sourceHost.wlan[0].mac.dcf packetReceivedFromPeerWithRetry:count 0
attr interpolationmode none
attr recordingmode count
attr source ieee80211Retry(packetReceivedFromPeer)
attr title "packets received: with retry, count"
scalar RoutingTableVisualizationDynamicShowcase.sourceHost.wlan[0].mac.dcf packetReceivedFromPeerWithRetry:sum(packetBytes) 0
attr interpolationmode none
attr recordingmode sum(packetBytes)
attr source ieee80211Retry(packetReceivedFromPeer)
attr title "packets received: with retry, sum(packetBytes)"
scalar RoutingTableVisualizationDynamicShowcase.sourceHost.wlan[0].mac.dcf packetReceivedFromPeerWithoutRetry:count 1137
attr interpolationmode none
attr recordingmode count
attr source ieee80211NotRetry(packetReceivedFromPeer)
attr title "packets received: without retry, count"
scalar RoutingTableVisualizationDynamicShowcase.sourceHost.wlan[0].mac.dcf packetReceivedFromPeerWithoutRetry:sum(packetBytes) 77026
attr interpolationmode none
attr recordingmode sum(packetBytes)
attr source ieee80211NotRetry(packetReceivedFromPeer)
attr title "packets received: without retry, sum(packetBytes)"
scalar RoutingTableVisualizationDynamicShowcase.sourceHost.wlan[0].mac.dcf packetSentToPeer:count 1134
attr interpolationmode none
attr recordingmode count
attr title "packets sent, count"
scalar RoutingTableVisualizationDynamicShowcase.sourceHost.wlan[0].mac.dcf packetSentToPeer:sum(packetBytes) 79146
attr interpolationmode none
attr recordingmode sum(packetBytes)
attr title "packets sent, sum(packetBytes)"
scalar RoutingTableVisualizationDynamicShowcase.sourceHost.wlan[0].mac.dcf packetSentToPeerUnicast:count 1041
attr interpolationmode none
attr recordingmode count
attr source ieee80211Unicast(packetSentToPeer)
attr title "packets sent: unicast, count"
scalar RoutingTableVisualizationDynamicShowcase.sourceHost.wlan[0].mac.dcf packetSentToPeerUnicast:sum(packetBytes) 71054
attr interpolationmode none
attr recordingmode sum(packetBytes)
attr source ieee80211Unicast(packetSentToPeer)
attr title "packets sent: unicast, sum(packetBytes)"
scalar RoutingTableVisualizationDynamicShowcase.sourceHost.wlan[0].mac.dcf packetSentToPeerMulticast:count 93
attr interpolationmode none
attr recordingmode count
attr source ieee80211Multicast(packetSentToPeer)
attr title "packets sent: multicast, count"
scalar RoutingTableVisualizationDynamicShowcase.sourceHost.wlan[0].mac.dcf packetSentToPeerMulticast:sum(packetBytes) 8092
attr interpolationmode none
attr recordingmode sum(packetBytes)
attr source ieee80211Multicast(packetSentToPeer)
attr title "packets sent: multicast, sum(packetBytes)"
scalar RoutingTableVisualizationDynamicShowcase.sourceHost.wlan[0].mac.dcf packetSentToPeerBroadcast:count 93
attr interpolationmode none
attr recordingmode count
attr source ieee80211Broadcast(packetSentToPeer)
attr title "packets sent: broadcast , count"
scalar RoutingTableVisualizationDynamicShowcase.sourceHost.wlan[0].mac.dcf packetSentToPeerBroadcast:sum(packetBytes) 8092
attr interpolationmode none
attr recordingmode sum(packetBytes)
attr source ieee80211Broadcast(packetSentToPeer)
attr title "packets sent: broadcast , sum(packetBytes)"
scalar RoutingTableVisualizationDynamicShowcase.sourceHost.wlan[0].mac.dcf packetSentToPeerWithRetry:count 30
attr interpolationmode none
attr recordingmode count
attr source ieee80211Retry(packetSentToPeer)
attr title "packets sent: with retry, count"
scalar RoutingTableVisualizationDynamicShowcase.sourceHost.wlan[0].mac.dcf packetSentToPeerWithRetry:sum(packetBytes) 3600
attr interpolationmode none
attr recordingmode sum(packetBytes)
attr source ieee80211Retry(packetSentToPeer)
attr title "packets sent: with retry, sum(packetBytes)"
scalar RoutingTableVisualizationDynamicShowcase.sourceHost.wlan[0].mac.dcf packetSentToPeerWithoutRetry:count 1104
attr interpolationmode none
attr recordingmode count
attr source ieee80211NotRetry(packetSentToPeer)
attr title "packets sent: without retry, count"
scalar RoutingTableVisualizationDynamicShowcase.sourceHost.wlan[0].mac.dcf packetSentToPeerWithoutRetry:sum(packetBytes) 75546
attr interpolationmode none
attr recordingmode sum(packetBytes)
attr source ieee80211NotRetry(packetSentToPeer)
attr title "packets sent: without retry, sum(packetBytes)"
scalar RoutingTableVisualizationDynamicShowcase.sourceHost.wlan[0].mac.dcf packetDrop:count 953
attr interpolationmode none
attr recordingmode count
attr source packetDropped
attr title "packet drops, count"
scalar RoutingTableVisualizationDynamicShowcase.sourceHost.wlan[0].mac.dcf packetDrop:sum(packetBytes) 66704
attr interpolationmode none
attr recordingmode sum(packetBytes)
attr source packetDropped
attr title "packet drops, sum(packetBytes)"
scalar RoutingTableVisualizationDynamicShowcase.sourceHost.wlan[0].mac.dcf packetDropNotAddressedToUs:count 948
attr interpolationmode none
attr recordingmode count
attr source packetDropReasonIsNotAddressedToUs(packetDropped)
attr title "packet drops: not addressed to us, count"
scalar RoutingTableVisualizationDynamicShowcase.sourceHost.wlan[0].mac.dcf packetDropNotAddressedToUs:sum(packetBytes) 66104
attr interpolationmode none
attr recordingmode sum(packetBytes)
attr source packetDropReasonIsNotAddressedToUs(packetDropped)
attr title "packet drops: not addressed to us, sum(packetBytes)"
scalar RoutingTableVisualizationDynamicShowcase.sourceHost.wlan[0].mac.dcf packetDropQueueOverflow:count 0
attr interpolationmode none
attr recordingmode count
attr source packetDropReasonIsQueueOverflow(packetDropped)
attr title "packet drops: queue overflow, count"
scalar RoutingTableVisualizationDynamicShowcase.sourceHost.wlan[0].mac.dcf packetDropQueueOverflow:sum(packetBytes) 0
attr interpolationmode none
attr recordingmode sum(packetBytes)
attr source packetDropReasonIsQueueOverflow(packetDropped)
attr title "packet drops: queue overflow, sum(packetBytes)"
scalar RoutingTableVisualizationDynamicShowcase.sourceHost.wlan[0].mac.dcf packetDropRetryLimitReached:count 5
attr interpolationmode none
attr recordingmode count
attr source packetDropReasonIsRetryLimitReached(packetDropped)
attr title "packet drops: retry limit reached, count"
scalar RoutingTableVisualizationDynamicShowcase.sourceHost.wlan[0].mac.dcf packetDropRetryLimitReached:sum(packetBytes) 600
attr interpolationmode none
attr recordingmode sum(packetBytes)
attr source packetDropReasonIsRetryLimitReached(packetDropped)
attr title "packet drops: retry limit reached, sum(packetBytes)"
scalar RoutingTableVisualizationDynamicShowcase.sourceHost.wlan[0].mac.dcf linkBroken:count 5
attr interpolationmode none
attr recordingmode count
attr title "link breaks, count"
scalar RoutingTableVisualizationDynamicShowcase.sourceHost.wlan[0].mac packetReceivedFromLower:count 2085
attr interpolationmode none
attr recordingmode count
attr title "packets received from lower layer, count"
scalar RoutingTableVisualizationDynamicShowcase.sourceHost.wlan[0].mac packetReceivedFromLower:sum(packetBytes) 143130
attr interpolationmode none
attr recordingmode sum(packetBytes)
attr title "packets received from lower layer, sum(packetBytes)"
scalar RoutingTableVisualizationDynamicShowcase.sourceHost.wlan[0].mac packetSentToLower:count 1134
attr interpolationmode none
attr recordingmode count
attr title "packets sent to lower layer, count"
scalar RoutingTableVisualizationDynamicShowcase.sourceHost.wlan[0].mac packetSentToLower:sum(packetBytes) 79146
attr interpolationmode none
attr recordingmode sum(packetBytes)
attr title "packets sent to lower layer, sum(packetBytes)"
scalar RoutingTableVisualizationDynamicShowcase.sourceHost.wlan[0].mac packetReceivedFromUpper:count 599
attr interpolationmode none
attr recordingmode count
attr title "packets received from upper layer, count"
scalar RoutingTableVisualizationDynamicShowcase.sourceHost.wlan[0].mac packetReceivedFromUpper:sum(packetBytes) 51704
attr interpolationmode none
attr recordingmode sum(packetBytes)
attr title "packets received from upper layer, sum(packetBytes)"
scalar RoutingTableVisualizationDynamicShowcase.sourceHost.wlan[0].mac packetSentToUpper:count 636
attr interpolationmode none
attr recordingmode count
attr title "packets sent to upper layer, count"
scalar RoutingTableVisualizationDynamicShowcase.sourceHost.wlan[0].mac packetSentToUpper:sum(packetBytes) 52204
attr interpolationmode none
attr recordingmode sum(packetBytes)
attr title "packets sent to upper layer, sum(packetBytes)"
scalar RoutingTableVisualizationDynamicShowcase.sourceHost.wlan[0].mac packetDrop:count 953
attr interpolationmode none
attr recordingmode count
attr source packetDropped
attr title "packet drops, count"
scalar RoutingTableVisualizationDynamicShowcase.sourceHost.wlan[0].mac packetDrop:sum(packetBytes) 66704
attr interpolationmode none
attr recordingmode sum(packetBytes)
attr source packetDropped
attr title "packet drops, sum(packetBytes)"
scalar RoutingTableVisualizationDynamicShowcase.sourceHost.wlan[0].mac packetDropIncorrectlyReceived:count 0
attr interpolationmode none
attr recordingmode count
attr source packetDropReasonIsIncorrectlyReceived(packetDropped)
attr title "packet drops: incorrectly received, count"
scalar RoutingTableVisualizationDynamicShowcase.sourceHost.wlan[0].mac packetDropIncorrectlyReceived:sum(packetBytes) 0
attr interpolationmode none
attr recordingmode sum(packetBytes)
attr source packetDropReasonIsIncorrectlyReceived(packetDropped)
attr title "packet drops: incorrectly received, sum(packetBytes)"
scalar RoutingTableVisualizationDynamicShowcase.sourceHost.wlan[0].mac packetDropNotAddressedToUs:count 948
attr interpolationmode none
attr recordingmode count
attr source packetDropReasonIsNotAddressedToUs(packetDropped)
attr title "packet drops: not addressed to us, count"
scalar RoutingTableVisualizationDynamicShowcase.sourceHost.wlan[0].mac packetDropNotAddressedToUs:sum(packetBytes) 66104
attr interpolationmode none
attr recordingmode sum(packetBytes)
attr source packetDropReasonIsNotAddressedToUs(packetDropped)
attr title "packet drops: not addressed to us, sum(packetBytes)"
scalar RoutingTableVisualizationDynamicShowcase.sourceHost.wlan[0].mac packetDropQueueOverflow:count 0
attr interpolationmode none
attr recordingmode count
attr source packetDropReasonIsQueueOverflow(packetDropped)
attr title "packet drops: queue overflow, count"
scalar RoutingTableVisualizationDynamicShowcase.sourceHost.wlan[0].mac packetDropQueueOverflow:sum(packetBytes) 0
attr interpolationmode none
attr recordingmode sum(packetBytes)
attr source packetDropReasonIsQueueOverflow(packetDropped)
attr title "packet drops: queue overflow, sum(packetBytes)"
scalar RoutingTableVisualizationDynamicShowcase.sourceHost.wlan[0].mac packetDropRetryLimitReached:count 5
attr interpolationmode none
attr recordingmode count
attr source packetDropReasonIsRetryLimitReached(packetDropped)
attr title "packet drops: retry limit reached, count"
scalar RoutingTableVisualizationDynamicShowcase.sourceHost.wlan[0].mac packetDropRetryLimitReached:sum(packetBytes) 600
attr interpolationmode none
attr recordingmode sum(packetBytes)
attr source packetDropReasonIsRetryLimitReached(packetDropped)
attr title "packet drops: retry limit reached, sum(packetBytes)"
scalar RoutingTableVisualizationDynamicShowcase.sourceHost.wlan[0].mac packetDropDuplicateDetected:count 0
attr interpolationmode none
attr recordingmode count
attr source packetDropReasonIsDuplicateDetected(packetDropped)
attr title "packet drops: duplicate detected, count"
scalar RoutingTableVisualizationDynamicShowcase.sourceHost.wlan[0].mac packetDropDuplicateDetected:sum(packetBytes) 0
attr interpolationmode none
attr recordingmode sum(packetBytes)
attr source packetDropReasonIsDuplicateDetected(packetDropped)
attr title "packet drops: duplicate detected, sum(packetBytes)"
scalar RoutingTableVisualizationDynamicShowcase.sourceHost.wlan[0].mac packetDropOther:count 0
attr interpolationmode none
attr recordingmode count
attr source packetDropReasonIsOther(packetDropped)
attr title "packet drops: other, count"
scalar RoutingTableVisualizationDynamicShowcase.sourceHost.wlan[0].mac packetDropOther:sum(packetBytes) 0
attr interpolationmode none
attr recordingmode sum(packetBytes)
attr source packetDropReasonIsOther(packetDropped)
attr title "packet drops: other, sum(packetBytes)"
scalar RoutingTableVisualizationDynamicShowcase.sourceHost.wlan[0].mac linkBroken:count 5
attr interpolationmode none
attr recordingmode count
attr title "link breaks, count"
statistic RoutingTableVisualizationDynamicShowcase.sourceHost.wlan[0].radio radioChannel:histogram
field count 1
field mean 0
field stddev nan
field min 0
field max 0
field sum 0
field sqrsum 0
attr interpolationmode sample-hold
attr recordingmode histogram
attr source radioChannelChanged
attr title "Radio channel"
bin	-inf	0
bin	-0.5	0
bin	-0.48	0
bin	-0.46	0
bin	-0.44	0
bin	-0.42	0
bin	-0.4	0
bin	-0.38	0
bin	-0.36	0
bin	-0.34	0
bin	-0.32	0
bin	-0.3	0
bin	-0.28	0
bin	-0.26	0
bin	-0.24	0
bin	-0.22	0
bin	-0.2	0
bin	-0.18	0
bin	-0.16	0
bin	-0.14	0
bin	-0.12	0
bin	-0.1	0
bin	-0.08	0
bin	-0.06	0
bin	-0.04	0
bin	-0.02	0
bin	0	1
bin	0.02	0
bin	0.04	0
bin	0.06	0
bin	0.08	0
bin	0.1	0
bin	0.12	0
bin	0.14	0
bin	0.16	0
bin	0.18	0
bin	0.2	0
bin	0.22	0
bin	0.24	0
bin	0.26	0
bin	0.28	0
bin	0.3	0
bin	0.32	0
bin	0.34	0
bin	0.36	0
bin	0.38	0
bin	0.4	0
bin	0.42	0
bin	0.44	0
bin	0.46	0
bin	0.48	0
bin	0.5	0
scalar RoutingTableVisualizationDynamicShowcase.sourceHost.wlan[0].radio radioMode:count 2271
attr interpolationmode sample-hold
attr recordingmode count
attr source radioModeChanged
attr title "Radio mode, count"
scalar RoutingTableVisualizationDynamicShowcase.sourceHost.wlan[0].radio receptionState:count 6441
attr interpolationmode sample-hold
attr recordingmode count
attr source receptionStateChanged
attr title "Radio reception state, count"
scalar RoutingTableVisualizationDynamicShowcase.sourceHost.wlan[0].radio transmissionState:count 4536
attr interpolationmode sample-hold
attr recordingmode count
attr source transmissionStateChanged
attr title "Radio transmission state, count"
statistic RoutingTableVisualizationDynamicShowcase.sourceHost.wlan[0].radio minSnir:histogram
field count 2085
field mean 1076.9712873146
field stddev 251.62294713338
field min 18.334893497472
field max 1168.8719438504
field sum 2245485.134051
field sqrsum 2550269615.545
attr recordingmode histogram
attr source minimumSnir(packetSentToUpper)
attr title "Min SNIR"
bin	-inf	0
bin	0	1
bin	20	0
bin	40	0
bin	60	0
bin	80	0
bin	100	0
bin	120	0
bin	140	0
bin	160	0
bin	180	0
bin	200	0
bin	220	0
bin	240	0
bin	260	0
bin	280	0
bin	300	0
bin	320	18
bin	340	18
bin	360	34
bin	380	52
bin	400	123
bin	420	0
bin	440	0
bin	460	0
bin	480	0
bin	500	0
bin	520	0
bin	540	0
bin	560	0
bin	580	0
bin	600	0
bin	620	0
bin	640	0
bin	660	0
bin	680	0
bin	700	0
bin	720	0
bin	740	0
bin	760	0
bin	780	0
bin	800	0
bin	820	0
bin	840	0
bin	860	0
bin	880	0
bin	900	0
bin	920	0
bin	940	0
bin	960	0
bin	980	0
bin	1000	0
bin	1020	0
bin	1040	0
bin	1060	0
bin	1080	0
bin	1100	0
bin	1120	0
bin	1140	0
bin	1160	1839
bin	1180	0
bin	1200	0
bin	1220	0
bin	1240	0
bin	1260	0
bin	1280	0
bin	1300	0
bin	1320	0
bin	1340	0
bin	1360	0
bin	1380	0
statistic RoutingTableVisualizationDynamicShowcase.sourceHost.wlan[0].radio packetErrorRate:histogram
field count 2085
field mean 4.7718445121843e-05
field stddev 0.0021789101083121
field min 0
field max 0.099492958079042
field sum 0.099492958079042
field sqrsum 0.0098988487073181
attr recordingmode histogram
attr source packetErrorRate(packetSentToUpper)
attr title "Packet error rate"
bin	-inf	0
bin	-0.5	0
bin	-0.48	0
bin	-0.46	0
bin	-0.44	0
bin	-0.42	0
bin	-0.4	0
bin	-0.38	0
bin	-0.36	0
bin	-0.34	0
bin	-0.32	0
bin	-0.3	0
bin	-0.28	0
bin	-0.26	0
bin	-0.24	0
bin	-0.22	0
bin	-0.2	0
bin	-0.18	0
bin	-0.16	0
bin	-0.14	0
bin	-0.12	0
bin	-0.1	0
bin	-0.08	0
bin	-0.06	0
bin	-0.04	0
bin	-0.02	0
bin	0	2084
bin	0.02	0
bin	0.04	0
bin	0.06	0
bin	0.08	1
bin	0.1	0
bin	0.12	0
bin	0.14	0
bin	0.16	0
bin	0.18	0
bin	0.2	0
bin	0.22	0
bin	0.24	0
bin	0.26	0
bin	0.28	0
bin	0.3	0
bin	0.32	0
bin	0.34	0
bin	0.36	0
bin	0.38	0
bin	0.4	0
bin	0.42	0
bin	0.44	0
bin	0.46	0
bin	0.48	0
bin	0.5	0
statistic RoutingTableVisualizationDynamicShowcase.sourceHost.wlan[0].radio bitErrorRate:histogram
field count 0
field mean -nan
field stddev nan
field min nan
field max nan
field sum 0
field sqrsum 0
attr recordingmode histogram
attr source bitErrorRate(packetSentToUpper)
attr title "Bit error rate"
bin	-inf	0
bin	0	0
bin	1	0
statistic RoutingTableVisualizationDynamicShowcase.sourceHost.wlan[0].radio symbolErrorRate:histogram
field count 0
field mean -nan
field stddev nan
field min nan
field max nan
field sum 0
field sqrsum 0
attr recordingmode histogram
attr source symbolErrorRate(packetSentToUpper)
attr title "Symbol error rate"
bin	-inf	0
bin	0	0
bin	1	0
scalar RoutingTableVisualizationDynamicShowcase.sourceHost.wlan[0] packetDropInterfaceDown:count 0
attr interpolationmode none
attr recordingmode count
attr source packetDropReasonIsInterfaceDown(packetDropped)
attr title "packet drops: interface down, count"
scalar RoutingTableVisualizationDynamicShowcase.sourceHost.wlan[0] packetDropInterfaceDown:sum(packetBytes) 0
attr interpolationmode none
attr recordingmode sum(packetBytes)
attr source packetDropReasonIsInterfaceDown(packetDropped)
attr title "packet drops: interface down, sum(packetBytes)"
scalar RoutingTableVisualizationDynamicShowcase.sourceHost.wlan[0] packetDropNoCarrier:count 0
attr interpolationmode none
attr recordingmode count
attr source packetDropReasonIsNoCarrier(packetDropped)
attr title "packet drops: no carrier, count"
scalar RoutingTableVisualizationDynamicShowcase.sourceHost.wlan[0] packetDropNoCarrier:sum(packetBytes) 0
attr interpolationmode none
attr recordingmode sum(packetBytes)
attr source packetDropReasonIsNoCarrier(packetDropped)
attr title "packet drops: no carrier, sum(packetBytes)"
scalar RoutingTableVisualizationDynamicShowcase.sourceHost.ipv4.ip packetDropAddressResolutionFailed:count 0
attr interpolationmode none
attr recordingmode count
attr source packetDropReasonIsAddressResolutionFailed(packetDropped)
attr title "packet drop: address resolution failed, count"
scalar RoutingTableVisualizationDynamicShowcase.sourceHost.ipv4.ip packetDropAddressResolutionFailed:sum(packetBytes) 0
attr interpolationmode none
attr recordingmode sum(packetBytes)
attr source packetDropReasonIsAddressResolutionFailed(packetDropped)
attr title "packet drop: address resolution failed, sum(packetBytes)"
scalar RoutingTableVisualizationDynamicShowcase.sourceHost.ipv4.ip packetDropHopLimitReached:count 0
attr interpolationmode none
attr recordingmode count
attr source packetDropReasonIsHopLimitReached(packetDropped)
attr title "packet drop: hop limit reached, count"
scalar RoutingTableVisualizationDynamicShowcase.sourceHost.ipv4.ip packetDropHopLimitReached:sum(packetBytes) 0
attr interpolationmode none
attr recordingmode sum(packetBytes)
attr source packetDropReasonIsHopLimitReached(packetDropped)
attr title "packet drop: hop limit reached, sum(packetBytes)"
scalar RoutingTableVisualizationDynamicShowcase.sourceHost.ipv4.ip packetDropForwardingDisabled:count 0
attr interpolationmode none
attr recordingmode count
attr source packetDropReasonIsForwardingDisabled(packetDropped)
attr title "packet drop: forwarding disabled, count"
scalar RoutingTableVisualizationDynamicShowcase.sourceHost.ipv4.ip packetDropForwardingDisabled:sum(packetBytes) 0
attr interpolationmode none
attr recordingmode sum(packetBytes)
attr source packetDropReasonIsForwardingDisabled(packetDropped)
attr title "packet drop: forwarding disabled, sum(packetBytes)"
scalar RoutingTableVisualizationDynamicShowcase.sourceHost.ipv4.ip packetDropNoInterfaceFound:count 0
attr interpolationmode none
attr recordingmode count
attr source packetDropReasonIsNoInterfaceFound(packetDropped)
attr title "packet drop: no interface found, count"
scalar RoutingTableVisualizationDynamicShowcase.sourceHost.ipv4.ip packetDropNoInterfaceFound:sum(packetBytes) 0
attr interpolationmode none
attr recordingmode sum(packetBytes)
attr source packetDropReasonIsNoInterfaceFound(packetDropped)
attr title "packet drop: no interface found, sum(packetBytes)"
scalar RoutingTableVisualizationDynamicShowcase.sourceHost.ipv4.ip packetDropNoRouteFound:count 0
attr interpolationmode none
attr recordingmode count
attr source packetDropReasonIsNoRouteFound(packetDropped)
attr title "packet drop: no route found, count"
scalar RoutingTableVisualizationDynamicShowcase.sourceHost.ipv4.ip packetDropNoRouteFound:sum(packetBytes) 0
attr interpolationmode none
attr recordingmode sum(packetBytes)
attr source packetDropReasonIsNoRouteFound(packetDropped)
attr title "packet drop: no route found, sum(packetBytes)"
scalar RoutingTableVisualizationDynamicShowcase.sourceHost.ipv4.ip packetDropUndefined:count 0
attr interpolationmode none
attr recordingmode count
attr source packetDropReasonIsUndefined(packetDropped)
attr title "packet drop: undefined, count"
scalar RoutingTableVisualizationDynamicShowcase.sourceHost.ipv4.ip packetDropUndefined:sum(packetBytes) 0
attr interpolationmode none
attr recordingmode sum(packetBytes)
attr source packetDropReasonIsUndefined(packetDropped)
attr title "packet drop: undefined, sum(packetBytes)"
scalar RoutingTableVisualizationDynamicShowcase.sourceHost.ipv4.arp arpResolutionFailed:count 0
attr recordingmode count
attr title "ARP failed resolutions, count"
scalar RoutingTableVisualizationDynamicShowcase.sourceHost.ipv4.arp arpResolutionCompleted:count 12
attr recordingmode count
attr title "ARP completed resolutions, count"
scalar RoutingTableVisualizationDynamicShowcase.sourceHost.ipv4.arp arpResolutionInitiated:count 3
attr recordingmode count
attr title "ARP initiated resolutions, count"
scalar RoutingTableVisualizationDynamicShowcase.sourceHost.ipv4.arp arpReplySent:count 6
attr recordingmode count
attr source arpReplySent
attr title "ARP replies sent, count"
scalar RoutingTableVisualizationDynamicShowcase.sourceHost.ipv4.arp arpReplySent:sum(packetBytes) 168
attr recordingmode sum(packetBytes)
attr source arpReplySent
attr title "ARP replies sent, sum(packetBytes)"
scalar RoutingTableVisualizationDynamicShowcase.sourceHost.ipv4.arp arpRequestSent:count 3
attr recordingmode count
attr source arpRequestSent
attr title "ARP request sent, count"
scalar RoutingTableVisualizationDynamicShowcase.sourceHost.ipv4.arp arpRequestSent:sum(packetBytes) 84
attr recordingmode sum(packetBytes)
attr source arpRequestSent
attr title "ARP request sent, sum(packetBytes)"
scalar RoutingTableVisualizationDynamicShowcase.sourceHost.udp packetReceived:count 166
attr interpolationmode none
attr recordingmode count
attr source packetReceived
attr title "packets received, count"
scalar RoutingTableVisualizationDynamicShowcase.sourceHost.udp packetReceived:sum(packetBytes) 4988
attr interpolationmode none
attr recordingmode sum(packetBytes)
attr source packetReceived
attr title "packets received, sum(packetBytes)"
scalar RoutingTableVisualizationDynamicShowcase.sourceHost.udp packetSent:count 90
attr interpolationmode none
attr recordingmode count
attr source packetSent
attr title "packets sent, count"
scalar RoutingTableVisualizationDynamicShowcase.sourceHost.udp packetSent:sum(packetBytes) 2860
attr interpolationmode none
attr recordingmode sum(packetBytes)
attr source packetSent
attr title "packets sent, sum(packetBytes)"
scalar RoutingTableVisualizationDynamicShowcase.sourceHost.udp passedUpPk:count 166
attr interpolationmode none
attr recordingmode count
attr source packetSentToUpper
attr title "packets passed up, count"
scalar RoutingTableVisualizationDynamicShowcase.sourceHost.udp droppedPkWrongPort:count 0
attr interpolationmode none
attr recordingmode count
attr source packetDropReasonIsNoPortFound(packetDropped)
attr title "packets dropped (wrong port), count"
scalar RoutingTableVisualizationDynamicShowcase.sourceHost.udp droppedPkBadChecksum:count 0
attr interpolationmode none
attr recordingmode count
attr source packetDropReasonIsIncorrectlyReceived(packetDropped)
attr title "packets dropped (checksum error), count"
scalar RoutingTableVisualizationDynamicShowcase.sourceHost.app[0] "Pings sent" 500
scalar RoutingTableVisualizationDynamicShowcase.sourceHost.app[0] "ping loss rate (%)" 8.4
scalar RoutingTableVisualizationDynamicShowcase.sourceHost.app[0] "ping out-of-order rate (%)" 0
scalar RoutingTableVisualizationDynamicShowcase.sourceHost.app[0] pingRxSeq:count 458
attr interpolationmode none
attr recordingmode count
attr title "ping rx seq, count"
scalar RoutingTableVisualizationDynamicShowcase.sourceHost.app[0] pingTxSeq:count 500
attr interpolationmode none
attr recordingmode count
attr title "ping tx seq, count"
scalar RoutingTableVisualizationDynamicShowcase.sourceHost.app[0] numOutOfOrderArrivals:last nan
attr interpolationmode none
attr recordingmode last
attr title "ping out-of-order arrivals, last"
scalar RoutingTableVisualizationDynamicShowcase.sourceHost.app[0] numLost:last 42
attr interpolationmode none
attr recordingmode last
attr title "pings lost, last"
statistic RoutingTableVisualizationDynamicShowcase.sourceHost.app[0] rtt:histogram
field count 458
field mean 0.041192035531343
field stddev 0.16735032975366
field min 0.000235019621
field max 1.831857573479
field sum 18.865952273355
field sqrsum 13.575929697353
attr interpolationmode none
attr recordingmode histogram
attr title "ping round-trip time"
attr unit s
bin	-inf	0
bin	0	428
bin	0.05	0
bin	0.1	0
bin	0.15	0
bin	0.2	0
bin	0.25	0
bin	0.3	17
bin	0.35	0
bin	0.4	0
bin	0.45	0
bin	0.5	0
bin	0.55	0
bin	0.6	0
bin	0.65	0
bin	0.7	0
bin	0.75	0
bin	0.8	12
bin	0.85	0
bin	0.9	0
bin	0.95	0
bin	1	0
bin	1.05	0
bin	1.1	0
bin	1.15	0
bin	1.2	0
bin	1.25	0
bin	1.3	0
bin	1.35	0
bin	1.4	0
bin	1.45	0
bin	1.5	0
bin	1.55	0
bin	1.6	0
bin	1.65	0
bin	1.7	0
bin	1.75	0
bin	1.8	1
bin	1.85	0
bin	1.9	0
bin	1.95	0
bin	2	0
bin	2.05	0
bin	2.1	0
bin	2.15	0
bin	2.2	0
bin	2.25	0
bin	2.3	0
scalar RoutingTableVisualizationDynamicShowcase.host1.lo[0].lo rcvdPkFromHl:count 0
attr interpolationmode none
attr recordingmode count
attr source packetReceivedFromUpper
attr title "packets received from higher layer, count"
scalar RoutingTableVisualizationDynamicShowcase.host1.lo[0].lo rcvdPkFromHl:sum(packetBytes) 0
attr interpolationmode none
attr recordingmode sum(packetBytes)
attr source packetReceivedFromUpper
attr title "packets received from higher layer, sum(packetBytes)"
scalar RoutingTableVisualizationDynamicShowcase.host1.lo[0].lo passedUpPk:count 0
attr interpolationmode none
attr recordingmode count
attr source packetSentToUpper
attr title "packets passed to higher layer, count"
scalar RoutingTableVisualizationDynamicShowcase.host1.lo[0].lo passedUpPk:sum(packetBytes) 0
attr interpolationmode none
attr recordingmode sum(packetBytes)
attr source packetSentToUpper
attr title "packets passed to higher layer, sum(packetBytes)"
scalar RoutingTableVisualizationDynamicShowcase.host1.lo[0] packetDropInterfaceDown:count 0
attr interpolationmode none
attr recordingmode count
attr source packetDropReasonIsInterfaceDown(packetDropped)
attr title "packet drops: interface down, count"
scalar RoutingTableVisualizationDynamicShowcase.host1.lo[0] packetDropInterfaceDown:sum(packetBytes) 0
attr interpolationmode none
attr recordingmode sum(packetBytes)
attr source packetDropReasonIsInterfaceDown(packetDropped)
attr title "packet drops: interface down, sum(packetBytes)"
scalar RoutingTableVisualizationDynamicShowcase.host1.lo[0] packetDropNoCarrier:count 0
attr interpolationmode none
attr recordingmode count
attr source packetDropReasonIsNoCarrier(packetDropped)
attr title "packet drops: no carrier, count"
scalar RoutingTableVisualizationDynamicShowcase.host1.lo[0] packetDropNoCarrier:sum(packetBytes) 0
attr interpolationmode none
attr recordingmode sum(packetBytes)
attr source packetDropReasonIsNoCarrier(packetDropped)
attr title "packet drops: no carrier, sum(packetBytes)"
scalar RoutingTableVisualizationDynamicShowcase.host1.wlan[0].mac.dcf.channelAccess.pendingQueue queueLength:last 0
attr autoWarmupFilter false
attr interpolationmode sample-hold
attr recordingmode last
attr source "warmup(atomic(constant0(packetPushEnded) + count(packetPushStarted) - count(packetPulled) - count(packetRemoved) - count(packetDropped)))"
attr title "queue length, last"
attr unit pk
scalar RoutingTableVisualizationDynamicShowcase.host1.wlan[0].mac.dcf.channelAccess.pendingQueue queueLength:max 2
attr autoWarmupFilter false
attr interpolationmode sample-hold
attr recordingmode max
attr source "warmup(atomic(constant0(packetPushEnded) + count(packetPushStarted) - count(packetPulled) - count(packetRemoved) - count(packetDropped)))"
attr title "queue length, max"
attr unit pk
scalar RoutingTableVisualizationDynamicShowcase.host1.wlan[0].mac.dcf.channelAccess.pendingQueue queueLength:timeavg 0.000676921671228
attr autoWarmupFilter false
attr interpolationmode sample-hold
attr recordingmode timeavg
attr source "warmup(atomic(constant0(packetPushEnded) + count(packetPushStarted) - count(packetPulled) - count(packetRemoved) - count(packetDropped)))"
attr title "queue length, timeavg"
attr unit pk
scalar RoutingTableVisualizationDynamicShowcase.host1.wlan[0].mac.dcf.channelAccess.pendingQueue queueBitLength:last 0
attr autoWarmupFilter false
attr interpolationmode sample-hold
attr recordingmode last
attr source "warmup(atomic(constant0(packetPushEnded) + sum(packetLength(packetPushStarted)) - sum(packetLength(packetPulled)) - sum(packetLength(packetRemoved)) - sum(packetLength(packetDropped))))"
attr title "queue bit length, last"
attr unit b
scalar RoutingTableVisualizationDynamicShowcase.host1.wlan[0].mac.dcf.channelAccess.pendingQueue queueBitLength:max 1632
attr autoWarmupFilter false
attr interpolationmode sample-hold
attr recordingmode max
attr source "warmup(atomic(constant0(packetPushEnded) + sum(packetLength(packetPushStarted)) - sum(packetLength(packetPulled)) - sum(packetLength(packetRemoved)) - sum(packetLength(packetDropped))))"
attr title "queue bit length, max"
attr unit b
scalar RoutingTableVisualizationDynamicShowcase.host1.wlan[0].mac.dcf.channelAccess.pendingQueue queueBitLength:timeavg 0.63782663133152
attr autoWarmupFilter false
attr interpolationmode sample-hold
attr recordingmode timeavg
attr source "warmup(atomic(constant0(packetPushEnded) + sum(packetLength(packetPushStarted)) - sum(packetLength(packetPulled)) - sum(packetLength(packetRemoved)) - sum(packetLength(packetDropped))))"
attr title "queue bit length, timeavg"
attr unit b
statistic RoutingTableVisualizationDynamicShowcase.host1.wlan[0].mac.dcf.channelAccess.pendingQueue queueingTime:histogram
field count 956
field mean 0.00035403853097699
field stddev 0.0002167876784828
field min 0
field max 0.000714
field sum 0.338460835614
field sqrsum 0.0001647102141866
attr interpolationmode none
attr recordingmode histogram
attr source queueingTime(packetPulled)
attr title "queueing times"
attr unit s
bin	-inf	0
bin	0	120
bin	1e-05	0
bin	2e-05	1
bin	3e-05	1
bin	4e-05	1
bin	5e-05	0
bin	6e-05	1
bin	7e-05	0
bin	8e-05	1
bin	9e-05	15
bin	0.0001	0
bin	0.00011	24
bin	0.00012	1
bin	0.00013	21
bin	0.00014	1
bin	0.00015	28
bin	0.00016	0
bin	0.00017	20
bin	0.00018	1
bin	0.00019	26
bin	0.0002	0
bin	0.00021	26
bin	0.00022	0
bin	0.00023	23
bin	0.00024	2
bin	0.00025	28
bin	0.00026	0
bin	0.00027	23
bin	0.00028	0
bin	0.00029	39
bin	0.0003	0
bin	0.00031	36
bin	0.00032	0
bin	0.00033	33
bin	0.00034	3
bin	0.00035	23
bin	0.00036	0
bin	0.00037	31
bin	0.00038	1
bin	0.00039	15
bin	0.0004	1
bin	0.00041	26
bin	0.00042	1
bin	0.00043	24
bin	0.00044	0
bin	0.00045	27
bin	0.00046	1
bin	0.00047	26
bin	0.00048	2
bin	0.00049	24
bin	0.0005	0
bin	0.00051	23
bin	0.00052	1
bin	0.00053	18
bin	0.00054	0
bin	0.00055	28
bin	0.00056	1
bin	0.00057	24
bin	0.00058	0
bin	0.00059	23
bin	0.0006	2
bin	0.00061	26
bin	0.00062	0
bin	0.00063	26
bin	0.00064	1
bin	0.00065	26
bin	0.00066	0
bin	0.00067	26
bin	0.00068	0
bin	0.00069	28
bin	0.0007	0
bin	0.00071	26
bin	0.00072	0
bin	0.00073	0
bin	0.00074	0
bin	0.00075	0
bin	0.00076	0
bin	0.00077	0
bin	0.00078	0
bin	0.00079	0
bin	0.0008	0
bin	0.00081	0
bin	0.00082	0
bin	0.00083	0
bin	0.00084	0
bin	0.00085	0
bin	0.00086	0
bin	0.00087	0
bin	0.00088	0
bin	0.00089	0
bin	0.0009	0
scalar RoutingTableVisualizationDynamicShowcase.host1.wlan[0].mac.dcf.channelAccess.pendingQueue outgoingPackets:count 956
attr recordingmode count
attr source packetPulled
attr title "outgoing packets, count"
attr unit pk
scalar RoutingTableVisualizationDynamicShowcase.host1.wlan[0].mac.dcf.channelAccess.pendingQueue outgoingPacketLengths:sum 869632
attr interpolationmode none
attr recordingmode sum
attr source packetLength(packetPulled)
attr title "outgoing packet lengths, sum"
attr unit b
statistic RoutingTableVisualizationDynamicShowcase.host1.wlan[0].mac.dcf.channelAccess.pendingQueue outgoingPacketLengths:histogram
field count 956
field mean 909.65690376569
field stddev 109.53701454021
field min 512
field max 960
field sum 869632
field sqrsum 802525184
attr interpolationmode none
attr recordingmode histogram
attr source packetLength(packetPulled)
attr title "outgoing packet lengths"
attr unit b
bin	-inf	0
bin	400	0
bin	410	0
bin	420	0
bin	430	0
bin	440	0
bin	450	0
bin	460	0
bin	470	0
bin	480	0
bin	490	0
bin	500	0
bin	510	10
bin	520	0
bin	530	0
bin	540	0
bin	550	0
bin	560	0
bin	570	0
bin	580	0
bin	590	0
bin	600	0
bin	610	0
bin	620	0
bin	630	0
bin	640	0
bin	650	0
bin	660	0
bin	670	76
bin	680	0
bin	690	0
bin	700	85
bin	710	0
bin	720	0
bin	730	0
bin	740	0
bin	750	0
bin	760	0
bin	770	0
bin	780	0
bin	790	0
bin	800	0
bin	810	0
bin	820	0
bin	830	0
bin	840	0
bin	850	0
bin	860	0
bin	870	0
bin	880	0
bin	890	0
bin	900	0
bin	910	0
bin	920	0
bin	930	0
bin	940	0
bin	950	0
bin	960	785
bin	970	0
bin	980	0
bin	990	0
bin	1000	0
bin	1010	0
bin	1020	0
bin	1030	0
bin	1040	0
bin	1050	0
bin	1060	0
bin	1070	0
bin	1080	0
statistic RoutingTableVisualizationDynamicShowcase.host1.wlan[0].mac.dcf.channelAccess.pendingQueue flowQueueingTime:histogram
field count 0
field mean -nan
field stddev nan
field min nan
field max nan
field sum 0
field sqrsum 0
attr interpolationmode none
attr recordingmode histogram
attr source queueingTime(demuxFlow(packetPulled))
attr title "flow queueing times"
attr unit s
bin	-inf	0
bin	0	0
bin	1	0
scalar RoutingTableVisualizationDynamicShowcase.host1.wlan[0].mac.dcf.channelAccess.pendingQueue incomingPackets:count 956
attr recordingmode count
attr source packetPushStarted
attr title "incoming packets, count"
attr unit pk
scalar RoutingTableVisualizationDynamicShowcase.host1.wlan[0].mac.dcf.channelAccess.pendingQueue incomingPacketLengths:sum 869632
attr interpolationmode none
attr recordingmode sum
attr source packetLength(packetPushStarted)
attr title "incoming packet lengths, sum"
attr unit b
statistic RoutingTableVisualizationDynamicShowcase.host1.wlan[0].mac.dcf.channelAccess.pendingQueue incomingPacketLengths:histogram
field count 956
field mean 909.65690376569
field stddev 109.53701454021
field min 512
field max 960
field sum 869632
field sqrsum 802525184
attr interpolationmode none
attr recordingmode histogram
attr source packetLength(packetPushStarted)
attr title "incoming packet lengths"
attr unit b
bin	-inf	0
bin	400	0
bin	410	0
bin	420	0
bin	430	0
bin	440	0
bin	450	0
bin	460	0
bin	470	0
bin	480	0
bin	490	0
bin	500	0
bin	510	10
bin	520	0
bin	530	0
bin	540	0
bin	550	0
bin	560	0
bin	570	0
bin	580	0
bin	590	0
bin	600	0
bin	610	0
bin	620	0
bin	630	0
bin	640	0
bin	650	0
bin	660	0
bin	670	76
bin	680	0
bin	690	0
bin	700	85
bin	710	0
bin	720	0
bin	730	0
bin	740	0
bin	750	0
bin	760	0
bin	770	0
bin	780	0
bin	790	0
bin	800	0
bin	810	0
bin	820	0
bin	830	0
bin	840	0
bin	850	0
bin	860	0
bin	870	0
bin	880	0
bin	890	0
bin	900	0
bin	910	0
bin	920	0
bin	930	0
bin	940	0
bin	950	0
bin	960	785
bin	970	0
bin	980	0
bin	990	0
bin	1000	0
bin	1010	0
bin	1020	0
bin	1030	0
bin	1040	0
bin	1050	0
bin	1060	0
bin	1070	0
bin	1080	0
scalar RoutingTableVisualizationDynamicShowcase.host1.wlan[0].mac.dcf.channelAccess.pendingQueue droppedPacketsQueueOverflow:count 0
attr interpolationmode none
attr recordingmode count
attr source packetDropReasonIsQueueOverflow(packetDropped)
attr title "dropped packets: queue overflow, count"
attr unit pk
scalar RoutingTableVisualizationDynamicShowcase.host1.wlan[0].mac.dcf.channelAccess.pendingQueue droppedPacketLengthsQueueOverflow:sum 0
attr interpolationmode none
attr recordingmode sum
attr source packetLength(packetDropReasonIsQueueOverflow(packetDropped))
attr title "dropped packet lengths: queue overflow, sum"
attr unit b
statistic RoutingTableVisualizationDynamicShowcase.host1.wlan[0].mac.dcf.channelAccess.inProgressFrames queueingTime:histogram
field count 956
field mean 0.00037573203450418
field stddev 0.0028586728366352
field min 5e-05
field max 0.039609
field sum 0.359199824986
field sqrsum 0.0079392328005405
attr interpolationmode none
attr recordingmode histogram
attr source queueingTime(packetDequeued)
attr title "queueing times"
bin	-inf	0
bin	0	947
bin	0.0005	0
bin	0.001	0
bin	0.0015	0
bin	0.002	0
bin	0.0025	0
bin	0.003	0
bin	0.0035	0
bin	0.004	0
bin	0.0045	0
bin	0.005	0
bin	0.0055	0
bin	0.006	0
bin	0.0065	0
bin	0.007	0
bin	0.0075	0
bin	0.008	0
bin	0.0085	0
bin	0.009	0
bin	0.0095	0
bin	0.01	0
bin	0.0105	0
bin	0.011	0
bin	0.0115	0
bin	0.012	0
bin	0.0125	0
bin	0.013	0
bin	0.0135	0
bin	0.014	0
bin	0.0145	0
bin	0.015	0
bin	0.0155	0
bin	0.016	0
bin	0.0165	1
bin	0.017	0
bin	0.0175	0
bin	0.018	0
bin	0.0185	0
bin	0.019	1
bin	0.0195	0
bin	0.02	0
bin	0.0205	0
bin	0.021	0
bin	0.0215	0
bin	0.022	0
bin	0.0225	0
bin	0.023	0
bin	0.0235	1
bin	0.024	0
bin	0.0245	0
bin	0.025	0
bin	0.0255	0
bin	0.026	0
bin	0.0265	0
bin	0.027	1
bin	0.0275	0
bin	0.028	1
bin	0.0285	1
bin	0.029	0
bin	0.0295	0
bin	0.03	0
bin	0.0305	0
bin	0.031	0
bin	0.0315	0
bin	0.032	0
bin	0.0325	0
bin	0.033	0
bin	0.0335	0
bin	0.034	0
bin	0.0345	0
bin	0.035	0
bin	0.0355	0
bin	0.036	0
bin	0.0365	1
bin	0.037	0
bin	0.0375	1
bin	0.038	0
bin	0.0385	0
bin	0.039	0
bin	0.0395	1
bin	0.04	0
scalar RoutingTableVisualizationDynamicShowcase.host1.wlan[0].mac.dcf.channelAccess.inProgressFrames queueLength:max 2
attr autoWarmupFilter false
attr interpolationmode sample-hold
attr recordingmode max
attr source "warmup(count(packetEnqueued) - count(packetDequeued))"
attr title "queue length, max"
scalar RoutingTableVisualizationDynamicShowcase.host1.wlan[0].mac.dcf.channelAccess.inProgressFrames queueLength:timeavg 0.000718399649972
attr autoWarmupFilter false
attr interpolationmode sample-hold
attr recordingmode timeavg
attr source "warmup(count(packetEnqueued) - count(packetDequeued))"
attr title "queue length, timeavg"
scalar RoutingTableVisualizationDynamicShowcase.host1.wlan[0].mac.dcf.channelAccess.contention channelAccessGranted:count 1010
attr recordingmode count
attr title "channel access granted, count"
scalar RoutingTableVisualizationDynamicShowcase.host1.wlan[0].mac.dcf.channelAccess.contention stateChanged:count 21396
attr enum IDLE,DEFER,IFS_AND_BACKOFF
attr interpolationmode none
attr recordingmode count
attr title "contention state changed, count"
attr type enum
scalar RoutingTableVisualizationDynamicShowcase.host1.wlan[0].mac.dcf.channelAccess channelOwnershipChanged:count 2020
attr interpolationmode sample-hold
attr recordingmode count
attr title "channel ownership, count"
scalar RoutingTableVisualizationDynamicShowcase.host1.wlan[0].mac.dcf.originatorMacDataService packetAggregated:count 0
attr recordingmode count
attr title "packets aggregated, count"
scalar RoutingTableVisualizationDynamicShowcase.host1.wlan[0].mac.dcf.originatorMacDataService packetFragmented:count 0
attr recordingmode count
attr title "packets fragmented, count"
scalar RoutingTableVisualizationDynamicShowcase.host1.wlan[0].mac.dcf.recipientMacDataService packetDeaggregated:count 0
attr recordingmode count
attr title "packets deaggregated, count"
scalar RoutingTableVisualizationDynamicShowcase.host1.wlan[0].mac.dcf.recipientMacDataService packetDefragmented:count 1005
attr recordingmode count
attr title "packets defragmented, count"
scalar RoutingTableVisualizationDynamicShowcase.host1.wlan[0].mac.dcf.recipientMacDataService packetDropDuplicateDetected:count 0
attr interpolationmode none
attr recordingmode count
attr source packetDropReasonIsDuplicateDetected(packetDropped)
attr title "packet drops: duplicate detected, count"
scalar RoutingTableVisualizationDynamicShowcase.host1.wlan[0].mac.dcf.recipientMacDataService packetDropDuplicateDetected:sum(packetBytes) 0
attr interpolationmode none
attr recordingmode sum(packetBytes)
attr source packetDropReasonIsDuplicateDetected(packetDropped)
attr title "packet drops: duplicate detected, sum(packetBytes)"
scalar RoutingTableVisualizationDynamicShowcase.host1.wlan[0].mac.dcf.recoveryProcedure retryLimitReached:count 9
attr recordingmode count
attr title "retry limit reached, count"
scalar RoutingTableVisualizationDynamicShowcase.host1.wlan[0].mac.dcf frameSequenceFinished:count 1010
attr recordingmode count
attr title "finished frame sequences, count"
statistic RoutingTableVisualizationDynamicShowcase.host1.wlan[0].mac.dcf frameSequenceDuration:histogram
field count 1010
field mean 0.00010753386299208
field stddev 1.939231726074e-05
field min 5e-05
field max 0.000125
field sum 0.108609201622
field sqrsum 1.2058613533359e-05
attr recordingmode histogram
attr source frameSequenceDuration(frameSequenceFinished)
attr title "frame sequence durations"
bin	-inf	0
bin	3e-05	0
bin	3.2e-05	0
bin	3.4e-05	0
bin	3.6e-05	0
bin	3.8e-05	0
bin	4e-05	0
bin	4.2e-05	0
bin	4.4e-05	0
bin	4.6e-05	0
bin	4.8e-05	6
bin	5e-05	0
bin	5.2e-05	0
bin	5.4e-05	0
bin	5.6e-05	122
bin	5.8e-05	0
bin	6e-05	0
bin	6.2e-05	0
bin	6.4e-05	0
bin	6.6e-05	0
bin	6.8e-05	0
bin	7e-05	0
bin	7.2e-05	0
bin	7.4e-05	0
bin	7.6e-05	0
bin	7.8e-05	0
bin	8e-05	0
bin	8.2e-05	0
bin	8.4e-05	0
bin	8.6e-05	0
bin	8.8e-05	0
bin	9e-05	0
bin	9.2e-05	0
bin	9.4e-05	4
bin	9.6e-05	0
bin	9.8e-05	0
bin	0.0001	0
bin	0.000102	39
bin	0.000104	0
bin	0.000106	0
bin	0.000108	0
bin	0.00011	0
bin	0.000112	0
bin	0.000114	776
bin	0.000116	0
bin	0.000118	0
bin	0.00012	0
bin	0.000122	0
bin	0.000124	63
bin	0.000126	0
bin	0.000128	0
bin	0.00013	0
bin	0.000132	0
bin	0.000134	0
bin	0.000136	0
bin	0.000138	0
bin	0.00014	0
bin	0.000142	0
bin	0.000144	0
statistic RoutingTableVisualizationDynamicShowcase.host1.wlan[0].mac.dcf frameSequenceNumPackets:histogram
field count 1010
field mean 1.8732673267327
field stddev 0.33283807945838
field min 1
field max 2
field sum 1892
field sqrsum 3656
attr recordingmode histogram
attr source frameSequenceNumPackets(frameSequenceFinished)
attr title "frame sequences: number of packets"
bin	-inf	0
bin	0	0
bin	1	128
bin	2	882
bin	3	0
scalar RoutingTableVisualizationDynamicShowcase.host1.wlan[0].mac.dcf packetReceivedFromPeer:count 1824
attr interpolationmode none
attr recordingmode count
attr title "packets received, count"
scalar RoutingTableVisualizationDynamicShowcase.host1.wlan[0].mac.dcf packetReceivedFromPeer:sum(packetBytes) 124234
attr interpolationmode none
attr recordingmode sum(packetBytes)
attr title "packets received, sum(packetBytes)"
scalar RoutingTableVisualizationDynamicShowcase.host1.wlan[0].mac.dcf packetReceivedFromPeerUnicast:count 1649
attr interpolationmode none
attr recordingmode count
attr source ieee80211Unicast(packetReceivedFromPeer)
attr title "packets received: unicast, count"
scalar RoutingTableVisualizationDynamicShowcase.host1.wlan[0].mac.dcf packetReceivedFromPeerUnicast:sum(packetBytes) 109326
attr interpolationmode none
attr recordingmode sum(packetBytes)
attr source ieee80211Unicast(packetReceivedFromPeer)
attr title "packets received: unicast, sum(packetBytes)"
scalar RoutingTableVisualizationDynamicShowcase.host1.wlan[0].mac.dcf packetReceivedFromPeerMulticast:count 175
attr interpolationmode none
attr recordingmode count
attr source ieee80211Multicast(packetReceivedFromPeer)
attr title "packets received: multicast, count"
scalar RoutingTableVisualizationDynamicShowcase.host1.wlan[0].mac.dcf packetReceivedFromPeerMulticast:sum(packetBytes) 14908
attr interpolationmode none
attr recordingmode sum(packetBytes)
attr source ieee80211Multicast(packetReceivedFromPeer)
attr title "packets received: multicast, sum(packetBytes)"
scalar RoutingTableVisualizationDynamicShowcase.host1.wlan[0].mac.dcf packetReceivedFromPeerBroadcast:count 175
attr interpolationmode none
attr recordingmode count
attr source ieee80211Broadcast(packetReceivedFromPeer)
attr title "packets received: broadcast, count"
scalar RoutingTableVisualizationDynamicShowcase.host1.wlan[0].mac.dcf packetReceivedFromPeerBroadcast:sum(packetBytes) 14908
attr interpolationmode none
attr recordingmode sum(packetBytes)
attr source ieee80211Broadcast(packetReceivedFromPeer)
attr title "packets received: broadcast, sum(packetBytes)"
scalar RoutingTableVisualizationDynamicShowcase.host1.wlan[0].mac.dcf packetReceivedFromPeerWithRetry:count 0
attr interpolationmode none
attr recordingmode count
attr source ieee80211Retry(packetReceivedFromPeer)
attr title "packets received: with retry, count"
scalar RoutingTableVisualizationDynamicShowcase.host1.wlan[0].mac.dcf packetReceivedFromPeerWithRetry:sum(packetBytes) 0
attr interpolationmode none
attr recordingmode sum(packetBytes)
attr source ieee80211Retry(packetReceivedFromPeer)
attr title "packets received: with retry, sum(packetBytes)"
scalar RoutingTableVisualizationDynamicShowcase.host1.wlan[0].mac.dcf packetReceivedFromPeerWithoutRetry:count 1824
attr interpolationmode none
attr recordingmode count
attr source ieee80211NotRetry(packetReceivedFromPeer)
attr title "packets received: without retry, count"
scalar RoutingTableVisualizationDynamicShowcase.host1.wlan[0].mac.dcf packetReceivedFromPeerWithoutRetry:sum(packetBytes) 124234
attr interpolationmode none
attr recordingmode sum(packetBytes)
attr source ieee80211NotRetry(packetReceivedFromPeer)
attr title "packets received: without retry, sum(packetBytes)"
scalar RoutingTableVisualizationDynamicShowcase.host1.wlan[0].mac.dcf packetSentToPeer:count 1840
attr interpolationmode none
attr recordingmode count
attr title "packets sent, count"
scalar RoutingTableVisualizationDynamicShowcase.host1.wlan[0].mac.dcf packetSentToPeer:sum(packetBytes) 126804
attr interpolationmode none
attr recordingmode sum(packetBytes)
attr title "packets sent, sum(packetBytes)"
scalar RoutingTableVisualizationDynamicShowcase.host1.wlan[0].mac.dcf packetSentToPeerUnicast:count 1712
attr interpolationmode none
attr recordingmode count
attr source ieee80211Unicast(packetSentToPeer)
attr title "packets sent: unicast, count"
scalar RoutingTableVisualizationDynamicShowcase.host1.wlan[0].mac.dcf packetSentToPeerUnicast:sum(packetBytes) 115832
attr interpolationmode none
attr recordingmode sum(packetBytes)
attr source ieee80211Unicast(packetSentToPeer)
attr title "packets sent: unicast, sum(packetBytes)"
scalar RoutingTableVisualizationDynamicShowcase.host1.wlan[0].mac.dcf packetSentToPeerMulticast:count 128
attr interpolationmode none
attr recordingmode count
attr source ieee80211Multicast(packetSentToPeer)
attr title "packets sent: multicast, count"
scalar RoutingTableVisualizationDynamicShowcase.host1.wlan[0].mac.dcf packetSentToPeerMulticast:sum(packetBytes) 10972
attr interpolationmode none
attr recordingmode sum(packetBytes)
attr source ieee80211Multicast(packetSentToPeer)
attr title "packets sent: multicast, sum(packetBytes)"
scalar RoutingTableVisualizationDynamicShowcase.host1.wlan[0].mac.dcf packetSentToPeerBroadcast:count 128
attr interpolationmode none
attr recordingmode count
attr source ieee80211Broadcast(packetSentToPeer)
attr title "packets sent: broadcast , count"
scalar RoutingTableVisualizationDynamicShowcase.host1.wlan[0].mac.dcf packetSentToPeerBroadcast:sum(packetBytes) 10972
attr interpolationmode none
attr recordingmode sum(packetBytes)
attr source ieee80211Broadcast(packetSentToPeer)
attr title "packets sent: broadcast , sum(packetBytes)"
scalar RoutingTableVisualizationDynamicShowcase.host1.wlan[0].mac.dcf packetSentToPeerWithRetry:count 54
attr interpolationmode none
attr recordingmode count
attr source ieee80211Retry(packetSentToPeer)
attr title "packets sent: with retry, count"
scalar RoutingTableVisualizationDynamicShowcase.host1.wlan[0].mac.dcf packetSentToPeerWithRetry:sum(packetBytes) 6480
attr interpolationmode none
attr recordingmode sum(packetBytes)
attr source ieee80211Retry(packetSentToPeer)
attr title "packets sent: with retry, sum(packetBytes)"
scalar RoutingTableVisualizationDynamicShowcase.host1.wlan[0].mac.dcf packetSentToPeerWithoutRetry:count 1786
attr interpolationmode none
attr recordingmode count
attr source ieee80211NotRetry(packetSentToPeer)
attr title "packets sent: without retry, count"
scalar RoutingTableVisualizationDynamicShowcase.host1.wlan[0].mac.dcf packetSentToPeerWithoutRetry:sum(packetBytes) 120324
attr interpolationmode none
attr recordingmode sum(packetBytes)
attr source ieee80211NotRetry(packetSentToPeer)
attr title "packets sent: without retry, sum(packetBytes)"
scalar RoutingTableVisualizationDynamicShowcase.host1.wlan[0].mac.dcf packetDrop:count 1074
attr interpolationmode none
attr recordingmode count
attr source packetDropped
attr title "packet drops, count"
scalar RoutingTableVisualizationDynamicShowcase.host1.wlan[0].mac.dcf packetDrop:sum(packetBytes) 75876
attr interpolationmode none
attr recordingmode sum(packetBytes)
attr source packetDropped
attr title "packet drops, sum(packetBytes)"
scalar RoutingTableVisualizationDynamicShowcase.host1.wlan[0].mac.dcf packetDropNotAddressedToUs:count 1065
attr interpolationmode none
attr recordingmode count
attr source packetDropReasonIsNotAddressedToUs(packetDropped)
attr title "packet drops: not addressed to us, count"
scalar RoutingTableVisualizationDynamicShowcase.host1.wlan[0].mac.dcf packetDropNotAddressedToUs:sum(packetBytes) 74796
attr interpolationmode none
attr recordingmode sum(packetBytes)
attr source packetDropReasonIsNotAddressedToUs(packetDropped)
attr title "packet drops: not addressed to us, sum(packetBytes)"
scalar RoutingTableVisualizationDynamicShowcase.host1.wlan[0].mac.dcf packetDropQueueOverflow:count 0
attr interpolationmode none
attr recordingmode count
attr source packetDropReasonIsQueueOverflow(packetDropped)
attr title "packet drops: queue overflow, count"
scalar RoutingTableVisualizationDynamicShowcase.host1.wlan[0].mac.dcf packetDropQueueOverflow:sum(packetBytes) 0
attr interpolationmode none
attr recordingmode sum(packetBytes)
attr source packetDropReasonIsQueueOverflow(packetDropped)
attr title "packet drops: queue overflow, sum(packetBytes)"
scalar RoutingTableVisualizationDynamicShowcase.host1.wlan[0].mac.dcf packetDropRetryLimitReached:count 9
attr interpolationmode none
attr recordingmode count
attr source packetDropReasonIsRetryLimitReached(packetDropped)
attr title "packet drops: retry limit reached, count"
scalar RoutingTableVisualizationDynamicShowcase.host1.wlan[0].mac.dcf packetDropRetryLimitReached:sum(packetBytes) 1080
attr interpolationmode none
attr recordingmode sum(packetBytes)
attr source packetDropReasonIsRetryLimitReached(packetDropped)
attr title "packet drops: retry limit reached, sum(packetBytes)"
scalar RoutingTableVisualizationDynamicShowcase.host1.wlan[0].mac.dcf linkBroken:count 9
attr interpolationmode none
attr recordingmode count
attr title "link breaks, count"
scalar RoutingTableVisualizationDynamicShowcase.host1.wlan[0].mac packetReceivedFromLower:count 2890
attr interpolationmode none
attr recordingmode count
attr title "packets received from lower layer, count"
scalar RoutingTableVisualizationDynamicShowcase.host1.wlan[0].mac packetReceivedFromLower:sum(packetBytes) 199150
attr interpolationmode none
attr recordingmode sum(packetBytes)
attr title "packets received from lower layer, sum(packetBytes)"
scalar RoutingTableVisualizationDynamicShowcase.host1.wlan[0].mac packetSentToLower:count 1840
attr interpolationmode none
attr recordingmode count
attr title "packets sent to lower layer, count"
scalar RoutingTableVisualizationDynamicShowcase.host1.wlan[0].mac packetSentToLower:sum(packetBytes) 126804
attr interpolationmode none
attr recordingmode sum(packetBytes)
attr title "packets sent to lower layer, sum(packetBytes)"
scalar RoutingTableVisualizationDynamicShowcase.host1.wlan[0].mac packetReceivedFromUpper:count 956
attr interpolationmode none
attr recordingmode count
attr title "packets received from upper layer, count"
scalar RoutingTableVisualizationDynamicShowcase.host1.wlan[0].mac packetReceivedFromUpper:sum(packetBytes) 81936
attr interpolationmode none
attr recordingmode sum(packetBytes)
attr title "packets received from upper layer, sum(packetBytes)"
scalar RoutingTableVisualizationDynamicShowcase.host1.wlan[0].mac packetSentToUpper:count 1005
attr interpolationmode none
attr recordingmode count
attr title "packets sent to upper layer, count"
scalar RoutingTableVisualizationDynamicShowcase.host1.wlan[0].mac packetSentToUpper:sum(packetBytes) 84628
attr interpolationmode none
attr recordingmode sum(packetBytes)
attr title "packets sent to upper layer, sum(packetBytes)"
scalar RoutingTableVisualizationDynamicShowcase.host1.wlan[0].mac packetDrop:count 1075
attr interpolationmode none
attr recordingmode count
attr source packetDropped
attr title "packet drops, count"
scalar RoutingTableVisualizationDynamicShowcase.host1.wlan[0].mac packetDrop:sum(packetBytes) 75996
attr interpolationmode none
attr recordingmode sum(packetBytes)
attr source packetDropped
attr title "packet drops, sum(packetBytes)"
scalar RoutingTableVisualizationDynamicShowcase.host1.wlan[0].mac packetDropIncorrectlyReceived:count 1
attr interpolationmode none
attr recordingmode count
attr source packetDropReasonIsIncorrectlyReceived(packetDropped)
attr title "packet drops: incorrectly received, count"
scalar RoutingTableVisualizationDynamicShowcase.host1.wlan[0].mac packetDropIncorrectlyReceived:sum(packetBytes) 120
attr interpolationmode none
attr recordingmode sum(packetBytes)
attr source packetDropReasonIsIncorrectlyReceived(packetDropped)
attr title "packet drops: incorrectly received, sum(packetBytes)"
scalar RoutingTableVisualizationDynamicShowcase.host1.wlan[0].mac packetDropNotAddressedToUs:count 1065
attr interpolationmode none
attr recordingmode count
attr source packetDropReasonIsNotAddressedToUs(packetDropped)
attr title "packet drops: not addressed to us, count"
scalar RoutingTableVisualizationDynamicShowcase.host1.wlan[0].mac packetDropNotAddressedToUs:sum(packetBytes) 74796
attr interpolationmode none
attr recordingmode sum(packetBytes)
attr source packetDropReasonIsNotAddressedToUs(packetDropped)
attr title "packet drops: not addressed to us, sum(packetBytes)"
scalar RoutingTableVisualizationDynamicShowcase.host1.wlan[0].mac packetDropQueueOverflow:count 0
attr interpolationmode none
attr recordingmode count
attr source packetDropReasonIsQueueOverflow(packetDropped)
attr title "packet drops: queue overflow, count"
scalar RoutingTableVisualizationDynamicShowcase.host1.wlan[0].mac packetDropQueueOverflow:sum(packetBytes) 0
attr interpolationmode none
attr recordingmode sum(packetBytes)
attr source packetDropReasonIsQueueOverflow(packetDropped)
attr title "packet drops: queue overflow, sum(packetBytes)"
scalar RoutingTableVisualizationDynamicShowcase.host1.wlan[0].mac packetDropRetryLimitReached:count 9
attr interpolationmode none
attr recordingmode count
attr source packetDropReasonIsRetryLimitReached(packetDropped)
attr title "packet drops: retry limit reached, count"
scalar RoutingTableVisualizationDynamicShowcase.host1.wlan[0].mac packetDropRetryLimitReached:sum(packetBytes) 1080
attr interpolationmode none
attr recordingmode sum(packetBytes)
attr source packetDropReasonIsRetryLimitReached(packetDropped)
attr title "packet drops: retry limit reached, sum(packetBytes)"
scalar RoutingTableVisualizationDynamicShowcase.host1.wlan[0].mac packetDropDuplicateDetected:count 0
attr interpolationmode none
attr recordingmode count
attr source packetDropReasonIsDuplicateDetected(packetDropped)
attr title "packet drops: duplicate detected, count"
scalar RoutingTableVisualizationDynamicShowcase.host1.wlan[0].mac packetDropDuplicateDetected:sum(packetBytes) 0
attr interpolationmode none
attr recordingmode sum(packetBytes)
attr source packetDropReasonIsDuplicateDetected(packetDropped)
attr title "packet drops: duplicate detected, sum(packetBytes)"
scalar RoutingTableVisualizationDynamicShowcase.host1.wlan[0].mac packetDropOther:count 0
attr interpolationmode none
attr recordingmode count
attr source packetDropReasonIsOther(packetDropped)
attr title "packet drops: other, count"
scalar RoutingTableVisualizationDynamicShowcase.host1.wlan[0].mac packetDropOther:sum(packetBytes) 0
attr interpolationmode none
attr recordingmode sum(packetBytes)
attr source packetDropReasonIsOther(packetDropped)
attr title "packet drops: other, sum(packetBytes)"
scalar RoutingTableVisualizationDynamicShowcase.host1.wlan[0].mac linkBroken:count 9
attr interpolationmode none
attr recordingmode count
attr title "link breaks, count"
statistic RoutingTableVisualizationDynamicShowcase.host1.wlan[0].radio radioChannel:histogram
field count 1
field mean 0
field stddev nan
field min 0
field max 0
field sum 0
field sqrsum 0
attr interpolationmode sample-hold
attr recordingmode histogram
attr source radioChannelChanged
attr title "Radio channel"
bin	-inf	0
bin	-0.5	0
bin	-0.48	0
bin	-0.46	0
bin	-0.44	0
bin	-0.42	0
bin	-0.4	0
bin	-0.38	0
bin	-0.36	0
bin	-0.34	0
bin	-0.32	0
bin	-0.3	0
bin	-0.28	0
bin	-0.26	0
bin	-0.24	0
bin	-0.22	0
bin	-0.2	0
bin	-0.18	0
bin	-0.16	0
bin	-0.14	0
bin	-0.12	0
bin	-0.1	0
bin	-0.08	0
bin	-0.06	0
bin	-0.04	0
bin	-0.02	0
bin	0	1
bin	0.02	0
bin	0.04	0
bin	0.06	0
bin	0.08	0
bin	0.1	0
bin	0.12	0
bin	0.14	0
bin	0.16	0
bin	0.18	0
bin	0.2	0
bin	0.22	0
bin	0.24	0
bin	0.26	0
bin	0.28	0
bin	0.3	0
bin	0.32	0
bin	0.34	0
bin	0.36	0
bin	0.38	0
bin	0.4	0
bin	0.42	0
bin	0.44	0
bin	0.46	0
bin	0.48	0
bin	0.5	0
scalar RoutingTableVisualizationDynamicShowcase.host1.wlan[0].radio radioMode:count 3683
attr interpolationmode sample-hold
attr recordingmode count
attr source radioModeChanged
attr title "Radio mode, count"
scalar RoutingTableVisualizationDynamicShowcase.host1.wlan[0].radio receptionState:count 9461
attr interpolationmode sample-hold
attr recordingmode count
attr source receptionStateChanged
attr title "Radio reception state, count"
scalar RoutingTableVisualizationDynamicShowcase.host1.wlan[0].radio transmissionState:count 7360
attr interpolationmode sample-hold
attr recordingmode count
attr source transmissionStateChanged
attr title "Radio transmission state, count"
statistic RoutingTableVisualizationDynamicShowcase.host1.wlan[0].radio minSnir:histogram
field count 2890
field mean 1058.8287859537
field stddev 239.41719918526
field min 10.442023695575
field max 1168.8719438504
field sum 3060015.1914062
field sqrsum 3405631369.8392
attr recordingmode histogram
attr source minimumSnir(packetSentToUpper)
attr title "Min SNIR"
bin	-inf	0
bin	0	1
bin	20	0
bin	40	0
bin	60	0
bin	80	0
bin	100	0
bin	120	0
bin	140	0
bin	160	0
bin	180	0
bin	200	0
bin	220	0
bin	240	0
bin	260	0
bin	280	0
bin	300	13
bin	320	47
bin	340	39
bin	360	44
bin	380	64
bin	400	105
[...]
attr interpolationmode none
attr recordingmode count
attr source packetDropReasonIsRetryLimitReached(packetDropped)
attr title "packet drops: retry limit reached, count"
scalar RoutingTableVisualizationDynamicShowcase.destinationHost.wlan[0].mac.dcf packetDropRetryLimitReached:sum(packetBytes) 0
attr interpolationmode none
attr recordingmode sum(packetBytes)
attr source packetDropReasonIsRetryLimitReached(packetDropped)
attr title "packet drops: retry limit reached, sum(packetBytes)"
scalar RoutingTableVisualizationDynamicShowcase.destinationHost.wlan[0].mac.dcf linkBroken:count 0
attr interpolationmode none
attr recordingmode count
attr title "link breaks, count"
scalar RoutingTableVisualizationDynamicShowcase.destinationHost.wlan[0].mac packetReceivedFromLower:count 2407
attr interpolationmode none
attr recordingmode count
attr title "packets received from lower layer, count"
scalar RoutingTableVisualizationDynamicShowcase.destinationHost.wlan[0].mac packetReceivedFromLower:sum(packetBytes) 159790
attr interpolationmode none
attr recordingmode sum(packetBytes)
attr title "packets received from lower layer, sum(packetBytes)"
scalar RoutingTableVisualizationDynamicShowcase.destinationHost.wlan[0].mac packetSentToLower:count 998
attr interpolationmode none
attr recordingmode count
attr title "packets sent to lower layer, count"
scalar RoutingTableVisualizationDynamicShowcase.destinationHost.wlan[0].mac packetSentToLower:sum(packetBytes) 66950
attr interpolationmode none
attr recordingmode sum(packetBytes)
attr title "packets sent to lower layer, sum(packetBytes)"
scalar RoutingTableVisualizationDynamicShowcase.destinationHost.wlan[0].mac packetReceivedFromUpper:count 529
attr interpolationmode none
attr recordingmode count
attr title "packets received from upper layer, count"
scalar RoutingTableVisualizationDynamicShowcase.destinationHost.wlan[0].mac packetReceivedFromUpper:sum(packetBytes) 45572
attr interpolationmode none
attr recordingmode sum(packetBytes)
attr title "packets received from upper layer, sum(packetBytes)"
scalar RoutingTableVisualizationDynamicShowcase.destinationHost.wlan[0].mac packetSentToUpper:count 553
attr interpolationmode none
attr recordingmode count
attr title "packets sent to upper layer, count"
scalar RoutingTableVisualizationDynamicShowcase.destinationHost.wlan[0].mac packetSentToUpper:sum(packetBytes) 46956
attr interpolationmode none
attr recordingmode sum(packetBytes)
attr title "packets sent to upper layer, sum(packetBytes)"
scalar RoutingTableVisualizationDynamicShowcase.destinationHost.wlan[0].mac packetDrop:count 1337
attr interpolationmode none
attr recordingmode count
attr source packetDropped
attr title "packet drops, count"
scalar RoutingTableVisualizationDynamicShowcase.destinationHost.wlan[0].mac packetDrop:sum(packetBytes) 90112
attr interpolationmode none
attr recordingmode sum(packetBytes)
attr source packetDropped
attr title "packet drops, sum(packetBytes)"
scalar RoutingTableVisualizationDynamicShowcase.destinationHost.wlan[0].mac packetDropIncorrectlyReceived:count 2
attr interpolationmode none
attr recordingmode count
attr source packetDropReasonIsIncorrectlyReceived(packetDropped)
attr title "packet drops: incorrectly received, count"
scalar RoutingTableVisualizationDynamicShowcase.destinationHost.wlan[0].mac packetDropIncorrectlyReceived:sum(packetBytes) 240
attr interpolationmode none
attr recordingmode sum(packetBytes)
attr source packetDropReasonIsIncorrectlyReceived(packetDropped)
attr title "packet drops: incorrectly received, sum(packetBytes)"
scalar RoutingTableVisualizationDynamicShowcase.destinationHost.wlan[0].mac packetDropNotAddressedToUs:count 1335
attr interpolationmode none
attr recordingmode count
attr source packetDropReasonIsNotAddressedToUs(packetDropped)
attr title "packet drops: not addressed to us, count"
scalar RoutingTableVisualizationDynamicShowcase.destinationHost.wlan[0].mac packetDropNotAddressedToUs:sum(packetBytes) 89872
attr interpolationmode none
attr recordingmode sum(packetBytes)
attr source packetDropReasonIsNotAddressedToUs(packetDropped)
attr title "packet drops: not addressed to us, sum(packetBytes)"
scalar RoutingTableVisualizationDynamicShowcase.destinationHost.wlan[0].mac packetDropQueueOverflow:count 0
attr interpolationmode none
attr recordingmode count
attr source packetDropReasonIsQueueOverflow(packetDropped)
attr title "packet drops: queue overflow, count"
scalar RoutingTableVisualizationDynamicShowcase.destinationHost.wlan[0].mac packetDropQueueOverflow:sum(packetBytes) 0
attr interpolationmode none
attr recordingmode sum(packetBytes)
attr source packetDropReasonIsQueueOverflow(packetDropped)
attr title "packet drops: queue overflow, sum(packetBytes)"
scalar RoutingTableVisualizationDynamicShowcase.destinationHost.wlan[0].mac packetDropRetryLimitReached:count 0
attr interpolationmode none
attr recordingmode count
attr source packetDropReasonIsRetryLimitReached(packetDropped)
attr title "packet drops: retry limit reached, count"
scalar RoutingTableVisualizationDynamicShowcase.destinationHost.wlan[0].mac packetDropRetryLimitReached:sum(packetBytes) 0
attr interpolationmode none
attr recordingmode sum(packetBytes)
attr source packetDropReasonIsRetryLimitReached(packetDropped)
attr title "packet drops: retry limit reached, sum(packetBytes)"
scalar RoutingTableVisualizationDynamicShowcase.destinationHost.wlan[0].mac packetDropDuplicateDetected:count 0
attr interpolationmode none
attr recordingmode count
attr source packetDropReasonIsDuplicateDetected(packetDropped)
attr title "packet drops: duplicate detected, count"
scalar RoutingTableVisualizationDynamicShowcase.destinationHost.wlan[0].mac packetDropDuplicateDetected:sum(packetBytes) 0
attr interpolationmode none
attr recordingmode sum(packetBytes)
attr source packetDropReasonIsDuplicateDetected(packetDropped)
attr title "packet drops: duplicate detected, sum(packetBytes)"
scalar RoutingTableVisualizationDynamicShowcase.destinationHost.wlan[0].mac packetDropOther:count 0
attr interpolationmode none
attr recordingmode count
attr source packetDropReasonIsOther(packetDropped)
attr title "packet drops: other, count"
scalar RoutingTableVisualizationDynamicShowcase.destinationHost.wlan[0].mac packetDropOther:sum(packetBytes) 0
attr interpolationmode none
attr recordingmode sum(packetBytes)
attr source packetDropReasonIsOther(packetDropped)
attr title "packet drops: other, sum(packetBytes)"
scalar RoutingTableVisualizationDynamicShowcase.destinationHost.wlan[0].mac linkBroken:count 0
attr interpolationmode none
attr recordingmode count
attr title "link breaks, count"
statistic RoutingTableVisualizationDynamicShowcase.destinationHost.wlan[0].radio radioChannel:histogram
field count 1
field mean 0
field stddev nan
field min 0
field max 0
field sum 0
field sqrsum 0
attr interpolationmode sample-hold
attr recordingmode histogram
attr source radioChannelChanged
attr title "Radio channel"
bin	-inf	0
bin	-0.5	0
bin	-0.48	0
bin	-0.46	0
bin	-0.44	0
bin	-0.42	0
bin	-0.4	0
bin	-0.38	0
bin	-0.36	0
bin	-0.34	0
bin	-0.32	0
bin	-0.3	0
bin	-0.28	0
bin	-0.26	0
bin	-0.24	0
bin	-0.22	0
bin	-0.2	0
bin	-0.18	0
bin	-0.16	0
bin	-0.14	0
bin	-0.12	0
bin	-0.1	0
bin	-0.08	0
bin	-0.06	0
bin	-0.04	0
bin	-0.02	0
bin	0	1
bin	0.02	0
bin	0.04	0
bin	0.06	0
bin	0.08	0
bin	0.1	0
bin	0.12	0
bin	0.14	0
bin	0.16	0
bin	0.18	0
bin	0.2	0
bin	0.22	0
bin	0.24	0
bin	0.26	0
bin	0.28	0
bin	0.3	0
bin	0.32	0
bin	0.34	0
bin	0.36	0
bin	0.38	0
bin	0.4	0
bin	0.42	0
bin	0.44	0
bin	0.46	0
bin	0.48	0
bin	0.5	0
scalar RoutingTableVisualizationDynamicShowcase.destinationHost.wlan[0].radio radioMode:count 1999
attr interpolationmode sample-hold
attr recordingmode count
attr source radioModeChanged
attr title "Radio mode, count"
scalar RoutingTableVisualizationDynamicShowcase.destinationHost.wlan[0].radio receptionState:count 6863
attr interpolationmode sample-hold
attr recordingmode count
attr source receptionStateChanged
attr title "Radio reception state, count"
scalar RoutingTableVisualizationDynamicShowcase.destinationHost.wlan[0].radio transmissionState:count 3992
attr interpolationmode sample-hold
attr recordingmode count
attr source transmissionStateChanged
attr title "Radio transmission state, count"
statistic RoutingTableVisualizationDynamicShowcase.destinationHost.wlan[0].radio minSnir:histogram
field count 2407
field mean 384.01933271659
field stddev 31.740618072562
field min 3.0333543164427
field max 419.82901115285
field sum 924334.53384883
field sqrsum 357386296.10205
attr recordingmode histogram
attr source minimumSnir(packetSentToUpper)
attr title "Min SNIR"
bin	-inf	0
bin	-4	1
bin	4	1
bin	12	0
bin	20	0
bin	28	0
bin	36	0
bin	44	0
bin	52	0
bin	60	0
bin	68	0
bin	76	0
bin	84	0
bin	92	0
bin	100	0
bin	108	0
bin	116	0
bin	124	0
bin	132	0
bin	140	0
bin	148	0
bin	156	0
bin	164	0
bin	172	0
bin	180	0
bin	188	0
bin	196	0
bin	204	0
bin	212	0
bin	220	0
bin	228	0
bin	236	0
bin	244	0
bin	252	0
bin	260	0
bin	268	0
bin	276	0
bin	284	0
bin	292	0
bin	300	0
bin	308	0
bin	316	113
bin	324	48
bin	332	182
bin	340	16
bin	348	214
bin	356	16
bin	364	214
bin	372	96
bin	380	182
bin	388	166
bin	396	230
bin	404	385
bin	412	543
bin	420	0
bin	428	0
bin	436	0
bin	444	0
statistic RoutingTableVisualizationDynamicShowcase.destinationHost.wlan[0].radio packetErrorRate:histogram
field count 2407
field mean 0.00083090984628168
field stddev 0.028819515908814
field min 0
field max 1
field sum 2
field sqrsum 2
attr recordingmode histogram
attr source packetErrorRate(packetSentToUpper)
attr title "Packet error rate"
bin	-inf	0
bin	-0.5	0
bin	-0.48	0
bin	-0.46	0
bin	-0.44	0
bin	-0.42	0
bin	-0.4	0
bin	-0.38	0
bin	-0.36	0
bin	-0.34	0
bin	-0.32	0
bin	-0.3	0
bin	-0.28	0
bin	-0.26	0
bin	-0.24	0
bin	-0.22	0
bin	-0.2	0
bin	-0.18	0
bin	-0.16	0
bin	-0.14	0
bin	-0.12	0
bin	-0.1	0
bin	-0.08	0
bin	-0.06	0
bin	-0.04	0
bin	-0.02	0
bin	0	2405
bin	0.02	0
bin	0.04	0
bin	0.06	0
bin	0.08	0
bin	0.1	0
bin	0.12	0
bin	0.14	0
bin	0.16	0
bin	0.18	0
bin	0.2	0
bin	0.22	0
bin	0.24	0
bin	0.26	0
bin	0.28	0
bin	0.3	0
bin	0.32	0
bin	0.34	0
bin	0.36	0
bin	0.38	0
bin	0.4	0
bin	0.42	0
bin	0.44	0
bin	0.46	0
bin	0.48	0
bin	0.5	0
bin	0.52	0
bin	0.54	0
bin	0.56	0
bin	0.58	0
bin	0.6	0
bin	0.62	0
bin	0.64	0
bin	0.66	0
bin	0.68	0
bin	0.7	0
bin	0.72	0
bin	0.74	0
bin	0.76	0
bin	0.78	0
bin	0.8	0
bin	0.82	0
bin	0.84	0
bin	0.86	0
bin	0.88	0
bin	0.9	0
bin	0.92	0
bin	0.94	0
bin	0.96	0
bin	0.98	0
bin	1	2
bin	1.02	0
statistic RoutingTableVisualizationDynamicShowcase.destinationHost.wlan[0].radio bitErrorRate:histogram
field count 0
field mean -nan
field stddev nan
field min nan
field max nan
field sum 0
field sqrsum 0
attr recordingmode histogram
attr source bitErrorRate(packetSentToUpper)
attr title "Bit error rate"
bin	-inf	0
bin	0	0
bin	1	0
statistic RoutingTableVisualizationDynamicShowcase.destinationHost.wlan[0].radio symbolErrorRate:histogram
field count 0
field mean -nan
field stddev nan
field min nan
field max nan
field sum 0
field sqrsum 0
attr recordingmode histogram
attr source symbolErrorRate(packetSentToUpper)
attr title "Symbol error rate"
bin	-inf	0
bin	0	0
bin	1	0
scalar RoutingTableVisualizationDynamicShowcase.destinationHost.wlan[0] packetDropInterfaceDown:count 0
attr interpolationmode none
attr recordingmode count
attr source packetDropReasonIsInterfaceDown(packetDropped)
attr title "packet drops: interface down, count"
scalar RoutingTableVisualizationDynamicShowcase.destinationHost.wlan[0] packetDropInterfaceDown:sum(packetBytes) 0
attr interpolationmode none
attr recordingmode sum(packetBytes)
attr source packetDropReasonIsInterfaceDown(packetDropped)
attr title "packet drops: interface down, sum(packetBytes)"
scalar RoutingTableVisualizationDynamicShowcase.destinationHost.wlan[0] packetDropNoCarrier:count 0
attr interpolationmode none
attr recordingmode count
attr source packetDropReasonIsNoCarrier(packetDropped)
attr title "packet drops: no carrier, count"
scalar RoutingTableVisualizationDynamicShowcase.destinationHost.wlan[0] packetDropNoCarrier:sum(packetBytes) 0
attr interpolationmode none
attr recordingmode sum(packetBytes)
attr source packetDropReasonIsNoCarrier(packetDropped)
attr title "packet drops: no carrier, sum(packetBytes)"
scalar RoutingTableVisualizationDynamicShowcase.destinationHost.ipv4.ip packetDropAddressResolutionFailed:count 0
attr interpolationmode none
attr recordingmode count
attr source packetDropReasonIsAddressResolutionFailed(packetDropped)
attr title "packet drop: address resolution failed, count"
scalar RoutingTableVisualizationDynamicShowcase.destinationHost.ipv4.ip packetDropAddressResolutionFailed:sum(packetBytes) 0
attr interpolationmode none
attr recordingmode sum(packetBytes)
attr source packetDropReasonIsAddressResolutionFailed(packetDropped)
attr title "packet drop: address resolution failed, sum(packetBytes)"
scalar RoutingTableVisualizationDynamicShowcase.destinationHost.ipv4.ip packetDropHopLimitReached:count 0
attr interpolationmode none
attr recordingmode count
attr source packetDropReasonIsHopLimitReached(packetDropped)
attr title "packet drop: hop limit reached, count"
scalar RoutingTableVisualizationDynamicShowcase.destinationHost.ipv4.ip packetDropHopLimitReached:sum(packetBytes) 0
attr interpolationmode none
attr recordingmode sum(packetBytes)
attr source packetDropReasonIsHopLimitReached(packetDropped)
attr title "packet drop: hop limit reached, sum(packetBytes)"
scalar RoutingTableVisualizationDynamicShowcase.destinationHost.ipv4.ip packetDropForwardingDisabled:count 0
attr interpolationmode none
attr recordingmode count
attr source packetDropReasonIsForwardingDisabled(packetDropped)
attr title "packet drop: forwarding disabled, count"
scalar RoutingTableVisualizationDynamicShowcase.destinationHost.ipv4.ip packetDropForwardingDisabled:sum(packetBytes) 0
attr interpolationmode none
attr recordingmode sum(packetBytes)
attr source packetDropReasonIsForwardingDisabled(packetDropped)
attr title "packet drop: forwarding disabled, sum(packetBytes)"
scalar RoutingTableVisualizationDynamicShowcase.destinationHost.ipv4.ip packetDropNoInterfaceFound:count 0
attr interpolationmode none
attr recordingmode count
attr source packetDropReasonIsNoInterfaceFound(packetDropped)
attr title "packet drop: no interface found, count"
scalar RoutingTableVisualizationDynamicShowcase.destinationHost.ipv4.ip packetDropNoInterfaceFound:sum(packetBytes) 0
attr interpolationmode none
attr recordingmode sum(packetBytes)
attr source packetDropReasonIsNoInterfaceFound(packetDropped)
attr title "packet drop: no interface found, sum(packetBytes)"
scalar RoutingTableVisualizationDynamicShowcase.destinationHost.ipv4.ip packetDropNoRouteFound:count 0
attr interpolationmode none
attr recordingmode count
attr source packetDropReasonIsNoRouteFound(packetDropped)
attr title "packet drop: no route found, count"
scalar RoutingTableVisualizationDynamicShowcase.destinationHost.ipv4.ip packetDropNoRouteFound:sum(packetBytes) 0
attr interpolationmode none
attr recordingmode sum(packetBytes)
attr source packetDropReasonIsNoRouteFound(packetDropped)
attr title "packet drop: no route found, sum(packetBytes)"
scalar RoutingTableVisualizationDynamicShowcase.destinationHost.ipv4.ip packetDropUndefined:count 0
attr interpolationmode none
attr recordingmode count
attr source packetDropReasonIsUndefined(packetDropped)
attr title "packet drop: undefined, count"
scalar RoutingTableVisualizationDynamicShowcase.destinationHost.ipv4.ip packetDropUndefined:sum(packetBytes) 0
attr interpolationmode none
attr recordingmode sum(packetBytes)
attr source packetDropReasonIsUndefined(packetDropped)
attr title "packet drop: undefined, sum(packetBytes)"
scalar RoutingTableVisualizationDynamicShowcase.destinationHost.ipv4.arp arpResolutionFailed:count 0
attr recordingmode count
attr title "ARP failed resolutions, count"
scalar RoutingTableVisualizationDynamicShowcase.destinationHost.ipv4.arp arpResolutionCompleted:count 34
attr recordingmode count
attr title "ARP completed resolutions, count"
scalar RoutingTableVisualizationDynamicShowcase.destinationHost.ipv4.arp arpResolutionInitiated:count 11
attr recordingmode count
attr title "ARP initiated resolutions, count"
scalar RoutingTableVisualizationDynamicShowcase.destinationHost.ipv4.arp arpReplySent:count 15
attr recordingmode count
attr source arpReplySent
attr title "ARP replies sent, count"
scalar RoutingTableVisualizationDynamicShowcase.destinationHost.ipv4.arp arpReplySent:sum(packetBytes) 420
attr recordingmode sum(packetBytes)
attr source arpReplySent
attr title "ARP replies sent, sum(packetBytes)"
scalar RoutingTableVisualizationDynamicShowcase.destinationHost.ipv4.arp arpRequestSent:count 12
attr recordingmode count
attr source arpRequestSent
attr title "ARP request sent, count"
scalar RoutingTableVisualizationDynamicShowcase.destinationHost.ipv4.arp arpRequestSent:sum(packetBytes) 336
attr recordingmode sum(packetBytes)
attr source arpRequestSent
attr title "ARP request sent, sum(packetBytes)"
scalar RoutingTableVisualizationDynamicShowcase.destinationHost.udp packetReceived:count 61
attr interpolationmode none
attr recordingmode count
attr source packetReceived
attr title "packets received, count"
scalar RoutingTableVisualizationDynamicShowcase.destinationHost.udp packetReceived:sum(packetBytes) 1888
attr interpolationmode none
attr recordingmode sum(packetBytes)
attr source packetReceived
attr title "packets received, sum(packetBytes)"
scalar RoutingTableVisualizationDynamicShowcase.destinationHost.udp packetSent:count 44
attr interpolationmode none
attr recordingmode count
attr source packetSent
attr title "packets sent, count"
scalar RoutingTableVisualizationDynamicShowcase.destinationHost.udp packetSent:sum(packetBytes) 1232
attr interpolationmode none
attr recordingmode sum(packetBytes)
attr source packetSent
attr title "packets sent, sum(packetBytes)"
scalar RoutingTableVisualizationDynamicShowcase.destinationHost.udp passedUpPk:count 61
attr interpolationmode none
attr recordingmode count
attr source packetSentToUpper
attr title "packets passed up, count"
scalar RoutingTableVisualizationDynamicShowcase.destinationHost.udp droppedPkWrongPort:count 0
attr interpolationmode none
attr recordingmode count
attr source packetDropReasonIsNoPortFound(packetDropped)
attr title "packets dropped (wrong port), count"
scalar RoutingTableVisualizationDynamicShowcase.destinationHost.udp droppedPkBadChecksum:count 0
attr interpolationmode none
attr recordingmode count
attr source packetDropReasonIsIncorrectlyReceived(packetDropped)
attr title "packets dropped (checksum error), count"
scalar RoutingTableVisualizationDynamicShowcase.radioMedium.propagation "Arrival computation count" 45660
scalar RoutingTableVisualizationDynamicShowcase.radioMedium "transmission count" 7610
scalar RoutingTableVisualizationDynamicShowcase.radioMedium "signal send count" 45660
scalar RoutingTableVisualizationDynamicShowcase.radioMedium "reception computation count" 45660
scalar RoutingTableVisualizationDynamicShowcase.radioMedium "interference computation count" 144585
scalar RoutingTableVisualizationDynamicShowcase.radioMedium "reception decision computation count" 15739
scalar RoutingTableVisualizationDynamicShowcase.radioMedium "listening decision computation count" 83189
scalar RoutingTableVisualizationDynamicShowcase.radioMedium "reception cache hit" 80.137981434276
attr unit %
scalar RoutingTableVisualizationDynamicShowcase.radioMedium "interference cache hit" 66.666666666667
attr unit %
scalar RoutingTableVisualizationDynamicShowcase.radioMedium "noise cache hit" 0
attr unit %
scalar RoutingTableVisualizationDynamicShowcase.radioMedium "snir cache hit" 50
attr unit %
scalar RoutingTableVisualizationDynamicShowcase.radioMedium "reception decision cache hit" 50
attr unit %
scalar RoutingTableVisualizationDynamicShowcase.radioMedium "reception result cache hit" 0
attr unit %

