version 3
run mininet-B-0-20250108-11:29:04-11911
attr configname mininet-B
attr datetime 20250108-11:29:04
attr datetimef 20250108-112904
attr experiment mininet-B
attr inifile omnetpp.ini
attr iterationvars ""
attr iterationvarsd ""
attr iterationvarsf ""
attr measurement ""
attr network OSPF_mininet
attr processid 11911
attr repetition 0
attr replication #0
attr resultdir results
attr runnumber 0
attr seedset 0
config **.param-recording false
config image-path /home/levy/workspace/inet/images
config output-scalar-file results/omnetpp.ini-mininet-B-#0.sca
config output-vector-file results/omnetpp.ini-mininet-B-#0.vec
config sim-time-limit 1000s
config network OSPF_mininet
config **.ospf.ospfConfig "xmldoc(\"ASConfigMininet.xml\")"
config *.scenarioManager.script "xml(\"<empty/>\")"
config *.S*H[*].numApps 2
config *.S1H[0].app[1].destAddresses "\"S2H[0]\""
config *.S2H[0].app[1].destAddresses "\"S1H[0]\""
config *.S1H[1].app[1].destAddresses "\"S2H[1]\""
config *.S2H[1].app[1].destAddresses "\"S1H[1]\""
config *.BBR[0].ipv4.routingTable.routerId "\"10.0.0.10\""
config *.BBR[1].ipv4.routingTable.routerId "\"10.0.0.11\""
config *.BBRtoS1.ipv4.routingTable.routerId "\"10.0.1.101\""
config *.BBRtoS2.ipv4.routingTable.routerId "\"10.0.1.202\""
config *.S1R[0].ipv4.routingTable.routerId "\"10.0.0.110\""
config *.S2R[0].ipv4.routingTable.routerId "\"10.0.0.220\""
config *.S1R[1].ipv4.routingTable.routerId "\"10.0.1.111\""
config *.S2R[1].ipv4.routingTable.routerId "\"10.0.1.221\""
config **.mtu 60000B
config description "OSPF area tests"
config sim-time-limit 1000s
config **.app[0].typename UdpEchoApp
config **.app[0].localPort 1234
config **.app[1..].typename UdpBasicApp
config **.app[1..].destPort 1234
config **.app[1..].messageLength "32 bytes"
config **.app[1..].sendInterval 0.1s
config **.app[1..].startTime 10s
config **.arp.cacheTimeout 1s

scalar OSPF_mininet.BBR[0].ethernet pauseSent:count 0
scalar OSPF_mininet.BBR[0].ethernet pauseSent:sum 0
scalar OSPF_mininet.BBR[0].ethernet decapPk:count 78439
scalar OSPF_mininet.BBR[0].ethernet decapPk:sum(packetBytes) 4681172
scalar OSPF_mininet.BBR[0].ethernet encapPk:count 78442
scalar OSPF_mininet.BBR[0].ethernet encapPk:sum(packetBytes) 4645104
scalar OSPF_mininet.BBR[0].lo[0].lo rcvdPkFromHl:count 0
scalar OSPF_mininet.BBR[0].lo[0].lo rcvdPkFromHl:sum(packetBytes) 0
scalar OSPF_mininet.BBR[0].lo[0].lo passedUpPk:count 0
scalar OSPF_mininet.BBR[0].lo[0].lo passedUpPk:sum(packetBytes) 0
scalar OSPF_mininet.BBR[0].lo[0] packetDropInterfaceDown:count 0
scalar OSPF_mininet.BBR[0].lo[0] packetDropInterfaceDown:sum(packetBytes) 0
scalar OSPF_mininet.BBR[0].lo[0] packetDropNoCarrier:count 0
scalar OSPF_mininet.BBR[0].lo[0] packetDropNoCarrier:sum(packetBytes) 0
scalar OSPF_mininet.BBR[0].eth[0].queue queueLength:last 0
scalar OSPF_mininet.BBR[0].eth[0].queue queueLength:max 2
scalar OSPF_mininet.BBR[0].eth[0].queue queueLength:timeavg 3.78604e-06
scalar OSPF_mininet.BBR[0].eth[0].queue queueBitLength:last 0
scalar OSPF_mininet.BBR[0].eth[0].queue queueBitLength:max 1808
scalar OSPF_mininet.BBR[0].eth[0].queue queueBitLength:timeavg 0.0020985568
scalar OSPF_mininet.BBR[0].eth[0].queue outgoingPackets:count 39250
scalar OSPF_mininet.BBR[0].eth[0].queue outgoingPacketLengths:sum 24233472
scalar OSPF_mininet.BBR[0].eth[0].queue incomingPackets:count 39250
scalar OSPF_mininet.BBR[0].eth[0].queue incomingPacketLengths:sum 24233472
scalar OSPF_mininet.BBR[0].eth[0].queue droppedPacketsQueueOverflow:count 0
scalar OSPF_mininet.BBR[0].eth[0].queue droppedPacketLengthsQueueOverflow:sum 0
scalar OSPF_mininet.BBR[0].eth[0].mac "simulated time" 1000
scalar OSPF_mininet.BBR[0].eth[0].mac full-duplex 1
scalar OSPF_mininet.BBR[0].eth[0].mac "frames/sec sent" 39.25
scalar OSPF_mininet.BBR[0].eth[0].mac "frames/sec rcvd" 39.303
scalar OSPF_mininet.BBR[0].eth[0].mac "bits/sec sent" 24387.264
scalar OSPF_mininet.BBR[0].eth[0].mac "bits/sec rcvd" 24417.616
scalar OSPF_mininet.BBR[0].eth[0].mac "rx channel idle (%)" 99.973066992
scalar OSPF_mininet.BBR[0].eth[0].mac "rx channel utilization (%)" 0.026933008
scalar OSPF_mininet.BBR[0].eth[0].mac rxPausePkUnits:count 0
scalar OSPF_mininet.BBR[0].eth[0].mac rxPausePkUnits:sum 0
scalar OSPF_mininet.BBR[0].eth[0].mac txPausePkUnits:count 0
scalar OSPF_mininet.BBR[0].eth[0].mac txPausePkUnits:sum 0
scalar OSPF_mininet.BBR[0].eth[0].mac rxPkOk:count 39303
scalar OSPF_mininet.BBR[0].eth[0].mac rxPkOk:sum(packetBytes) 3052202
scalar OSPF_mininet.BBR[0].eth[0].mac txPk:count 39250
scalar OSPF_mininet.BBR[0].eth[0].mac txPk:sum(packetBytes) 3048408
scalar OSPF_mininet.BBR[0].eth[0].mac packetReceivedFromUpper:count 39250
scalar OSPF_mininet.BBR[0].eth[0].mac packetReceivedFromUpper:sum(packetBytes) 3029184
scalar OSPF_mininet.BBR[0].eth[0].mac passedUpPk:count 39303
scalar OSPF_mininet.BBR[0].eth[0].mac passedUpPk:sum(packetBytes) 3052202
scalar OSPF_mininet.BBR[0].eth[0].mac packetDropIncorrectlyReceived:count 0
scalar OSPF_mininet.BBR[0].eth[0].mac packetDropIncorrectlyReceived:sum(packetBytes) 0
scalar OSPF_mininet.BBR[0].eth[0].mac packetDropInterfaceDown:count 0
scalar OSPF_mininet.BBR[0].eth[0].mac packetDropInterfaceDown:sum(packetBytes) 0
scalar OSPF_mininet.BBR[0].eth[0].mac packetDropNotAddressedToUs:count 0
scalar OSPF_mininet.BBR[0].eth[0].mac packetDropNotAddressedToUs:sum(packetBytes) 0
scalar OSPF_mininet.BBR[0].eth[0] packetDropInterfaceDown:count 0
scalar OSPF_mininet.BBR[0].eth[0] packetDropInterfaceDown:sum(packetBytes) 0
scalar OSPF_mininet.BBR[0].eth[0] packetDropNoCarrier:count 0
scalar OSPF_mininet.BBR[0].eth[0] packetDropNoCarrier:sum(packetBytes) 0
scalar OSPF_mininet.BBR[0].eth[1].queue queueLength:last 0
scalar OSPF_mininet.BBR[0].eth[1].queue queueLength:max 3
scalar OSPF_mininet.BBR[0].eth[1].queue queueLength:timeavg 9.237e-07
scalar OSPF_mininet.BBR[0].eth[1].queue queueBitLength:last 0
scalar OSPF_mininet.BBR[0].eth[1].queue queueBitLength:max 2480
scalar OSPF_mininet.BBR[0].eth[1].queue queueBitLength:timeavg 0.000548984
scalar OSPF_mininet.BBR[0].eth[1].queue outgoingPackets:count 39192
scalar OSPF_mininet.BBR[0].eth[1].queue outgoingPacketLengths:sum 24223008
scalar OSPF_mininet.BBR[0].eth[1].queue incomingPackets:count 39192
scalar OSPF_mininet.BBR[0].eth[1].queue incomingPacketLengths:sum 24223008
scalar OSPF_mininet.BBR[0].eth[1].queue droppedPacketsQueueOverflow:count 0
scalar OSPF_mininet.BBR[0].eth[1].queue droppedPacketLengthsQueueOverflow:sum 0
scalar OSPF_mininet.BBR[0].eth[1].mac "simulated time" 1000
scalar OSPF_mininet.BBR[0].eth[1].mac full-duplex 1
scalar OSPF_mininet.BBR[0].eth[1].mac "frames/sec sent" 39.192
scalar OSPF_mininet.BBR[0].eth[1].mac "frames/sec rcvd" 39.136
scalar OSPF_mininet.BBR[0].eth[1].mac "bits/sec sent" 24361.248
scalar OSPF_mininet.BBR[0].eth[1].mac "bits/sec rcvd" 24326.976
scalar OSPF_mininet.BBR[0].eth[1].mac "rx channel idle (%)" 99.97316832
scalar OSPF_mininet.BBR[0].eth[1].mac "rx channel utilization (%)" 0.02683168
scalar OSPF_mininet.BBR[0].eth[1].mac rxPausePkUnits:count 0
scalar OSPF_mininet.BBR[0].eth[1].mac rxPausePkUnits:sum 0
scalar OSPF_mininet.BBR[0].eth[1].mac txPausePkUnits:count 0
scalar OSPF_mininet.BBR[0].eth[1].mac txPausePkUnits:sum 0
scalar OSPF_mininet.BBR[0].eth[1].mac rxPkOk:count 39136
scalar OSPF_mininet.BBR[0].eth[1].mac rxPkOk:sum(packetBytes) 3040872
scalar OSPF_mininet.BBR[0].eth[1].mac txPk:count 39192
scalar OSPF_mininet.BBR[0].eth[1].mac txPk:sum(packetBytes) 3045156
scalar OSPF_mininet.BBR[0].eth[1].mac packetReceivedFromUpper:count 39192
scalar OSPF_mininet.BBR[0].eth[1].mac packetReceivedFromUpper:sum(packetBytes) 3027876
scalar OSPF_mininet.BBR[0].eth[1].mac passedUpPk:count 39136
scalar OSPF_mininet.BBR[0].eth[1].mac passedUpPk:sum(packetBytes) 3040872
scalar OSPF_mininet.BBR[0].eth[1].mac packetDropIncorrectlyReceived:count 0
scalar OSPF_mininet.BBR[0].eth[1].mac packetDropIncorrectlyReceived:sum(packetBytes) 0
scalar OSPF_mininet.BBR[0].eth[1].mac packetDropInterfaceDown:count 0
scalar OSPF_mininet.BBR[0].eth[1].mac packetDropInterfaceDown:sum(packetBytes) 0
scalar OSPF_mininet.BBR[0].eth[1].mac packetDropNotAddressedToUs:count 0
scalar OSPF_mininet.BBR[0].eth[1].mac packetDropNotAddressedToUs:sum(packetBytes) 0
scalar OSPF_mininet.BBR[0].eth[1] packetDropInterfaceDown:count 0
scalar OSPF_mininet.BBR[0].eth[1] packetDropInterfaceDown:sum(packetBytes) 0
scalar OSPF_mininet.BBR[0].eth[1] packetDropNoCarrier:count 0
scalar OSPF_mininet.BBR[0].eth[1] packetDropNoCarrier:sum(packetBytes) 0
scalar OSPF_mininet.BBR[0].ipv4.ip packetDropAddressResolutionFailed:count 0
scalar OSPF_mininet.BBR[0].ipv4.ip packetDropAddressResolutionFailed:sum(packetBytes) 0
scalar OSPF_mininet.BBR[0].ipv4.ip packetDropHopLimitReached:count 0
scalar OSPF_mininet.BBR[0].ipv4.ip packetDropHopLimitReached:sum(packetBytes) 0
scalar OSPF_mininet.BBR[0].ipv4.ip packetDropForwardingDisabled:count 0
scalar OSPF_mininet.BBR[0].ipv4.ip packetDropForwardingDisabled:sum(packetBytes) 0
scalar OSPF_mininet.BBR[0].ipv4.ip packetDropLifetimeExpired:count 0
scalar OSPF_mininet.BBR[0].ipv4.ip packetDropLifetimeExpired:sum(packetBytes) 0
scalar OSPF_mininet.BBR[0].ipv4.ip packetDropNoInterfaceFound:count 0
scalar OSPF_mininet.BBR[0].ipv4.ip packetDropNoInterfaceFound:sum(packetBytes) 0
scalar OSPF_mininet.BBR[0].ipv4.ip packetDropNoRouteFound:count 0
scalar OSPF_mininet.BBR[0].ipv4.ip packetDropNoRouteFound:sum(packetBytes) 0
scalar OSPF_mininet.BBR[0].ipv4.ip packetDropUndefined:count 0
scalar OSPF_mininet.BBR[0].ipv4.ip packetDropUndefined:sum(packetBytes) 0
scalar OSPF_mininet.BBR[0].ipv4.arp arpResolutionFailed:count 0
scalar OSPF_mininet.BBR[0].ipv4.arp arpResolutionCompleted:count 2028
scalar OSPF_mininet.BBR[0].ipv4.arp arpResolutionInitiated:count 912
scalar OSPF_mininet.BBR[0].ipv4.arp arpReplySent:count 1116
scalar OSPF_mininet.BBR[0].ipv4.arp arpReplySent:sum(packetBytes) 31248
scalar OSPF_mininet.BBR[0].ipv4.arp arpRequestSent:count 912
scalar OSPF_mininet.BBR[0].ipv4.arp arpRequestSent:sum(packetBytes) 25536
scalar OSPF_mininet.BBR[1].ethernet pauseSent:count 0
scalar OSPF_mininet.BBR[1].ethernet pauseSent:sum 0
scalar OSPF_mininet.BBR[1].ethernet decapPk:count 78377
scalar OSPF_mininet.BBR[1].ethernet decapPk:sum(packetBytes) 4678210
scalar OSPF_mininet.BBR[1].ethernet encapPk:count 78392
scalar OSPF_mininet.BBR[1].ethernet encapPk:sum(packetBytes) 4644112
scalar OSPF_mininet.BBR[1].lo[0].lo rcvdPkFromHl:count 0
scalar OSPF_mininet.BBR[1].lo[0].lo rcvdPkFromHl:sum(packetBytes) 0
scalar OSPF_mininet.BBR[1].lo[0].lo passedUpPk:count 0
scalar OSPF_mininet.BBR[1].lo[0].lo passedUpPk:sum(packetBytes) 0
scalar OSPF_mininet.BBR[1].lo[0] packetDropInterfaceDown:count 0
scalar OSPF_mininet.BBR[1].lo[0] packetDropInterfaceDown:sum(packetBytes) 0
scalar OSPF_mininet.BBR[1].lo[0] packetDropNoCarrier:count 0
scalar OSPF_mininet.BBR[1].lo[0] packetDropNoCarrier:sum(packetBytes) 0
scalar OSPF_mininet.BBR[1].eth[0].queue queueLength:last 0
scalar OSPF_mininet.BBR[1].eth[0].queue queueLength:max 3
scalar OSPF_mininet.BBR[1].eth[0].queue queueLength:timeavg 5.78026e-06
scalar OSPF_mininet.BBR[1].eth[0].queue queueBitLength:last 0
scalar OSPF_mininet.BBR[1].eth[0].queue queueBitLength:max 2608
scalar OSPF_mininet.BBR[1].eth[0].queue queueBitLength:timeavg 0.003431448
scalar OSPF_mininet.BBR[1].eth[0].queue outgoingPackets:count 39256
scalar OSPF_mininet.BBR[1].eth[0].queue outgoingPacketLengths:sum 24252608
scalar OSPF_mininet.BBR[1].eth[0].queue incomingPackets:count 39256
scalar OSPF_mininet.BBR[1].eth[0].queue incomingPacketLengths:sum 24252608
scalar OSPF_mininet.BBR[1].eth[0].queue droppedPacketsQueueOverflow:count 0
scalar OSPF_mininet.BBR[1].eth[0].queue droppedPacketLengthsQueueOverflow:sum 0
scalar OSPF_mininet.BBR[1].eth[0].mac "simulated time" 1000
scalar OSPF_mininet.BBR[1].eth[0].mac full-duplex 1
scalar OSPF_mininet.BBR[1].eth[0].mac "frames/sec sent" 39.256
scalar OSPF_mininet.BBR[1].eth[0].mac "frames/sec rcvd" 39.185
scalar OSPF_mininet.BBR[1].eth[0].mac "bits/sec sent" 24398.192
scalar OSPF_mininet.BBR[1].eth[0].mac "bits/sec rcvd" 24350.72
scalar OSPF_mininet.BBR[1].eth[0].mac "rx channel idle (%)" 99.97314144
scalar OSPF_mininet.BBR[1].eth[0].mac "rx channel utilization (%)" 0.02685856
scalar OSPF_mininet.BBR[1].eth[0].mac rxPausePkUnits:count 0
scalar OSPF_mininet.BBR[1].eth[0].mac rxPausePkUnits:sum 0
scalar OSPF_mininet.BBR[1].eth[0].mac txPausePkUnits:count 0
scalar OSPF_mininet.BBR[1].eth[0].mac txPausePkUnits:sum 0
scalar OSPF_mininet.BBR[1].eth[0].mac rxPkOk:count 39185
scalar OSPF_mininet.BBR[1].eth[0].mac rxPkOk:sum(packetBytes) 3043840
scalar OSPF_mininet.BBR[1].eth[0].mac txPk:count 39256
scalar OSPF_mininet.BBR[1].eth[0].mac txPk:sum(packetBytes) 3049774
scalar OSPF_mininet.BBR[1].eth[0].mac packetReceivedFromUpper:count 39256
scalar OSPF_mininet.BBR[1].eth[0].mac packetReceivedFromUpper:sum(packetBytes) 3031576
scalar OSPF_mininet.BBR[1].eth[0].mac passedUpPk:count 39185
scalar OSPF_mininet.BBR[1].eth[0].mac passedUpPk:sum(packetBytes) 3043840
scalar OSPF_mininet.BBR[1].eth[0].mac packetDropIncorrectlyReceived:count 0
scalar OSPF_mininet.BBR[1].eth[0].mac packetDropIncorrectlyReceived:sum(packetBytes) 0
scalar OSPF_mininet.BBR[1].eth[0].mac packetDropInterfaceDown:count 0
scalar OSPF_mininet.BBR[1].eth[0].mac packetDropInterfaceDown:sum(packetBytes) 0
scalar OSPF_mininet.BBR[1].eth[0].mac packetDropNotAddressedToUs:count 0
scalar OSPF_mininet.BBR[1].eth[0].mac packetDropNotAddressedToUs:sum(packetBytes) 0
scalar OSPF_mininet.BBR[1].eth[0] packetDropInterfaceDown:count 0
scalar OSPF_mininet.BBR[1].eth[0] packetDropInterfaceDown:sum(packetBytes) 0
scalar OSPF_mininet.BBR[1].eth[0] packetDropNoCarrier:count 0
scalar OSPF_mininet.BBR[1].eth[0] packetDropNoCarrier:sum(packetBytes) 0
scalar OSPF_mininet.BBR[1].eth[1].queue queueLength:last 0
scalar OSPF_mininet.BBR[1].eth[1].queue queueLength:max 3
scalar OSPF_mininet.BBR[1].eth[1].queue queueLength:timeavg 4.6634e-06
scalar OSPF_mininet.BBR[1].eth[1].queue queueBitLength:last 0
scalar OSPF_mininet.BBR[1].eth[1].queue queueBitLength:max 2608
scalar OSPF_mininet.BBR[1].eth[1].queue queueBitLength:timeavg 0.00269407552
scalar OSPF_mininet.BBR[1].eth[1].queue outgoingPackets:count 39136
scalar OSPF_mininet.BBR[1].eth[1].queue outgoingPacketLengths:sum 24188736
scalar OSPF_mininet.BBR[1].eth[1].queue incomingPackets:count 39136
scalar OSPF_mininet.BBR[1].eth[1].queue incomingPacketLengths:sum 24188736
scalar OSPF_mininet.BBR[1].eth[1].queue droppedPacketsQueueOverflow:count 0
scalar OSPF_mininet.BBR[1].eth[1].queue droppedPacketLengthsQueueOverflow:sum 0
scalar OSPF_mininet.BBR[1].eth[1].mac "simulated time" 1000
scalar OSPF_mininet.BBR[1].eth[1].mac full-duplex 1
scalar OSPF_mininet.BBR[1].eth[1].mac "frames/sec sent" 39.136
scalar OSPF_mininet.BBR[1].eth[1].mac "frames/sec rcvd" 39.192
scalar OSPF_mininet.BBR[1].eth[1].mac "bits/sec sent" 24326.976
scalar OSPF_mininet.BBR[1].eth[1].mac "bits/sec rcvd" 24361.248
scalar OSPF_mininet.BBR[1].eth[1].mac "rx channel idle (%)" 99.973130464
scalar OSPF_mininet.BBR[1].eth[1].mac "rx channel utilization (%)" 0.026869536
scalar OSPF_mininet.BBR[1].eth[1].mac rxPausePkUnits:count 0
scalar OSPF_mininet.BBR[1].eth[1].mac rxPausePkUnits:sum 0
scalar OSPF_mininet.BBR[1].eth[1].mac txPausePkUnits:count 0
scalar OSPF_mininet.BBR[1].eth[1].mac txPausePkUnits:sum 0
scalar OSPF_mininet.BBR[1].eth[1].mac rxPkOk:count 39192
scalar OSPF_mininet.BBR[1].eth[1].mac rxPkOk:sum(packetBytes) 3045156
scalar OSPF_mininet.BBR[1].eth[1].mac txPk:count 39136
scalar OSPF_mininet.BBR[1].eth[1].mac txPk:sum(packetBytes) 3040872
scalar OSPF_mininet.BBR[1].eth[1].mac packetReceivedFromUpper:count 39136
scalar OSPF_mininet.BBR[1].eth[1].mac packetReceivedFromUpper:sum(packetBytes) 3023592
scalar OSPF_mininet.BBR[1].eth[1].mac passedUpPk:count 39192
scalar OSPF_mininet.BBR[1].eth[1].mac passedUpPk:sum(packetBytes) 3045156
scalar OSPF_mininet.BBR[1].eth[1].mac packetDropIncorrectlyReceived:count 0
scalar OSPF_mininet.BBR[1].eth[1].mac packetDropIncorrectlyReceived:sum(packetBytes) 0
scalar OSPF_mininet.BBR[1].eth[1].mac packetDropInterfaceDown:count 0
scalar OSPF_mininet.BBR[1].eth[1].mac packetDropInterfaceDown:sum(packetBytes) 0
scalar OSPF_mininet.BBR[1].eth[1].mac packetDropNotAddressedToUs:count 0
scalar OSPF_mininet.BBR[1].eth[1].mac packetDropNotAddressedToUs:sum(packetBytes) 0
scalar OSPF_mininet.BBR[1].eth[1] packetDropInterfaceDown:count 0
scalar OSPF_mininet.BBR[1].eth[1] packetDropInterfaceDown:sum(packetBytes) 0
scalar OSPF_mininet.BBR[1].eth[1] packetDropNoCarrier:count 0
scalar OSPF_mininet.BBR[1].eth[1] packetDropNoCarrier:sum(packetBytes) 0
scalar OSPF_mininet.BBR[1].ipv4.ip packetDropAddressResolutionFailed:count 0
scalar OSPF_mininet.BBR[1].ipv4.ip packetDropAddressResolutionFailed:sum(packetBytes) 0
scalar OSPF_mininet.BBR[1].ipv4.ip packetDropHopLimitReached:count 0
scalar OSPF_mininet.BBR[1].ipv4.ip packetDropHopLimitReached:sum(packetBytes) 0
scalar OSPF_mininet.BBR[1].ipv4.ip packetDropForwardingDisabled:count 0
scalar OSPF_mininet.BBR[1].ipv4.ip packetDropForwardingDisabled:sum(packetBytes) 0
scalar OSPF_mininet.BBR[1].ipv4.ip packetDropLifetimeExpired:count 0
scalar OSPF_mininet.BBR[1].ipv4.ip packetDropLifetimeExpired:sum(packetBytes) 0
scalar OSPF_mininet.BBR[1].ipv4.ip packetDropNoInterfaceFound:count 0
scalar OSPF_mininet.BBR[1].ipv4.ip packetDropNoInterfaceFound:sum(packetBytes) 0
scalar OSPF_mininet.BBR[1].ipv4.ip packetDropNoRouteFound:count 0
scalar OSPF_mininet.BBR[1].ipv4.ip packetDropNoRouteFound:sum(packetBytes) 0
scalar OSPF_mininet.BBR[1].ipv4.ip packetDropUndefined:count 0
scalar OSPF_mininet.BBR[1].ipv4.ip packetDropUndefined:sum(packetBytes) 0
scalar OSPF_mininet.BBR[1].ipv4.arp arpResolutionFailed:count 0
scalar OSPF_mininet.BBR[1].ipv4.arp arpResolutionCompleted:count 1971
scalar OSPF_mininet.BBR[1].ipv4.arp arpResolutionInitiated:count 1075
scalar OSPF_mininet.BBR[1].ipv4.arp arpReplySent:count 896
scalar OSPF_mininet.BBR[1].ipv4.arp arpReplySent:sum(packetBytes) 25088
scalar OSPF_mininet.BBR[1].ipv4.arp arpRequestSent:count 1075
scalar OSPF_mininet.BBR[1].ipv4.arp arpRequestSent:sum(packetBytes) 30100
scalar OSPF_mininet.BBRtoS1.ethernet pauseSent:count 0
scalar OSPF_mininet.BBRtoS1.ethernet pauseSent:sum 0
scalar OSPF_mininet.BBRtoS1.ethernet decapPk:count 78424
scalar OSPF_mininet.BBRtoS1.ethernet decapPk:sum(packetBytes) 4680846
scalar OSPF_mininet.BBRtoS1.ethernet encapPk:count 78413
scalar OSPF_mininet.BBRtoS1.ethernet encapPk:sum(packetBytes) 4643496
scalar OSPF_mininet.BBRtoS1.lo[0].lo rcvdPkFromHl:count 0
scalar OSPF_mininet.BBRtoS1.lo[0].lo rcvdPkFromHl:sum(packetBytes) 0
scalar OSPF_mininet.BBRtoS1.lo[0].lo passedUpPk:count 0
scalar OSPF_mininet.BBRtoS1.lo[0].lo passedUpPk:sum(packetBytes) 0
scalar OSPF_mininet.BBRtoS1.lo[0] packetDropInterfaceDown:count 0
scalar OSPF_mininet.BBRtoS1.lo[0] packetDropInterfaceDown:sum(packetBytes) 0
scalar OSPF_mininet.BBRtoS1.lo[0] packetDropNoCarrier:count 0
scalar OSPF_mininet.BBRtoS1.lo[0] packetDropNoCarrier:sum(packetBytes) 0
scalar OSPF_mininet.BBRtoS1.eth[0].queue queueLength:last 0
scalar OSPF_mininet.BBRtoS1.eth[0].queue queueLength:max 2
scalar OSPF_mininet.BBRtoS1.eth[0].queue queueLength:timeavg 6.53182e-06
scalar OSPF_mininet.BBRtoS1.eth[0].queue queueBitLength:last 0
scalar OSPF_mininet.BBRtoS1.eth[0].queue queueBitLength:max 1536
scalar OSPF_mininet.BBRtoS1.eth[0].queue queueBitLength:timeavg 0.00356454688
scalar OSPF_mininet.BBRtoS1.eth[0].queue outgoingPackets:count 39303
scalar OSPF_mininet.BBRtoS1.eth[0].queue outgoingPacketLengths:sum 24263824
scalar OSPF_mininet.BBRtoS1.eth[0].queue incomingPackets:count 39303
scalar OSPF_mininet.BBRtoS1.eth[0].queue incomingPacketLengths:sum 24263824
scalar OSPF_mininet.BBRtoS1.eth[0].queue droppedPacketsQueueOverflow:count 0
scalar OSPF_mininet.BBRtoS1.eth[0].queue droppedPacketLengthsQueueOverflow:sum 0
scalar OSPF_mininet.BBRtoS1.eth[0].mac "simulated time" 1000
scalar OSPF_mininet.BBRtoS1.eth[0].mac full-duplex 1
scalar OSPF_mininet.BBRtoS1.eth[0].mac "frames/sec sent" 39.303
scalar OSPF_mininet.BBRtoS1.eth[0].mac "frames/sec rcvd" 39.25
scalar OSPF_mininet.BBRtoS1.eth[0].mac "bits/sec sent" 24417.616
scalar OSPF_mininet.BBRtoS1.eth[0].mac "bits/sec rcvd" 24387.264
scalar OSPF_mininet.BBRtoS1.eth[0].mac "rx channel idle (%)" 99.973100736
scalar OSPF_mininet.BBRtoS1.eth[0].mac "rx channel utilization (%)" 0.026899264
scalar OSPF_mininet.BBRtoS1.eth[0].mac rxPausePkUnits:count 0
scalar OSPF_mininet.BBRtoS1.eth[0].mac rxPausePkUnits:sum 0
scalar OSPF_mininet.BBRtoS1.eth[0].mac txPausePkUnits:count 0
scalar OSPF_mininet.BBRtoS1.eth[0].mac txPausePkUnits:sum 0
scalar OSPF_mininet.BBRtoS1.eth[0].mac rxPkOk:count 39250
scalar OSPF_mininet.BBRtoS1.eth[0].mac rxPkOk:sum(packetBytes) 3048408
scalar OSPF_mininet.BBRtoS1.eth[0].mac txPk:count 39303
scalar OSPF_mininet.BBRtoS1.eth[0].mac txPk:sum(packetBytes) 3052202
scalar OSPF_mininet.BBRtoS1.eth[0].mac packetReceivedFromUpper:count 39303
scalar OSPF_mininet.BBRtoS1.eth[0].mac packetReceivedFromUpper:sum(packetBytes) 3032978
scalar OSPF_mininet.BBRtoS1.eth[0].mac passedUpPk:count 39250
scalar OSPF_mininet.BBRtoS1.eth[0].mac passedUpPk:sum(packetBytes) 3048408
scalar OSPF_mininet.BBRtoS1.eth[0].mac packetDropIncorrectlyReceived:count 0
scalar OSPF_mininet.BBRtoS1.eth[0].mac packetDropIncorrectlyReceived:sum(packetBytes) 0
scalar OSPF_mininet.BBRtoS1.eth[0].mac packetDropInterfaceDown:count 0
scalar OSPF_mininet.BBRtoS1.eth[0].mac packetDropInterfaceDown:sum(packetBytes) 0
scalar OSPF_mininet.BBRtoS1.eth[0].mac packetDropNotAddressedToUs:count 0
scalar OSPF_mininet.BBRtoS1.eth[0].mac packetDropNotAddressedToUs:sum(packetBytes) 0
scalar OSPF_mininet.BBRtoS1.eth[0] packetDropInterfaceDown:count 0
scalar OSPF_mininet.BBRtoS1.eth[0] packetDropInterfaceDown:sum(packetBytes) 0
scalar OSPF_mininet.BBRtoS1.eth[0] packetDropNoCarrier:count 0
scalar OSPF_mininet.BBRtoS1.eth[0] packetDropNoCarrier:sum(packetBytes) 0
scalar OSPF_mininet.BBRtoS1.eth[1].queue queueLength:last 0
scalar OSPF_mininet.BBRtoS1.eth[1].queue queueLength:max 2
scalar OSPF_mininet.BBRtoS1.eth[1].queue queueLength:timeavg 3.33336e-06
scalar OSPF_mininet.BBRtoS1.eth[1].queue queueBitLength:last 0
scalar OSPF_mininet.BBRtoS1.eth[1].queue queueBitLength:max 1600
scalar OSPF_mininet.BBRtoS1.eth[1].queue queueBitLength:timeavg 0.00208859264
scalar OSPF_mininet.BBRtoS1.eth[1].queue outgoingPackets:count 39110
scalar OSPF_mininet.BBRtoS1.eth[1].queue outgoingPacketLengths:sum 24175616
scalar OSPF_mininet.BBRtoS1.eth[1].queue incomingPackets:count 39110
scalar OSPF_mininet.BBRtoS1.eth[1].queue incomingPacketLengths:sum 24175616
scalar OSPF_mininet.BBRtoS1.eth[1].queue droppedPacketsQueueOverflow:count 0
scalar OSPF_mininet.BBRtoS1.eth[1].queue droppedPacketLengthsQueueOverflow:sum 0
scalar OSPF_mininet.BBRtoS1.eth[1].mac "simulated time" 1000
scalar OSPF_mininet.BBRtoS1.eth[1].mac full-duplex 1
scalar OSPF_mininet.BBRtoS1.eth[1].mac "frames/sec sent" 39.11
scalar OSPF_mininet.BBRtoS1.eth[1].mac "frames/sec rcvd" 39.174
scalar OSPF_mininet.BBRtoS1.eth[1].mac "bits/sec sent" 24310.544
scalar OSPF_mininet.BBRtoS1.eth[1].mac "bits/sec rcvd" 24352.56
scalar OSPF_mininet.BBRtoS1.eth[1].mac "rx channel idle (%)" 99.973140304
scalar OSPF_mininet.BBRtoS1.eth[1].mac "rx channel utilization (%)" 0.026859696
scalar OSPF_mininet.BBRtoS1.eth[1].mac rxPausePkUnits:count 0
scalar OSPF_mininet.BBRtoS1.eth[1].mac rxPausePkUnits:sum 0
scalar OSPF_mininet.BBRtoS1.eth[1].mac txPausePkUnits:count 0
scalar OSPF_mininet.BBRtoS1.eth[1].mac txPausePkUnits:sum 0
scalar OSPF_mininet.BBRtoS1.eth[1].mac rxPkOk:count 39174
scalar OSPF_mininet.BBRtoS1.eth[1].mac rxPkOk:sum(packetBytes) 3044070
scalar OSPF_mininet.BBRtoS1.eth[1].mac txPk:count 39110
scalar OSPF_mininet.BBRtoS1.eth[1].mac txPk:sum(packetBytes) 3038818
scalar OSPF_mininet.BBRtoS1.eth[1].mac packetReceivedFromUpper:count 39110
scalar OSPF_mininet.BBRtoS1.eth[1].mac packetReceivedFromUpper:sum(packetBytes) 3021952
scalar OSPF_mininet.BBRtoS1.eth[1].mac passedUpPk:count 39174
scalar OSPF_mininet.BBRtoS1.eth[1].mac passedUpPk:sum(packetBytes) 3044070
scalar OSPF_mininet.BBRtoS1.eth[1].mac packetDropIncorrectlyReceived:count 0
scalar OSPF_mininet.BBRtoS1.eth[1].mac packetDropIncorrectlyReceived:sum(packetBytes) 0
scalar OSPF_mininet.BBRtoS1.eth[1].mac packetDropInterfaceDown:count 0
scalar OSPF_mininet.BBRtoS1.eth[1].mac packetDropInterfaceDown:sum(packetBytes) 0
scalar OSPF_mininet.BBRtoS1.eth[1].mac packetDropNotAddressedToUs:count 0
scalar OSPF_mininet.BBRtoS1.eth[1].mac packetDropNotAddressedToUs:sum(packetBytes) 0
scalar OSPF_mininet.BBRtoS1.eth[1] packetDropInterfaceDown:count 0
scalar OSPF_mininet.BBRtoS1.eth[1] packetDropInterfaceDown:sum(packetBytes) 0
scalar OSPF_mininet.BBRtoS1.eth[1] packetDropNoCarrier:count 0
scalar OSPF_mininet.BBRtoS1.eth[1] packetDropNoCarrier:sum(packetBytes) 0
scalar OSPF_mininet.BBRtoS1.ipv4.ip packetDropAddressResolutionFailed:count 0
scalar OSPF_mininet.BBRtoS1.ipv4.ip packetDropAddressResolutionFailed:sum(packetBytes) 0
scalar OSPF_mininet.BBRtoS1.ipv4.ip packetDropHopLimitReached:count 0
scalar OSPF_mininet.BBRtoS1.ipv4.ip packetDropHopLimitReached:sum(packetBytes) 0
scalar OSPF_mininet.BBRtoS1.ipv4.ip packetDropForwardingDisabled:count 0
scalar OSPF_mininet.BBRtoS1.ipv4.ip packetDropForwardingDisabled:sum(packetBytes) 0
scalar OSPF_mininet.BBRtoS1.ipv4.ip packetDropLifetimeExpired:count 0
scalar OSPF_mininet.BBRtoS1.ipv4.ip packetDropLifetimeExpired:sum(packetBytes) 0
scalar OSPF_mininet.BBRtoS1.ipv4.ip packetDropNoInterfaceFound:count 0
scalar OSPF_mininet.BBRtoS1.ipv4.ip packetDropNoInterfaceFound:sum(packetBytes) 0
scalar OSPF_mininet.BBRtoS1.ipv4.ip packetDropNoRouteFound:count 0
scalar OSPF_mininet.BBRtoS1.ipv4.ip packetDropNoRouteFound:sum(packetBytes) 0
scalar OSPF_mininet.BBRtoS1.ipv4.ip packetDropUndefined:count 0
scalar OSPF_mininet.BBRtoS1.ipv4.ip packetDropUndefined:sum(packetBytes) 0
scalar OSPF_mininet.BBRtoS1.ipv4.arp arpResolutionFailed:count 0
scalar OSPF_mininet.BBRtoS1.ipv4.arp arpResolutionCompleted:count 2005
scalar OSPF_mininet.BBRtoS1.ipv4.arp arpResolutionInitiated:count 1136
scalar OSPF_mininet.BBRtoS1.ipv4.arp arpReplySent:count 869
scalar OSPF_mininet.BBRtoS1.ipv4.arp arpReplySent:sum(packetBytes) 24332
scalar OSPF_mininet.BBRtoS1.ipv4.arp arpRequestSent:count 1136
scalar OSPF_mininet.BBRtoS1.ipv4.arp arpRequestSent:sum(packetBytes) 31808
scalar OSPF_mininet.S1R[0].ethernet pauseSent:count 0
scalar OSPF_mininet.S1R[0].ethernet pauseSent:sum 0
scalar OSPF_mininet.S1R[0].ethernet decapPk:count 78273
scalar OSPF_mininet.S1R[0].ethernet decapPk:sum(packetBytes) 4672912
scalar OSPF_mininet.S1R[0].ethernet encapPk:count 78282
scalar OSPF_mininet.S1R[0].ethernet encapPk:sum(packetBytes) 4640040
scalar OSPF_mininet.S1R[0].lo[0].lo rcvdPkFromHl:count 0
scalar OSPF_mininet.S1R[0].lo[0].lo rcvdPkFromHl:sum(packetBytes) 0
scalar OSPF_mininet.S1R[0].lo[0].lo passedUpPk:count 0
scalar OSPF_mininet.S1R[0].lo[0].lo passedUpPk:sum(packetBytes) 0
scalar OSPF_mininet.S1R[0].lo[0] packetDropInterfaceDown:count 0
scalar OSPF_mininet.S1R[0].lo[0] packetDropInterfaceDown:sum(packetBytes) 0
scalar OSPF_mininet.S1R[0].lo[0] packetDropNoCarrier:count 0
scalar OSPF_mininet.S1R[0].lo[0] packetDropNoCarrier:sum(packetBytes) 0
scalar OSPF_mininet.S1R[0].eth[0].queue queueLength:last 0
scalar OSPF_mininet.S1R[0].eth[0].queue queueLength:max 2
scalar OSPF_mininet.S1R[0].eth[0].queue queueLength:timeavg 3.65288e-06
scalar OSPF_mininet.S1R[0].eth[0].queue queueBitLength:last 0
scalar OSPF_mininet.S1R[0].eth[0].queue queueBitLength:max 1408
scalar OSPF_mininet.S1R[0].eth[0].queue queueBitLength:timeavg 0.00229354752
scalar OSPF_mininet.S1R[0].eth[0].queue outgoingPackets:count 39174
scalar OSPF_mininet.S1R[0].eth[0].queue outgoingPacketLengths:sum 24217632
scalar OSPF_mininet.S1R[0].eth[0].queue incomingPackets:count 39174
scalar OSPF_mininet.S1R[0].eth[0].queue incomingPacketLengths:sum 24217632
scalar OSPF_mininet.S1R[0].eth[0].queue droppedPacketsQueueOverflow:count 0
scalar OSPF_mininet.S1R[0].eth[0].queue droppedPacketLengthsQueueOverflow:sum 0
scalar OSPF_mininet.S1R[0].eth[0].mac "simulated time" 1000
scalar OSPF_mininet.S1R[0].eth[0].mac full-duplex 1
scalar OSPF_mininet.S1R[0].eth[0].mac "frames/sec sent" 39.174
scalar OSPF_mininet.S1R[0].eth[0].mac "frames/sec rcvd" 39.11
scalar OSPF_mininet.S1R[0].eth[0].mac "bits/sec sent" 24352.56
scalar OSPF_mininet.S1R[0].eth[0].mac "bits/sec rcvd" 24310.544
scalar OSPF_mininet.S1R[0].eth[0].mac "rx channel idle (%)" 99.973186416
scalar OSPF_mininet.S1R[0].eth[0].mac "rx channel utilization (%)" 0.026813584
scalar OSPF_mininet.S1R[0].eth[0].mac rxPausePkUnits:count 0
scalar OSPF_mininet.S1R[0].eth[0].mac rxPausePkUnits:sum 0
scalar OSPF_mininet.S1R[0].eth[0].mac txPausePkUnits:count 0
scalar OSPF_mininet.S1R[0].eth[0].mac txPausePkUnits:sum 0
scalar OSPF_mininet.S1R[0].eth[0].mac rxPkOk:count 39110
scalar OSPF_mininet.S1R[0].eth[0].mac rxPkOk:sum(packetBytes) 3038818
scalar OSPF_mininet.S1R[0].eth[0].mac txPk:count 39174
scalar OSPF_mininet.S1R[0].eth[0].mac txPk:sum(packetBytes) 3044070
scalar OSPF_mininet.S1R[0].eth[0].mac packetReceivedFromUpper:count 39174
scalar OSPF_mininet.S1R[0].eth[0].mac packetReceivedFromUpper:sum(packetBytes) 3027204
scalar OSPF_mininet.S1R[0].eth[0].mac passedUpPk:count 39110
scalar OSPF_mininet.S1R[0].eth[0].mac passedUpPk:sum(packetBytes) 3038818
scalar OSPF_mininet.S1R[0].eth[0].mac packetDropIncorrectlyReceived:count 0
scalar OSPF_mininet.S1R[0].eth[0].mac packetDropIncorrectlyReceived:sum(packetBytes) 0
scalar OSPF_mininet.S1R[0].eth[0].mac packetDropInterfaceDown:count 0
scalar OSPF_mininet.S1R[0].eth[0].mac packetDropInterfaceDown:sum(packetBytes) 0
scalar OSPF_mininet.S1R[0].eth[0].mac packetDropNotAddressedToUs:count 0
scalar OSPF_mininet.S1R[0].eth[0].mac packetDropNotAddressedToUs:sum(packetBytes) 0
scalar OSPF_mininet.S1R[0].eth[0] packetDropInterfaceDown:count 0
scalar OSPF_mininet.S1R[0].eth[0] packetDropInterfaceDown:sum(packetBytes) 0
scalar OSPF_mininet.S1R[0].eth[0] packetDropNoCarrier:count 0
scalar OSPF_mininet.S1R[0].eth[0] packetDropNoCarrier:sum(packetBytes) 0
scalar OSPF_mininet.S1R[0].eth[1].queue queueLength:last 0
scalar OSPF_mininet.S1R[0].eth[1].queue queueLength:max 3
scalar OSPF_mininet.S1R[0].eth[1].queue queueLength:timeavg 3.45602e-06
scalar OSPF_mininet.S1R[0].eth[1].queue queueBitLength:last 0
scalar OSPF_mininet.S1R[0].eth[1].queue queueBitLength:max 2480
scalar OSPF_mininet.S1R[0].eth[1].queue queueBitLength:timeavg 0.00218503136
scalar OSPF_mininet.S1R[0].eth[1].queue outgoingPackets:count 39108
scalar OSPF_mininet.S1R[0].eth[1].queue outgoingPacketLengths:sum 24175296
scalar OSPF_mininet.S1R[0].eth[1].queue incomingPackets:count 39108
scalar OSPF_mininet.S1R[0].eth[1].queue incomingPacketLengths:sum 24175296
scalar OSPF_mininet.S1R[0].eth[1].queue droppedPacketsQueueOverflow:count 0
scalar OSPF_mininet.S1R[0].eth[1].queue droppedPacketLengthsQueueOverflow:sum 0
scalar OSPF_mininet.S1R[0].eth[1].mac "simulated time" 1000
scalar OSPF_mininet.S1R[0].eth[1].mac full-duplex 1
scalar OSPF_mininet.S1R[0].eth[1].mac "frames/sec sent" 39.108
scalar OSPF_mininet.S1R[0].eth[1].mac "frames/sec rcvd" 39.163
scalar OSPF_mininet.S1R[0].eth[1].mac "bits/sec sent" 24310.224
scalar OSPF_mininet.S1R[0].eth[1].mac "bits/sec rcvd" 24344.064
scalar OSPF_mininet.S1R[0].eth[1].mac "rx channel idle (%)" 99.973149504
scalar OSPF_mininet.S1R[0].eth[1].mac "rx channel utilization (%)" 0.026850496
scalar OSPF_mininet.S1R[0].eth[1].mac rxPausePkUnits:count 0
scalar OSPF_mininet.S1R[0].eth[1].mac rxPausePkUnits:sum 0
scalar OSPF_mininet.S1R[0].eth[1].mac txPausePkUnits:count 0
scalar OSPF_mininet.S1R[0].eth[1].mac txPausePkUnits:sum 0
scalar OSPF_mininet.S1R[0].eth[1].mac rxPkOk:count 39163
scalar OSPF_mininet.S1R[0].eth[1].mac rxPkOk:sum(packetBytes) 3043008
scalar OSPF_mininet.S1R[0].eth[1].mac txPk:count 39108
scalar OSPF_mininet.S1R[0].eth[1].mac txPk:sum(packetBytes) 3038778
scalar OSPF_mininet.S1R[0].eth[1].mac packetReceivedFromUpper:count 39108
scalar OSPF_mininet.S1R[0].eth[1].mac packetReceivedFromUpper:sum(packetBytes) 3021912
scalar OSPF_mininet.S1R[0].eth[1].mac passedUpPk:count 39163
scalar OSPF_mininet.S1R[0].eth[1].mac passedUpPk:sum(packetBytes) 3043008
scalar OSPF_mininet.S1R[0].eth[1].mac packetDropIncorrectlyReceived:count 0
scalar OSPF_mininet.S1R[0].eth[1].mac packetDropIncorrectlyReceived:sum(packetBytes) 0
scalar OSPF_mininet.S1R[0].eth[1].mac packetDropInterfaceDown:count 0
scalar OSPF_mininet.S1R[0].eth[1].mac packetDropInterfaceDown:sum(packetBytes) 0
scalar OSPF_mininet.S1R[0].eth[1].mac packetDropNotAddressedToUs:count 0
scalar OSPF_mininet.S1R[0].eth[1].mac packetDropNotAddressedToUs:sum(packetBytes) 0
scalar OSPF_mininet.S1R[0].eth[1] packetDropInterfaceDown:count 0
scalar OSPF_mininet.S1R[0].eth[1] packetDropInterfaceDown:sum(packetBytes) 0
scalar OSPF_mininet.S1R[0].eth[1] packetDropNoCarrier:count 0
scalar OSPF_mininet.S1R[0].eth[1] packetDropNoCarrier:sum(packetBytes) 0
scalar OSPF_mininet.S1R[0].ipv4.ip packetDropAddressResolutionFailed:count 0
scalar OSPF_mininet.S1R[0].ipv4.ip packetDropAddressResolutionFailed:sum(packetBytes) 0
scalar OSPF_mininet.S1R[0].ipv4.ip packetDropHopLimitReached:count 0
scalar OSPF_mininet.S1R[0].ipv4.ip packetDropHopLimitReached:sum(packetBytes) 0
scalar OSPF_mininet.S1R[0].ipv4.ip packetDropForwardingDisabled:count 0
scalar OSPF_mininet.S1R[0].ipv4.ip packetDropForwardingDisabled:sum(packetBytes) 0
scalar OSPF_mininet.S1R[0].ipv4.ip packetDropLifetimeExpired:count 0
scalar OSPF_mininet.S1R[0].ipv4.ip packetDropLifetimeExpired:sum(packetBytes) 0
scalar OSPF_mininet.S1R[0].ipv4.ip packetDropNoInterfaceFound:count 0
scalar OSPF_mininet.S1R[0].ipv4.ip packetDropNoInterfaceFound:sum(packetBytes) 0
scalar OSPF_mininet.S1R[0].ipv4.ip packetDropNoRouteFound:count 0
scalar OSPF_mininet.S1R[0].ipv4.ip packetDropNoRouteFound:sum(packetBytes) 0
scalar OSPF_mininet.S1R[0].ipv4.ip packetDropUndefined:count 0
scalar OSPF_mininet.S1R[0].ipv4.ip packetDropUndefined:sum(packetBytes) 0
scalar OSPF_mininet.S1R[0].ipv4.arp arpResolutionFailed:count 0
scalar OSPF_mininet.S1R[0].ipv4.arp arpResolutionCompleted:count 1874
scalar OSPF_mininet.S1R[0].ipv4.arp arpResolutionInitiated:count 916
scalar OSPF_mininet.S1R[0].ipv4.arp arpReplySent:count 958
scalar OSPF_mininet.S1R[0].ipv4.arp arpReplySent:sum(packetBytes) 26824
scalar OSPF_mininet.S1R[0].ipv4.arp arpRequestSent:count 916
scalar OSPF_mininet.S1R[0].ipv4.arp arpRequestSent:sum(packetBytes) 25648
scalar OSPF_mininet.S1R[1].ethernet pauseSent:count 0
scalar OSPF_mininet.S1R[1].ethernet pauseSent:sum 0
scalar OSPF_mininet.S1R[1].ethernet decapPk:count 80908
scalar OSPF_mininet.S1R[1].ethernet decapPk:sum(packetBytes) 4791034
scalar OSPF_mininet.S1R[1].ethernet encapPk:count 81031
scalar OSPF_mininet.S1R[1].ethernet encapPk:sum(packetBytes) 4717992
scalar OSPF_mininet.S1R[1].lo[0].lo rcvdPkFromHl:count 0
scalar OSPF_mininet.S1R[1].lo[0].lo rcvdPkFromHl:sum(packetBytes) 0
scalar OSPF_mininet.S1R[1].lo[0].lo passedUpPk:count 0
scalar OSPF_mininet.S1R[1].lo[0].lo passedUpPk:sum(packetBytes) 0
scalar OSPF_mininet.S1R[1].lo[0] packetDropInterfaceDown:count 0
scalar OSPF_mininet.S1R[1].lo[0] packetDropInterfaceDown:sum(packetBytes) 0
scalar OSPF_mininet.S1R[1].lo[0] packetDropNoCarrier:count 0
scalar OSPF_mininet.S1R[1].lo[0] packetDropNoCarrier:sum(packetBytes) 0
scalar OSPF_mininet.S1R[1].eth[0].queue queueLength:last 0
scalar OSPF_mininet.S1R[1].eth[0].queue queueLength:max 3
scalar OSPF_mininet.S1R[1].eth[0].queue queueLength:timeavg 7.6640919999997e-05
scalar OSPF_mininet.S1R[1].eth[0].queue queueBitLength:last 0
scalar OSPF_mininet.S1R[1].eth[0].queue queueBitLength:max 2800
scalar OSPF_mininet.S1R[1].eth[0].queue queueBitLength:timeavg 0.047848335999994
scalar OSPF_mininet.S1R[1].eth[0].queue outgoingPackets:count 39163
scalar OSPF_mininet.S1R[1].eth[0].queue outgoingPacketLengths:sum 24209136
scalar OSPF_mininet.S1R[1].eth[0].queue incomingPackets:count 39163
scalar OSPF_mininet.S1R[1].eth[0].queue incomingPacketLengths:sum 24209136
scalar OSPF_mininet.S1R[1].eth[0].queue droppedPacketsQueueOverflow:count 0
scalar OSPF_mininet.S1R[1].eth[0].queue droppedPacketLengthsQueueOverflow:sum 0
scalar OSPF_mininet.S1R[1].eth[0].mac "simulated time" 1000
scalar OSPF_mininet.S1R[1].eth[0].mac full-duplex 1
scalar OSPF_mininet.S1R[1].eth[0].mac "frames/sec sent" 39.163
scalar OSPF_mininet.S1R[1].eth[0].mac "frames/sec rcvd" 39.108
scalar OSPF_mininet.S1R[1].eth[0].mac "bits/sec sent" 24344.064
scalar OSPF_mininet.S1R[1].eth[0].mac "bits/sec rcvd" 24310.224
scalar OSPF_mininet.S1R[1].eth[0].mac "rx channel idle (%)" 99.973186864
scalar OSPF_mininet.S1R[1].eth[0].mac "rx channel utilization (%)" 0.026813136
scalar OSPF_mininet.S1R[1].eth[0].mac rxPausePkUnits:count 0
scalar OSPF_mininet.S1R[1].eth[0].mac rxPausePkUnits:sum 0
scalar OSPF_mininet.S1R[1].eth[0].mac txPausePkUnits:count 0
scalar OSPF_mininet.S1R[1].eth[0].mac txPausePkUnits:sum 0
scalar OSPF_mininet.S1R[1].eth[0].mac rxPkOk:count 39108
scalar OSPF_mininet.S1R[1].eth[0].mac rxPkOk:sum(packetBytes) 3038778
scalar OSPF_mininet.S1R[1].eth[0].mac txPk:count 39163
scalar OSPF_mininet.S1R[1].eth[0].mac txPk:sum(packetBytes) 3043008
scalar OSPF_mininet.S1R[1].eth[0].mac packetReceivedFromUpper:count 39163
scalar OSPF_mininet.S1R[1].eth[0].mac packetReceivedFromUpper:sum(packetBytes) 3026142
scalar OSPF_mininet.S1R[1].eth[0].mac passedUpPk:count 39108
scalar OSPF_mininet.S1R[1].eth[0].mac passedUpPk:sum(packetBytes) 3038778
scalar OSPF_mininet.S1R[1].eth[0].mac packetDropIncorrectlyReceived:count 0
scalar OSPF_mininet.S1R[1].eth[0].mac packetDropIncorrectlyReceived:sum(packetBytes) 0
scalar OSPF_mininet.S1R[1].eth[0].mac packetDropInterfaceDown:count 0
scalar OSPF_mininet.S1R[1].eth[0].mac packetDropInterfaceDown:sum(packetBytes) 0
scalar OSPF_mininet.S1R[1].eth[0].mac packetDropNotAddressedToUs:count 0
scalar OSPF_mininet.S1R[1].eth[0].mac packetDropNotAddressedToUs:sum(packetBytes) 0
scalar OSPF_mininet.S1R[1].eth[0] packetDropInterfaceDown:count 0
scalar OSPF_mininet.S1R[1].eth[0] packetDropInterfaceDown:sum(packetBytes) 0
scalar OSPF_mininet.S1R[1].eth[0] packetDropNoCarrier:count 0
scalar OSPF_mininet.S1R[1].eth[0] packetDropNoCarrier:sum(packetBytes) 0
scalar OSPF_mininet.S1R[1].eth[1].queue queueLength:last 0
scalar OSPF_mininet.S1R[1].eth[1].queue queueLength:max 0
scalar OSPF_mininet.S1R[1].eth[1].queue queueLength:timeavg 0
scalar OSPF_mininet.S1R[1].eth[1].queue queueBitLength:last 0
scalar OSPF_mininet.S1R[1].eth[1].queue queueBitLength:max 0
scalar OSPF_mininet.S1R[1].eth[1].queue queueBitLength:timeavg 0
scalar OSPF_mininet.S1R[1].eth[1].queue outgoingPackets:count 20934
scalar OSPF_mininet.S1R[1].eth[1].queue outgoingPacketLengths:sum 12601632
scalar OSPF_mininet.S1R[1].eth[1].queue incomingPackets:count 20934
scalar OSPF_mininet.S1R[1].eth[1].queue incomingPacketLengths:sum 12601632
scalar OSPF_mininet.S1R[1].eth[1].queue droppedPacketsQueueOverflow:count 0
scalar OSPF_mininet.S1R[1].eth[1].queue droppedPacketLengthsQueueOverflow:sum 0
scalar OSPF_mininet.S1R[1].eth[1].mac "simulated time" 1000
scalar OSPF_mininet.S1R[1].eth[1].mac full-duplex 1
scalar OSPF_mininet.S1R[1].eth[1].mac "frames/sec sent" 20.934
scalar OSPF_mininet.S1R[1].eth[1].mac "frames/sec rcvd" 20.9
scalar OSPF_mininet.S1R[1].eth[1].mac "bits/sec sent" 12862.848
scalar OSPF_mininet.S1R[1].eth[1].mac "bits/sec rcvd" 12834.4
scalar OSPF_mininet.S1R[1].eth[1].mac "rx channel idle (%)" 99.985828
scalar OSPF_mininet.S1R[1].eth[1].mac "rx channel utilization (%)" 0.014172
scalar OSPF_mininet.S1R[1].eth[1].mac rxPausePkUnits:count 0
scalar OSPF_mininet.S1R[1].eth[1].mac rxPausePkUnits:sum 0
scalar OSPF_mininet.S1R[1].eth[1].mac txPausePkUnits:count 0
scalar OSPF_mininet.S1R[1].eth[1].mac txPausePkUnits:sum 0
scalar OSPF_mininet.S1R[1].eth[1].mac rxPkOk:count 20900
scalar OSPF_mininet.S1R[1].eth[1].mac rxPkOk:sum(packetBytes) 1604300
scalar OSPF_mininet.S1R[1].eth[1].mac txPk:count 20934
scalar OSPF_mininet.S1R[1].eth[1].mac txPk:sum(packetBytes) 1607856
scalar OSPF_mininet.S1R[1].eth[1].mac packetReceivedFromUpper:count 20934
scalar OSPF_mininet.S1R[1].eth[1].mac packetReceivedFromUpper:sum(packetBytes) 1575204
scalar OSPF_mininet.S1R[1].eth[1].mac passedUpPk:count 20900
scalar OSPF_mininet.S1R[1].eth[1].mac passedUpPk:sum(packetBytes) 1604300
scalar OSPF_mininet.S1R[1].eth[1].mac packetDropIncorrectlyReceived:count 0
scalar OSPF_mininet.S1R[1].eth[1].mac packetDropIncorrectlyReceived:sum(packetBytes) 0
scalar OSPF_mininet.S1R[1].eth[1].mac packetDropInterfaceDown:count 0
scalar OSPF_mininet.S1R[1].eth[1].mac packetDropInterfaceDown:sum(packetBytes) 0
scalar OSPF_mininet.S1R[1].eth[1].mac packetDropNotAddressedToUs:count 0
scalar OSPF_mininet.S1R[1].eth[1].mac packetDropNotAddressedToUs:sum(packetBytes) 0
scalar OSPF_mininet.S1R[1].eth[1] packetDropInterfaceDown:count 0
scalar OSPF_mininet.S1R[1].eth[1] packetDropInterfaceDown:sum(packetBytes) 0
scalar OSPF_mininet.S1R[1].eth[1] packetDropNoCarrier:count 0
scalar OSPF_mininet.S1R[1].eth[1] packetDropNoCarrier:sum(packetBytes) 0
scalar OSPF_mininet.S1R[1].eth[2].queue queueLength:last 0
scalar OSPF_mininet.S1R[1].eth[2].queue queueLength:max 0
scalar OSPF_mininet.S1R[1].eth[2].queue queueLength:timeavg 0
scalar OSPF_mininet.S1R[1].eth[2].queue queueBitLength:last 0
scalar OSPF_mininet.S1R[1].eth[2].queue queueBitLength:max 0
scalar OSPF_mininet.S1R[1].eth[2].queue queueBitLength:timeavg 0
scalar OSPF_mininet.S1R[1].eth[2].queue outgoingPackets:count 20934
scalar OSPF_mininet.S1R[1].eth[2].queue outgoingPacketLengths:sum 12601632
scalar OSPF_mininet.S1R[1].eth[2].queue incomingPackets:count 20934
scalar OSPF_mininet.S1R[1].eth[2].queue incomingPacketLengths:sum 12601632
scalar OSPF_mininet.S1R[1].eth[2].queue droppedPacketsQueueOverflow:count 0
scalar OSPF_mininet.S1R[1].eth[2].queue droppedPacketLengthsQueueOverflow:sum 0
scalar OSPF_mininet.S1R[1].eth[2].mac "simulated time" 1000
scalar OSPF_mininet.S1R[1].eth[2].mac full-duplex 1
scalar OSPF_mininet.S1R[1].eth[2].mac "frames/sec sent" 20.934
scalar OSPF_mininet.S1R[1].eth[2].mac "frames/sec rcvd" 20.9
scalar OSPF_mininet.S1R[1].eth[2].mac "bits/sec sent" 12862.848
scalar OSPF_mininet.S1R[1].eth[2].mac "bits/sec rcvd" 12834.4
scalar OSPF_mininet.S1R[1].eth[2].mac "rx channel idle (%)" 99.985828
scalar OSPF_mininet.S1R[1].eth[2].mac "rx channel utilization (%)" 0.014172
scalar OSPF_mininet.S1R[1].eth[2].mac rxPausePkUnits:count 0
scalar OSPF_mininet.S1R[1].eth[2].mac rxPausePkUnits:sum 0
scalar OSPF_mininet.S1R[1].eth[2].mac txPausePkUnits:count 0
scalar OSPF_mininet.S1R[1].eth[2].mac txPausePkUnits:sum 0
scalar OSPF_mininet.S1R[1].eth[2].mac rxPkOk:count 20900
scalar OSPF_mininet.S1R[1].eth[2].mac rxPkOk:sum(packetBytes) 1604300
scalar OSPF_mininet.S1R[1].eth[2].mac txPk:count 20934
scalar OSPF_mininet.S1R[1].eth[2].mac txPk:sum(packetBytes) 1607856
scalar OSPF_mininet.S1R[1].eth[2].mac packetReceivedFromUpper:count 20934
scalar OSPF_mininet.S1R[1].eth[2].mac packetReceivedFromUpper:sum(packetBytes) 1575204
scalar OSPF_mininet.S1R[1].eth[2].mac passedUpPk:count 20900
scalar OSPF_mininet.S1R[1].eth[2].mac passedUpPk:sum(packetBytes) 1604300
scalar OSPF_mininet.S1R[1].eth[2].mac packetDropIncorrectlyReceived:count 0
scalar OSPF_mininet.S1R[1].eth[2].mac packetDropIncorrectlyReceived:sum(packetBytes) 0
scalar OSPF_mininet.S1R[1].eth[2].mac packetDropInterfaceDown:count 0
scalar OSPF_mininet.S1R[1].eth[2].mac packetDropInterfaceDown:sum(packetBytes) 0
scalar OSPF_mininet.S1R[1].eth[2].mac packetDropNotAddressedToUs:count 0
scalar OSPF_mininet.S1R[1].eth[2].mac packetDropNotAddressedToUs:sum(packetBytes) 0
scalar OSPF_mininet.S1R[1].eth[2] packetDropInterfaceDown:count 0
scalar OSPF_mininet.S1R[1].eth[2] packetDropInterfaceDown:sum(packetBytes) 0
scalar OSPF_mininet.S1R[1].eth[2] packetDropNoCarrier:count 0
scalar OSPF_mininet.S1R[1].eth[2] packetDropNoCarrier:sum(packetBytes) 0
scalar OSPF_mininet.S1R[1].ipv4.ip packetDropAddressResolutionFailed:count 0
scalar OSPF_mininet.S1R[1].ipv4.ip packetDropAddressResolutionFailed:sum(packetBytes) 0
scalar OSPF_mininet.S1R[1].ipv4.ip packetDropHopLimitReached:count 0
scalar OSPF_mininet.S1R[1].ipv4.ip packetDropHopLimitReached:sum(packetBytes) 0
scalar OSPF_mininet.S1R[1].ipv4.ip packetDropForwardingDisabled:count 0
scalar OSPF_mininet.S1R[1].ipv4.ip packetDropForwardingDisabled:sum(packetBytes) 0
scalar OSPF_mininet.S1R[1].ipv4.ip packetDropLifetimeExpired:count 0
scalar OSPF_mininet.S1R[1].ipv4.ip packetDropLifetimeExpired:sum(packetBytes) 0
scalar OSPF_mininet.S1R[1].ipv4.ip packetDropNoInterfaceFound:count 0
scalar OSPF_mininet.S1R[1].ipv4.ip packetDropNoInterfaceFound:sum(packetBytes) 0
scalar OSPF_mininet.S1R[1].ipv4.ip packetDropNoRouteFound:count 0
scalar OSPF_mininet.S1R[1].ipv4.ip packetDropNoRouteFound:sum(packetBytes) 0
scalar OSPF_mininet.S1R[1].ipv4.ip packetDropUndefined:count 0
scalar OSPF_mininet.S1R[1].ipv4.ip packetDropUndefined:sum(packetBytes) 0
scalar OSPF_mininet.S1R[1].ipv4.arp arpResolutionFailed:count 0
scalar OSPF_mininet.S1R[1].ipv4.arp arpResolutionCompleted:count 4565
scalar OSPF_mininet.S1R[1].ipv4.arp arpResolutionInitiated:count 2259
scalar OSPF_mininet.S1R[1].ipv4.arp arpReplySent:count 2306
scalar OSPF_mininet.S1R[1].ipv4.arp arpReplySent:sum(packetBytes) 64568
scalar OSPF_mininet.S1R[1].ipv4.arp arpRequestSent:count 2259
scalar OSPF_mininet.S1R[1].ipv4.arp arpRequestSent:sum(packetBytes) 63252
scalar OSPF_mininet.S1H[0].ethernet pauseSent:count 0
scalar OSPF_mininet.S1H[0].ethernet pauseSent:sum 0
scalar OSPF_mininet.S1H[0].ethernet decapPk:count 20934
scalar OSPF_mininet.S1H[0].ethernet decapPk:sum(packetBytes) 1231044
scalar OSPF_mininet.S1H[0].ethernet encapPk:count 20901
scalar OSPF_mininet.S1H[0].ethernet encapPk:sum(packetBytes) 1194860
scalar OSPF_mininet.S1H[0].lo[0].lo rcvdPkFromHl:count 0
scalar OSPF_mininet.S1H[0].lo[0].lo rcvdPkFromHl:sum(packetBytes) 0
scalar OSPF_mininet.S1H[0].lo[0].lo passedUpPk:count 0
scalar OSPF_mininet.S1H[0].lo[0].lo passedUpPk:sum(packetBytes) 0
scalar OSPF_mininet.S1H[0].lo[0] packetDropInterfaceDown:count 0
scalar OSPF_mininet.S1H[0].lo[0] packetDropInterfaceDown:sum(packetBytes) 0
scalar OSPF_mininet.S1H[0].lo[0] packetDropNoCarrier:count 0
scalar OSPF_mininet.S1H[0].lo[0] packetDropNoCarrier:sum(packetBytes) 0
scalar OSPF_mininet.S1H[0].eth[0].queue queueLength:last 0
scalar OSPF_mininet.S1H[0].eth[0].queue queueLength:max 0
scalar OSPF_mininet.S1H[0].eth[0].queue queueLength:timeavg 0
scalar OSPF_mininet.S1H[0].eth[0].queue queueBitLength:last 0
scalar OSPF_mininet.S1H[0].eth[0].queue queueBitLength:max 0
scalar OSPF_mininet.S1H[0].eth[0].queue queueBitLength:timeavg 0
scalar OSPF_mininet.S1H[0].eth[0].queue outgoingPackets:count 20901
scalar OSPF_mininet.S1H[0].eth[0].queue outgoingPacketLengths:sum 12568624
scalar OSPF_mininet.S1H[0].eth[0].queue incomingPackets:count 20901
scalar OSPF_mininet.S1H[0].eth[0].queue incomingPacketLengths:sum 12568624
scalar OSPF_mininet.S1H[0].eth[0].queue droppedPacketsQueueOverflow:count 0
scalar OSPF_mininet.S1H[0].eth[0].queue droppedPacketLengthsQueueOverflow:sum 0
scalar OSPF_mininet.S1H[0].eth[0].mac "simulated time" 1000
scalar OSPF_mininet.S1H[0].eth[0].mac full-duplex 1
scalar OSPF_mininet.S1H[0].eth[0].mac "frames/sec sent" 20.9
scalar OSPF_mininet.S1H[0].eth[0].mac "frames/sec rcvd" 20.934
scalar OSPF_mininet.S1H[0].eth[0].mac "bits/sec sent" 12834.4
scalar OSPF_mininet.S1H[0].eth[0].mac "bits/sec rcvd" 12862.848
scalar OSPF_mininet.S1H[0].eth[0].mac "rx channel idle (%)" 99.985797376
scalar OSPF_mininet.S1H[0].eth[0].mac "rx channel utilization (%)" 0.014202624
scalar OSPF_mininet.S1H[0].eth[0].mac rxPausePkUnits:count 0
scalar OSPF_mininet.S1H[0].eth[0].mac rxPausePkUnits:sum 0
scalar OSPF_mininet.S1H[0].eth[0].mac txPausePkUnits:count 0
scalar OSPF_mininet.S1H[0].eth[0].mac txPausePkUnits:sum 0
scalar OSPF_mininet.S1H[0].eth[0].mac rxPkOk:count 20934
scalar OSPF_mininet.S1H[0].eth[0].mac rxPkOk:sum(packetBytes) 1607856
scalar OSPF_mininet.S1H[0].eth[0].mac txPk:count 20900
scalar OSPF_mininet.S1H[0].eth[0].mac txPk:sum(packetBytes) 1604300
scalar OSPF_mininet.S1H[0].eth[0].mac packetReceivedFromUpper:count 20901
scalar OSPF_mininet.S1H[0].eth[0].mac packetReceivedFromUpper:sum(packetBytes) 1571078
scalar OSPF_mininet.S1H[0].eth[0].mac passedUpPk:count 20934
scalar OSPF_mininet.S1H[0].eth[0].mac passedUpPk:sum(packetBytes) 1607856
scalar OSPF_mininet.S1H[0].eth[0].mac packetDropIncorrectlyReceived:count 0
scalar OSPF_mininet.S1H[0].eth[0].mac packetDropIncorrectlyReceived:sum(packetBytes) 0
scalar OSPF_mininet.S1H[0].eth[0].mac packetDropInterfaceDown:count 0
scalar OSPF_mininet.S1H[0].eth[0].mac packetDropInterfaceDown:sum(packetBytes) 0
scalar OSPF_mininet.S1H[0].eth[0].mac packetDropNotAddressedToUs:count 0
scalar OSPF_mininet.S1H[0].eth[0].mac packetDropNotAddressedToUs:sum(packetBytes) 0
scalar OSPF_mininet.S1H[0].eth[0] packetDropInterfaceDown:count 0
scalar OSPF_mininet.S1H[0].eth[0] packetDropInterfaceDown:sum(packetBytes) 0
scalar OSPF_mininet.S1H[0].eth[0] packetDropNoCarrier:count 0
scalar OSPF_mininet.S1H[0].eth[0] packetDropNoCarrier:sum(packetBytes) 0
scalar OSPF_mininet.S1H[0].ipv4.ip packetDropAddressResolutionFailed:count 360
scalar OSPF_mininet.S1H[0].ipv4.ip packetDropAddressResolutionFailed:sum(packetBytes) 21600
scalar OSPF_mininet.S1H[0].ipv4.ip packetDropHopLimitReached:count 0
scalar OSPF_mininet.S1H[0].ipv4.ip packetDropHopLimitReached:sum(packetBytes) 0
scalar OSPF_mininet.S1H[0].ipv4.ip packetDropForwardingDisabled:count 0
scalar OSPF_mininet.S1H[0].ipv4.ip packetDropForwardingDisabled:sum(packetBytes) 0
scalar OSPF_mininet.S1H[0].ipv4.ip packetDropLifetimeExpired:count 0
scalar OSPF_mininet.S1H[0].ipv4.ip packetDropLifetimeExpired:sum(packetBytes) 0
scalar OSPF_mininet.S1H[0].ipv4.ip packetDropNoInterfaceFound:count 0
scalar OSPF_mininet.S1H[0].ipv4.ip packetDropNoInterfaceFound:sum(packetBytes) 0
scalar OSPF_mininet.S1H[0].ipv4.ip packetDropNoRouteFound:count 0
scalar OSPF_mininet.S1H[0].ipv4.ip packetDropNoRouteFound:sum(packetBytes) 0
scalar OSPF_mininet.S1H[0].ipv4.ip packetDropUndefined:count 0
scalar OSPF_mininet.S1H[0].ipv4.ip packetDropUndefined:sum(packetBytes) 0
scalar OSPF_mininet.S1H[0].ipv4.arp arpResolutionFailed:count 12
scalar OSPF_mininet.S1H[0].ipv4.arp arpResolutionCompleted:count 1814
scalar OSPF_mininet.S1H[0].ipv4.arp arpResolutionInitiated:count 922
scalar OSPF_mininet.S1H[0].ipv4.arp arpReplySent:count 904
scalar OSPF_mininet.S1H[0].ipv4.arp arpReplySent:sum(packetBytes) 25312
scalar OSPF_mininet.S1H[0].ipv4.arp arpRequestSent:count 946
scalar OSPF_mininet.S1H[0].ipv4.arp arpRequestSent:sum(packetBytes) 26488
scalar OSPF_mininet.S1H[0].udp packetReceived:count 19020
scalar OSPF_mininet.S1H[0].udp packetReceived:sum(packetBytes) 760800
scalar OSPF_mininet.S1H[0].udp packetSent:count 19411
scalar OSPF_mininet.S1H[0].udp packetSent:sum(packetBytes) 776440
scalar OSPF_mininet.S1H[0].udp passedUpPk:count 19020
scalar OSPF_mininet.S1H[0].udp droppedPkWrongPort:count 0
scalar OSPF_mininet.S1H[0].udp droppedPkBadChecksum:count 0
scalar OSPF_mininet.S1H[0].app[0] echoedPk:count 9510
scalar OSPF_mininet.S1H[0].app[0] echoedPk:sum(packetBytes) 304320
scalar OSPF_mininet.S1H[0].app[1] "packets sent" 9901
scalar OSPF_mininet.S1H[0].app[1] "packets received" 9510
scalar OSPF_mininet.S1H[0].app[1] packetReceived:count 9510
scalar OSPF_mininet.S1H[0].app[1] packetReceived:sum(packetBytes) 304320
scalar OSPF_mininet.S1H[0].app[1] packetSent:count 9901
scalar OSPF_mininet.S1H[0].app[1] packetSent:sum(packetBytes) 316832
scalar OSPF_mininet.S1H[1].ethernet pauseSent:count 0
scalar OSPF_mininet.S1H[1].ethernet pauseSent:sum 0
scalar OSPF_mininet.S1H[1].ethernet decapPk:count 20934
scalar OSPF_mininet.S1H[1].ethernet decapPk:sum(packetBytes) 1231044
scalar OSPF_mininet.S1H[1].ethernet encapPk:count 20901
scalar OSPF_mininet.S1H[1].ethernet encapPk:sum(packetBytes) 1194860
scalar OSPF_mininet.S1H[1].lo[0].lo rcvdPkFromHl:count 0
scalar OSPF_mininet.S1H[1].lo[0].lo rcvdPkFromHl:sum(packetBytes) 0
scalar OSPF_mininet.S1H[1].lo[0].lo passedUpPk:count 0
scalar OSPF_mininet.S1H[1].lo[0].lo passedUpPk:sum(packetBytes) 0
scalar OSPF_mininet.S1H[1].lo[0] packetDropInterfaceDown:count 0
scalar OSPF_mininet.S1H[1].lo[0] packetDropInterfaceDown:sum(packetBytes) 0
scalar OSPF_mininet.S1H[1].lo[0] packetDropNoCarrier:count 0
scalar OSPF_mininet.S1H[1].lo[0] packetDropNoCarrier:sum(packetBytes) 0
scalar OSPF_mininet.S1H[1].eth[0].queue queueLength:last 0
scalar OSPF_mininet.S1H[1].eth[0].queue queueLength:max 0
scalar OSPF_mininet.S1H[1].eth[0].queue queueLength:timeavg 0
scalar OSPF_mininet.S1H[1].eth[0].queue queueBitLength:last 0
scalar OSPF_mininet.S1H[1].eth[0].queue queueBitLength:max 0
scalar OSPF_mininet.S1H[1].eth[0].queue queueBitLength:timeavg 0
scalar OSPF_mininet.S1H[1].eth[0].queue outgoingPackets:count 20901
scalar OSPF_mininet.S1H[1].eth[0].queue outgoingPacketLengths:sum 12568624
scalar OSPF_mininet.S1H[1].eth[0].queue incomingPackets:count 20901
scalar OSPF_mininet.S1H[1].eth[0].queue incomingPacketLengths:sum 12568624
scalar OSPF_mininet.S1H[1].eth[0].queue droppedPacketsQueueOverflow:count 0
scalar OSPF_mininet.S1H[1].eth[0].queue droppedPacketLengthsQueueOverflow:sum 0
scalar OSPF_mininet.S1H[1].eth[0].mac "simulated time" 1000
scalar OSPF_mininet.S1H[1].eth[0].mac full-duplex 1
scalar OSPF_mininet.S1H[1].eth[0].mac "frames/sec sent" 20.9
scalar OSPF_mininet.S1H[1].eth[0].mac "frames/sec rcvd" 20.934
scalar OSPF_mininet.S1H[1].eth[0].mac "bits/sec sent" 12834.4
scalar OSPF_mininet.S1H[1].eth[0].mac "bits/sec rcvd" 12862.848
scalar OSPF_mininet.S1H[1].eth[0].mac "rx channel idle (%)" 99.985797376
scalar OSPF_mininet.S1H[1].eth[0].mac "rx channel utilization (%)" 0.014202624
scalar OSPF_mininet.S1H[1].eth[0].mac rxPausePkUnits:count 0
scalar OSPF_mininet.S1H[1].eth[0].mac rxPausePkUnits:sum 0
scalar OSPF_mininet.S1H[1].eth[0].mac txPausePkUnits:count 0
scalar OSPF_mininet.S1H[1].eth[0].mac txPausePkUnits:sum 0
scalar OSPF_mininet.S1H[1].eth[0].mac rxPkOk:count 20934
scalar OSPF_mininet.S1H[1].eth[0].mac rxPkOk:sum(packetBytes) 1607856
scalar OSPF_mininet.S1H[1].eth[0].mac txPk:count 20900
scalar OSPF_mininet.S1H[1].eth[0].mac txPk:sum(packetBytes) 1604300
scalar OSPF_mininet.S1H[1].eth[0].mac packetReceivedFromUpper:count 20901
scalar OSPF_mininet.S1H[1].eth[0].mac packetReceivedFromUpper:sum(packetBytes) 1571078
scalar OSPF_mininet.S1H[1].eth[0].mac passedUpPk:count 20934
scalar OSPF_mininet.S1H[1].eth[0].mac passedUpPk:sum(packetBytes) 1607856
scalar OSPF_mininet.S1H[1].eth[0].mac packetDropIncorrectlyReceived:count 0
scalar OSPF_mininet.S1H[1].eth[0].mac packetDropIncorrectlyReceived:sum(packetBytes) 0
scalar OSPF_mininet.S1H[1].eth[0].mac packetDropInterfaceDown:count 0
scalar OSPF_mininet.S1H[1].eth[0].mac packetDropInterfaceDown:sum(packetBytes) 0
scalar OSPF_mininet.S1H[1].eth[0].mac packetDropNotAddressedToUs:count 0
scalar OSPF_mininet.S1H[1].eth[0].mac packetDropNotAddressedToUs:sum(packetBytes) 0
scalar OSPF_mininet.S1H[1].eth[0] packetDropInterfaceDown:count 0
scalar OSPF_mininet.S1H[1].eth[0] packetDropInterfaceDown:sum(packetBytes) 0
scalar OSPF_mininet.S1H[1].eth[0] packetDropNoCarrier:count 0
scalar OSPF_mininet.S1H[1].eth[0] packetDropNoCarrier:sum(packetBytes) 0
scalar OSPF_mininet.S1H[1].ipv4.ip packetDropAddressResolutionFailed:count 360
scalar OSPF_mininet.S1H[1].ipv4.ip packetDropAddressResolutionFailed:sum(packetBytes) 21600
scalar OSPF_mininet.S1H[1].ipv4.ip packetDropHopLimitReached:count 0
scalar OSPF_mininet.S1H[1].ipv4.ip packetDropHopLimitReached:sum(packetBytes) 0
scalar OSPF_mininet.S1H[1].ipv4.ip packetDropForwardingDisabled:count 0
scalar OSPF_mininet.S1H[1].ipv4.ip packetDropForwardingDisabled:sum(packetBytes) 0
scalar OSPF_mininet.S1H[1].ipv4.ip packetDropLifetimeExpired:count 0
scalar OSPF_mininet.S1H[1].ipv4.ip packetDropLifetimeExpired:sum(packetBytes) 0
scalar OSPF_mininet.S1H[1].ipv4.ip packetDropNoInterfaceFound:count 0
scalar OSPF_mininet.S1H[1].ipv4.ip packetDropNoInterfaceFound:sum(packetBytes) 0
scalar OSPF_mininet.S1H[1].ipv4.ip packetDropNoRouteFound:count 0
scalar OSPF_mininet.S1H[1].ipv4.ip packetDropNoRouteFound:sum(packetBytes) 0
scalar OSPF_mininet.S1H[1].ipv4.ip packetDropUndefined:count 0
scalar OSPF_mininet.S1H[1].ipv4.ip packetDropUndefined:sum(packetBytes) 0
scalar OSPF_mininet.S1H[1].ipv4.arp arpResolutionFailed:count 12
scalar OSPF_mininet.S1H[1].ipv4.arp arpResolutionCompleted:count 1814
scalar OSPF_mininet.S1H[1].ipv4.arp arpResolutionInitiated:count 922
scalar OSPF_mininet.S1H[1].ipv4.arp arpReplySent:count 904
scalar OSPF_mininet.S1H[1].ipv4.arp arpReplySent:sum(packetBytes) 25312
scalar OSPF_mininet.S1H[1].ipv4.arp arpRequestSent:count 946
scalar OSPF_mininet.S1H[1].ipv4.arp arpRequestSent:sum(packetBytes) 26488
scalar OSPF_mininet.S1H[1].udp packetReceived:count 19020
scalar OSPF_mininet.S1H[1].udp packetReceived:sum(packetBytes) 760800
scalar OSPF_mininet.S1H[1].udp packetSent:count 19411
scalar OSPF_mininet.S1H[1].udp packetSent:sum(packetBytes) 776440
scalar OSPF_mininet.S1H[1].udp passedUpPk:count 19020
scalar OSPF_mininet.S1H[1].udp droppedPkWrongPort:count 0
scalar OSPF_mininet.S1H[1].udp droppedPkBadChecksum:count 0
scalar OSPF_mininet.S1H[1].app[0] echoedPk:count 9510
scalar OSPF_mininet.S1H[1].app[0] echoedPk:sum(packetBytes) 304320
scalar OSPF_mininet.S1H[1].app[1] "packets sent" 9901
scalar OSPF_mininet.S1H[1].app[1] "packets received" 9510
scalar OSPF_mininet.S1H[1].app[1] packetReceived:count 9510
scalar OSPF_mininet.S1H[1].app[1] packetReceived:sum(packetBytes) 304320
scalar OSPF_mininet.S1H[1].app[1] packetSent:count 9901
scalar OSPF_mininet.S1H[1].app[1] packetSent:sum(packetBytes) 316832
scalar OSPF_mininet.BBRtoS2.ethernet pauseSent:count 0
scalar OSPF_mininet.BBRtoS2.ethernet pauseSent:sum 0
scalar OSPF_mininet.BBRtoS2.ethernet decapPk:count 78367
scalar OSPF_mininet.BBRtoS2.ethernet decapPk:sum(packetBytes) 4678198
scalar OSPF_mininet.BBRtoS2.ethernet encapPk:count 78353
scalar OSPF_mininet.BBRtoS2.ethernet encapPk:sum(packetBytes) 4641664
scalar OSPF_mininet.BBRtoS2.lo[0].lo rcvdPkFromHl:count 0
scalar OSPF_mininet.BBRtoS2.lo[0].lo rcvdPkFromHl:sum(packetBytes) 0
scalar OSPF_mininet.BBRtoS2.lo[0].lo passedUpPk:count 0
scalar OSPF_mininet.BBRtoS2.lo[0].lo passedUpPk:sum(packetBytes) 0
scalar OSPF_mininet.BBRtoS2.lo[0] packetDropInterfaceDown:count 0
scalar OSPF_mininet.BBRtoS2.lo[0] packetDropInterfaceDown:sum(packetBytes) 0
scalar OSPF_mininet.BBRtoS2.lo[0] packetDropNoCarrier:count 0
scalar OSPF_mininet.BBRtoS2.lo[0] packetDropNoCarrier:sum(packetBytes) 0
scalar OSPF_mininet.BBRtoS2.eth[0].queue queueLength:last 0
scalar OSPF_mininet.BBRtoS2.eth[0].queue queueLength:max 2
scalar OSPF_mininet.BBRtoS2.eth[0].queue queueLength:timeavg 3.80768e-06
scalar OSPF_mininet.BBRtoS2.eth[0].queue queueBitLength:last 0
scalar OSPF_mininet.BBRtoS2.eth[0].queue queueBitLength:max 1536
scalar OSPF_mininet.BBRtoS2.eth[0].queue queueBitLength:timeavg 0.00237924608
scalar OSPF_mininet.BBRtoS2.eth[0].queue outgoingPackets:count 39168
scalar OSPF_mininet.BBRtoS2.eth[0].queue outgoingPacketLengths:sum 24211008
scalar OSPF_mininet.BBRtoS2.eth[0].queue incomingPackets:count 39168
scalar OSPF_mininet.BBRtoS2.eth[0].queue incomingPacketLengths:sum 24211008
scalar OSPF_mininet.BBRtoS2.eth[0].queue droppedPacketsQueueOverflow:count 0
scalar OSPF_mininet.BBRtoS2.eth[0].queue droppedPacketLengthsQueueOverflow:sum 0
scalar OSPF_mininet.BBRtoS2.eth[0].mac "simulated time" 1000
scalar OSPF_mininet.BBRtoS2.eth[0].mac full-duplex 1
scalar OSPF_mininet.BBRtoS2.eth[0].mac "frames/sec sent" 39.168
scalar OSPF_mininet.BBRtoS2.eth[0].mac "frames/sec rcvd" 39.111
scalar OSPF_mininet.BBRtoS2.eth[0].mac "bits/sec sent" 24346.08
scalar OSPF_mininet.BBRtoS2.eth[0].mac "bits/sec rcvd" 24312.24
scalar OSPF_mininet.BBRtoS2.eth[0].mac "rx channel idle (%)" 99.973184656
scalar OSPF_mininet.BBRtoS2.eth[0].mac "rx channel utilization (%)" 0.026815344
scalar OSPF_mininet.BBRtoS2.eth[0].mac rxPausePkUnits:count 0
scalar OSPF_mininet.BBRtoS2.eth[0].mac rxPausePkUnits:sum 0
scalar OSPF_mininet.BBRtoS2.eth[0].mac txPausePkUnits:count 0
scalar OSPF_mininet.BBRtoS2.eth[0].mac txPausePkUnits:sum 0
scalar OSPF_mininet.BBRtoS2.eth[0].mac rxPkOk:count 39111
scalar OSPF_mininet.BBRtoS2.eth[0].mac rxPkOk:sum(packetBytes) 3039030
scalar OSPF_mininet.BBRtoS2.eth[0].mac txPk:count 39168
scalar OSPF_mininet.BBRtoS2.eth[0].mac txPk:sum(packetBytes) 3043260
scalar OSPF_mininet.BBRtoS2.eth[0].mac packetReceivedFromUpper:count 39168
scalar OSPF_mininet.BBRtoS2.eth[0].mac packetReceivedFromUpper:sum(packetBytes) 3026376
scalar OSPF_mininet.BBRtoS2.eth[0].mac passedUpPk:count 39111
scalar OSPF_mininet.BBRtoS2.eth[0].mac passedUpPk:sum(packetBytes) 3039030
scalar OSPF_mininet.BBRtoS2.eth[0].mac packetDropIncorrectlyReceived:count 0
scalar OSPF_mininet.BBRtoS2.eth[0].mac packetDropIncorrectlyReceived:sum(packetBytes) 0
scalar OSPF_mininet.BBRtoS2.eth[0].mac packetDropInterfaceDown:count 0
scalar OSPF_mininet.BBRtoS2.eth[0].mac packetDropInterfaceDown:sum(packetBytes) 0
scalar OSPF_mininet.BBRtoS2.eth[0].mac packetDropNotAddressedToUs:count 0
scalar OSPF_mininet.BBRtoS2.eth[0].mac packetDropNotAddressedToUs:sum(packetBytes) 0
scalar OSPF_mininet.BBRtoS2.eth[0] packetDropInterfaceDown:count 0
scalar OSPF_mininet.BBRtoS2.eth[0] packetDropInterfaceDown:sum(packetBytes) 0
scalar OSPF_mininet.BBRtoS2.eth[0] packetDropNoCarrier:count 0
scalar OSPF_mininet.BBRtoS2.eth[0] packetDropNoCarrier:sum(packetBytes) 0
scalar OSPF_mininet.BBRtoS2.eth[1].queue queueLength:last 0
scalar OSPF_mininet.BBRtoS2.eth[1].queue queueLength:max 2
scalar OSPF_mininet.BBRtoS2.eth[1].queue queueLength:timeavg 4.69222e-06
scalar OSPF_mininet.BBRtoS2.eth[1].queue queueBitLength:last 0
scalar OSPF_mininet.BBRtoS2.eth[1].queue queueBitLength:max 1600
scalar OSPF_mininet.BBRtoS2.eth[1].queue queueBitLength:timeavg 0.00264251552
scalar OSPF_mininet.BBRtoS2.eth[1].queue outgoingPackets:count 39185
scalar OSPF_mininet.BBRtoS2.eth[1].queue outgoingPacketLengths:sum 24205136
scalar OSPF_mininet.BBRtoS2.eth[1].queue incomingPackets:count 39185
scalar OSPF_mininet.BBRtoS2.eth[1].queue incomingPacketLengths:sum 24205136
scalar OSPF_mininet.BBRtoS2.eth[1].queue droppedPacketsQueueOverflow:count 0
scalar OSPF_mininet.BBRtoS2.eth[1].queue droppedPacketLengthsQueueOverflow:sum 0
scalar OSPF_mininet.BBRtoS2.eth[1].mac "simulated time" 1000
scalar OSPF_mininet.BBRtoS2.eth[1].mac full-duplex 1
scalar OSPF_mininet.BBRtoS2.eth[1].mac "frames/sec sent" 39.185
scalar OSPF_mininet.BBRtoS2.eth[1].mac "frames/sec rcvd" 39.256
scalar OSPF_mininet.BBRtoS2.eth[1].mac "bits/sec sent" 24350.72
scalar OSPF_mininet.BBRtoS2.eth[1].mac "bits/sec rcvd" 24398.192
scalar OSPF_mininet.BBRtoS2.eth[1].mac "rx channel idle (%)" 99.973089424
scalar OSPF_mininet.BBRtoS2.eth[1].mac "rx channel utilization (%)" 0.026910576
scalar OSPF_mininet.BBRtoS2.eth[1].mac rxPausePkUnits:count 0
scalar OSPF_mininet.BBRtoS2.eth[1].mac rxPausePkUnits:sum 0
scalar OSPF_mininet.BBRtoS2.eth[1].mac txPausePkUnits:count 0
scalar OSPF_mininet.BBRtoS2.eth[1].mac txPausePkUnits:sum 0
scalar OSPF_mininet.BBRtoS2.eth[1].mac rxPkOk:count 39256
scalar OSPF_mininet.BBRtoS2.eth[1].mac rxPkOk:sum(packetBytes) 3049774
scalar OSPF_mininet.BBRtoS2.eth[1].mac txPk:count 39185
scalar OSPF_mininet.BBRtoS2.eth[1].mac txPk:sum(packetBytes) 3043840
scalar OSPF_mininet.BBRtoS2.eth[1].mac packetReceivedFromUpper:count 39185
scalar OSPF_mininet.BBRtoS2.eth[1].mac packetReceivedFromUpper:sum(packetBytes) 3025642
scalar OSPF_mininet.BBRtoS2.eth[1].mac passedUpPk:count 39256
scalar OSPF_mininet.BBRtoS2.eth[1].mac passedUpPk:sum(packetBytes) 3049774
scalar OSPF_mininet.BBRtoS2.eth[1].mac packetDropIncorrectlyReceived:count 0
scalar OSPF_mininet.BBRtoS2.eth[1].mac packetDropIncorrectlyReceived:sum(packetBytes) 0
scalar OSPF_mininet.BBRtoS2.eth[1].mac packetDropInterfaceDown:count 0
scalar OSPF_mininet.BBRtoS2.eth[1].mac packetDropInterfaceDown:sum(packetBytes) 0
scalar OSPF_mininet.BBRtoS2.eth[1].mac packetDropNotAddressedToUs:count 0
scalar OSPF_mininet.BBRtoS2.eth[1].mac packetDropNotAddressedToUs:sum(packetBytes) 0
scalar OSPF_mininet.BBRtoS2.eth[1] packetDropInterfaceDown:count 0
scalar OSPF_mininet.BBRtoS2.eth[1] packetDropInterfaceDown:sum(packetBytes) 0
scalar OSPF_mininet.BBRtoS2.eth[1] packetDropNoCarrier:count 0
scalar OSPF_mininet.BBRtoS2.eth[1] packetDropNoCarrier:sum(packetBytes) 0
scalar OSPF_mininet.BBRtoS2.ipv4.ip packetDropAddressResolutionFailed:count 0
scalar OSPF_mininet.BBRtoS2.ipv4.ip packetDropAddressResolutionFailed:sum(packetBytes) 0
scalar OSPF_mininet.BBRtoS2.ipv4.ip packetDropHopLimitReached:count 0
scalar OSPF_mininet.BBRtoS2.ipv4.ip packetDropHopLimitReached:sum(packetBytes) 0
scalar OSPF_mininet.BBRtoS2.ipv4.ip packetDropForwardingDisabled:count 0
scalar OSPF_mininet.BBRtoS2.ipv4.ip packetDropForwardingDisabled:sum(packetBytes) 0
scalar OSPF_mininet.BBRtoS2.ipv4.ip packetDropLifetimeExpired:count 0
scalar OSPF_mininet.BBRtoS2.ipv4.ip packetDropLifetimeExpired:sum(packetBytes) 0
scalar OSPF_mininet.BBRtoS2.ipv4.ip packetDropNoInterfaceFound:count 0
scalar OSPF_mininet.BBRtoS2.ipv4.ip packetDropNoInterfaceFound:sum(packetBytes) 0
scalar OSPF_mininet.BBRtoS2.ipv4.ip packetDropNoRouteFound:count 0
scalar OSPF_mininet.BBRtoS2.ipv4.ip packetDropNoRouteFound:sum(packetBytes) 0
scalar OSPF_mininet.BBRtoS2.ipv4.ip packetDropUndefined:count 0
scalar OSPF_mininet.BBRtoS2.ipv4.ip packetDropUndefined:sum(packetBytes) 0
scalar OSPF_mininet.BBRtoS2.ipv4.arp arpResolutionFailed:count 0
scalar OSPF_mininet.BBRtoS2.ipv4.arp arpResolutionCompleted:count 1949
scalar OSPF_mininet.BBRtoS2.ipv4.arp arpResolutionInitiated:count 918
scalar OSPF_mininet.BBRtoS2.ipv4.arp arpReplySent:count 1031
scalar OSPF_mininet.BBRtoS2.ipv4.arp arpReplySent:sum(packetBytes) 28868
scalar OSPF_mininet.BBRtoS2.ipv4.arp arpRequestSent:count 918
scalar OSPF_mininet.BBRtoS2.ipv4.arp arpRequestSent:sum(packetBytes) 25704
scalar OSPF_mininet.S2R[0].ethernet pauseSent:count 0
scalar OSPF_mininet.S2R[0].ethernet pauseSent:sum 0
scalar OSPF_mininet.S2R[0].ethernet decapPk:count 78272
scalar OSPF_mininet.S2R[0].ethernet decapPk:sum(packetBytes) 4672750
scalar OSPF_mininet.S2R[0].ethernet encapPk:count 78279
scalar OSPF_mininet.S2R[0].ethernet encapPk:sum(packetBytes) 4639760
scalar OSPF_mininet.S2R[0].lo[0].lo rcvdPkFromHl:count 0
scalar OSPF_mininet.S2R[0].lo[0].lo rcvdPkFromHl:sum(packetBytes) 0
scalar OSPF_mininet.S2R[0].lo[0].lo passedUpPk:count 0
scalar OSPF_mininet.S2R[0].lo[0].lo passedUpPk:sum(packetBytes) 0
scalar OSPF_mininet.S2R[0].lo[0] packetDropInterfaceDown:count 0
scalar OSPF_mininet.S2R[0].lo[0] packetDropInterfaceDown:sum(packetBytes) 0
scalar OSPF_mininet.S2R[0].lo[0] packetDropNoCarrier:count 0
scalar OSPF_mininet.S2R[0].lo[0] packetDropNoCarrier:sum(packetBytes) 0
scalar OSPF_mininet.S2R[0].eth[0].queue queueLength:last 0
scalar OSPF_mininet.S2R[0].eth[0].queue queueLength:max 2
scalar OSPF_mininet.S2R[0].eth[0].queue queueLength:timeavg 2.09416e-06
scalar OSPF_mininet.S2R[0].eth[0].queue queueBitLength:last 0
scalar OSPF_mininet.S2R[0].eth[0].queue queueBitLength:max 1920
scalar OSPF_mininet.S2R[0].eth[0].queue queueBitLength:timeavg 0.00131725952
scalar OSPF_mininet.S2R[0].eth[0].queue outgoingPackets:count 39111
scalar OSPF_mininet.S2R[0].eth[0].queue outgoingPacketLengths:sum 24177168
scalar OSPF_mininet.S2R[0].eth[0].queue incomingPackets:count 39111
scalar OSPF_mininet.S2R[0].eth[0].queue incomingPacketLengths:sum 24177168
scalar OSPF_mininet.S2R[0].eth[0].queue droppedPacketsQueueOverflow:count 0
scalar OSPF_mininet.S2R[0].eth[0].queue droppedPacketLengthsQueueOverflow:sum 0
scalar OSPF_mininet.S2R[0].eth[0].mac "simulated time" 1000
scalar OSPF_mininet.S2R[0].eth[0].mac full-duplex 1
scalar OSPF_mininet.S2R[0].eth[0].mac "frames/sec sent" 39.111
scalar OSPF_mininet.S2R[0].eth[0].mac "frames/sec rcvd" 39.168
scalar OSPF_mininet.S2R[0].eth[0].mac "bits/sec sent" 24312.24
scalar OSPF_mininet.S2R[0].eth[0].mac "bits/sec rcvd" 24346.08
scalar OSPF_mininet.S2R[0].eth[0].mac "rx channel idle (%)" 99.973147168
scalar OSPF_mininet.S2R[0].eth[0].mac "rx channel utilization (%)" 0.026852832
scalar OSPF_mininet.S2R[0].eth[0].mac rxPausePkUnits:count 0
scalar OSPF_mininet.S2R[0].eth[0].mac rxPausePkUnits:sum 0
scalar OSPF_mininet.S2R[0].eth[0].mac txPausePkUnits:count 0
scalar OSPF_mininet.S2R[0].eth[0].mac txPausePkUnits:sum 0
scalar OSPF_mininet.S2R[0].eth[0].mac rxPkOk:count 39168
scalar OSPF_mininet.S2R[0].eth[0].mac rxPkOk:sum(packetBytes) 3043260
scalar OSPF_mininet.S2R[0].eth[0].mac txPk:count 39111
scalar OSPF_mininet.S2R[0].eth[0].mac txPk:sum(packetBytes) 3039030
scalar OSPF_mininet.S2R[0].eth[0].mac packetReceivedFromUpper:count 39111
scalar OSPF_mininet.S2R[0].eth[0].mac packetReceivedFromUpper:sum(packetBytes) 3022146
scalar OSPF_mininet.S2R[0].eth[0].mac passedUpPk:count 39168
scalar OSPF_mininet.S2R[0].eth[0].mac passedUpPk:sum(packetBytes) 3043260
scalar OSPF_mininet.S2R[0].eth[0].mac packetDropIncorrectlyReceived:count 0
scalar OSPF_mininet.S2R[0].eth[0].mac packetDropIncorrectlyReceived:sum(packetBytes) 0
scalar OSPF_mininet.S2R[0].eth[0].mac packetDropInterfaceDown:count 0
scalar OSPF_mininet.S2R[0].eth[0].mac packetDropInterfaceDown:sum(packetBytes) 0
scalar OSPF_mininet.S2R[0].eth[0].mac packetDropNotAddressedToUs:count 0
scalar OSPF_mininet.S2R[0].eth[0].mac packetDropNotAddressedToUs:sum(packetBytes) 0
scalar OSPF_mininet.S2R[0].eth[0] packetDropInterfaceDown:count 0
scalar OSPF_mininet.S2R[0].eth[0] packetDropInterfaceDown:sum(packetBytes) 0
scalar OSPF_mininet.S2R[0].eth[0] packetDropNoCarrier:count 0
scalar OSPF_mininet.S2R[0].eth[0] packetDropNoCarrier:sum(packetBytes) 0
scalar OSPF_mininet.S2R[0].eth[1].queue queueLength:last 0
scalar OSPF_mininet.S2R[0].eth[1].queue queueLength:max 2
scalar OSPF_mininet.S2R[0].eth[1].queue queueLength:timeavg 4.44216e-06
scalar OSPF_mininet.S2R[0].eth[1].queue queueBitLength:last 0
scalar OSPF_mininet.S2R[0].eth[1].queue queueBitLength:max 1824
scalar OSPF_mininet.S2R[0].eth[1].queue queueBitLength:timeavg 0.0027892416
scalar OSPF_mininet.S2R[0].eth[1].queue outgoingPackets:count 39168
scalar OSPF_mininet.S2R[0].eth[1].queue outgoingPacketLengths:sum 24213088
scalar OSPF_mininet.S2R[0].eth[1].queue incomingPackets:count 39168
scalar OSPF_mininet.S2R[0].eth[1].queue incomingPacketLengths:sum 24213088
scalar OSPF_mininet.S2R[0].eth[1].queue droppedPacketsQueueOverflow:count 0
scalar OSPF_mininet.S2R[0].eth[1].queue droppedPacketLengthsQueueOverflow:sum 0
scalar OSPF_mininet.S2R[0].eth[1].mac "simulated time" 1000
scalar OSPF_mininet.S2R[0].eth[1].mac full-duplex 1
scalar OSPF_mininet.S2R[0].eth[1].mac "frames/sec sent" 39.168
scalar OSPF_mininet.S2R[0].eth[1].mac "frames/sec rcvd" 39.104
scalar OSPF_mininet.S2R[0].eth[1].mac "bits/sec sent" 24348.016
scalar OSPF_mininet.S2R[0].eth[1].mac "bits/sec rcvd" 24307.088
scalar OSPF_mininet.S2R[0].eth[1].mac "rx channel idle (%)" 99.973190256
scalar OSPF_mininet.S2R[0].eth[1].mac "rx channel utilization (%)" 0.026809744
scalar OSPF_mininet.S2R[0].eth[1].mac rxPausePkUnits:count 0
scalar OSPF_mininet.S2R[0].eth[1].mac rxPausePkUnits:sum 0
scalar OSPF_mininet.S2R[0].eth[1].mac txPausePkUnits:count 0
scalar OSPF_mininet.S2R[0].eth[1].mac txPausePkUnits:sum 0
scalar OSPF_mininet.S2R[0].eth[1].mac rxPkOk:count 39104
scalar OSPF_mininet.S2R[0].eth[1].mac rxPkOk:sum(packetBytes) 3038386
scalar OSPF_mininet.S2R[0].eth[1].mac txPk:count 39168
scalar OSPF_mininet.S2R[0].eth[1].mac txPk:sum(packetBytes) 3043502
scalar OSPF_mininet.S2R[0].eth[1].mac packetReceivedFromUpper:count 39168
scalar OSPF_mininet.S2R[0].eth[1].mac packetReceivedFromUpper:sum(packetBytes) 3026636
scalar OSPF_mininet.S2R[0].eth[1].mac passedUpPk:count 39104
scalar OSPF_mininet.S2R[0].eth[1].mac passedUpPk:sum(packetBytes) 3038386
scalar OSPF_mininet.S2R[0].eth[1].mac packetDropIncorrectlyReceived:count 0
scalar OSPF_mininet.S2R[0].eth[1].mac packetDropIncorrectlyReceived:sum(packetBytes) 0
scalar OSPF_mininet.S2R[0].eth[1].mac packetDropInterfaceDown:count 0
scalar OSPF_mininet.S2R[0].eth[1].mac packetDropInterfaceDown:sum(packetBytes) 0
scalar OSPF_mininet.S2R[0].eth[1].mac packetDropNotAddressedToUs:count 0
scalar OSPF_mininet.S2R[0].eth[1].mac packetDropNotAddressedToUs:sum(packetBytes) 0
scalar OSPF_mininet.S2R[0].eth[1] packetDropInterfaceDown:count 0
scalar OSPF_mininet.S2R[0].eth[1] packetDropInterfaceDown:sum(packetBytes) 0
scalar OSPF_mininet.S2R[0].eth[1] packetDropNoCarrier:count 0
scalar OSPF_mininet.S2R[0].eth[1] packetDropNoCarrier:sum(packetBytes) 0
scalar OSPF_mininet.S2R[0].ipv4.ip packetDropAddressResolutionFailed:count 0
scalar OSPF_mininet.S2R[0].ipv4.ip packetDropAddressResolutionFailed:sum(packetBytes) 0
scalar OSPF_mininet.S2R[0].ipv4.ip packetDropHopLimitReached:count 0
scalar OSPF_mininet.S2R[0].ipv4.ip packetDropHopLimitReached:sum(packetBytes) 0
scalar OSPF_mininet.S2R[0].ipv4.ip packetDropForwardingDisabled:count 0
scalar OSPF_mininet.S2R[0].ipv4.ip packetDropForwardingDisabled:sum(packetBytes) 0
scalar OSPF_mininet.S2R[0].ipv4.ip packetDropLifetimeExpired:count 0
scalar OSPF_mininet.S2R[0].ipv4.ip packetDropLifetimeExpired:sum(packetBytes) 0
scalar OSPF_mininet.S2R[0].ipv4.ip packetDropNoInterfaceFound:count 0
scalar OSPF_mininet.S2R[0].ipv4.ip packetDropNoInterfaceFound:sum(packetBytes) 0
scalar OSPF_mininet.S2R[0].ipv4.ip packetDropNoRouteFound:count 0
scalar OSPF_mininet.S2R[0].ipv4.ip packetDropNoRouteFound:sum(packetBytes) 0
scalar OSPF_mininet.S2R[0].ipv4.ip packetDropUndefined:count 0
scalar OSPF_mininet.S2R[0].ipv4.ip packetDropUndefined:sum(packetBytes) 0
scalar OSPF_mininet.S2R[0].ipv4.arp arpResolutionFailed:count 0
scalar OSPF_mininet.S2R[0].ipv4.arp arpResolutionCompleted:count 1875
scalar OSPF_mininet.S2R[0].ipv4.arp arpResolutionInitiated:count 1043
scalar OSPF_mininet.S2R[0].ipv4.arp arpReplySent:count 832
scalar OSPF_mininet.S2R[0].ipv4.arp arpReplySent:sum(packetBytes) 23296
scalar OSPF_mininet.S2R[0].ipv4.arp arpRequestSent:count 1043
scalar OSPF_mininet.S2R[0].ipv4.arp arpRequestSent:sum(packetBytes) 29204
scalar OSPF_mininet.S2R[1].ethernet pauseSent:count 0
scalar OSPF_mininet.S2R[1].ethernet pauseSent:sum 0
scalar OSPF_mininet.S2R[1].ethernet decapPk:count 80910
scalar OSPF_mininet.S2R[1].ethernet decapPk:sum(packetBytes) 4791170
scalar OSPF_mininet.S2R[1].ethernet encapPk:count 81024
scalar OSPF_mininet.S2R[1].ethernet encapPk:sum(packetBytes) 4717808
scalar OSPF_mininet.S2R[1].lo[0].lo rcvdPkFromHl:count 0
scalar OSPF_mininet.S2R[1].lo[0].lo rcvdPkFromHl:sum(packetBytes) 0
scalar OSPF_mininet.S2R[1].lo[0].lo passedUpPk:count 0
scalar OSPF_mininet.S2R[1].lo[0].lo passedUpPk:sum(packetBytes) 0
scalar OSPF_mininet.S2R[1].lo[0] packetDropInterfaceDown:count 0
scalar OSPF_mininet.S2R[1].lo[0] packetDropInterfaceDown:sum(packetBytes) 0
scalar OSPF_mininet.S2R[1].lo[0] packetDropNoCarrier:count 0
scalar OSPF_mininet.S2R[1].lo[0] packetDropNoCarrier:sum(packetBytes) 0
scalar OSPF_mininet.S2R[1].eth[0].queue queueLength:last 0
scalar OSPF_mininet.S2R[1].eth[0].queue queueLength:max 42
scalar OSPF_mininet.S2R[1].eth[0].queue queueLength:timeavg 8.2151039999993e-05
scalar OSPF_mininet.S2R[1].eth[0].queue queueBitLength:last 0
scalar OSPF_mininet.S2R[1].eth[0].queue queueBitLength:max 26208
scalar OSPF_mininet.S2R[1].eth[0].queue queueBitLength:timeavg 0.051285491199992
scalar OSPF_mininet.S2R[1].eth[0].queue outgoingPackets:count 39104
scalar OSPF_mininet.S2R[1].eth[0].queue outgoingPacketLengths:sum 24172160
scalar OSPF_mininet.S2R[1].eth[0].queue incomingPackets:count 39104
scalar OSPF_mininet.S2R[1].eth[0].queue incomingPacketLengths:sum 24172160
scalar OSPF_mininet.S2R[1].eth[0].queue droppedPacketsQueueOverflow:count 0
scalar OSPF_mininet.S2R[1].eth[0].queue droppedPacketLengthsQueueOverflow:sum 0
scalar OSPF_mininet.S2R[1].eth[0].mac "simulated time" 1000
scalar OSPF_mininet.S2R[1].eth[0].mac full-duplex 1
scalar OSPF_mininet.S2R[1].eth[0].mac "frames/sec sent" 39.104
scalar OSPF_mininet.S2R[1].eth[0].mac "frames/sec rcvd" 39.168
scalar OSPF_mininet.S2R[1].eth[0].mac "bits/sec sent" 24307.088
scalar OSPF_mininet.S2R[1].eth[0].mac "bits/sec rcvd" 24348.016
scalar OSPF_mininet.S2R[1].eth[0].mac "rx channel idle (%)" 99.973145232
scalar OSPF_mininet.S2R[1].eth[0].mac "rx channel utilization (%)" 0.026854768
scalar OSPF_mininet.S2R[1].eth[0].mac rxPausePkUnits:count 0
scalar OSPF_mininet.S2R[1].eth[0].mac rxPausePkUnits:sum 0
scalar OSPF_mininet.S2R[1].eth[0].mac txPausePkUnits:count 0
scalar OSPF_mininet.S2R[1].eth[0].mac txPausePkUnits:sum 0
scalar OSPF_mininet.S2R[1].eth[0].mac rxPkOk:count 39168
scalar OSPF_mininet.S2R[1].eth[0].mac rxPkOk:sum(packetBytes) 3043502
scalar OSPF_mininet.S2R[1].eth[0].mac txPk:count 39104
scalar OSPF_mininet.S2R[1].eth[0].mac txPk:sum(packetBytes) 3038386
scalar OSPF_mininet.S2R[1].eth[0].mac packetReceivedFromUpper:count 39104
scalar OSPF_mininet.S2R[1].eth[0].mac packetReceivedFromUpper:sum(packetBytes) 3021520
scalar OSPF_mininet.S2R[1].eth[0].mac passedUpPk:count 39168
scalar OSPF_mininet.S2R[1].eth[0].mac passedUpPk:sum(packetBytes) 3043502
scalar OSPF_mininet.S2R[1].eth[0].mac packetDropIncorrectlyReceived:count 0
scalar OSPF_mininet.S2R[1].eth[0].mac packetDropIncorrectlyReceived:sum(packetBytes) 0
scalar OSPF_mininet.S2R[1].eth[0].mac packetDropInterfaceDown:count 0
scalar OSPF_mininet.S2R[1].eth[0].mac packetDropInterfaceDown:sum(packetBytes) 0
scalar OSPF_mininet.S2R[1].eth[0].mac packetDropNotAddressedToUs:count 0
scalar OSPF_mininet.S2R[1].eth[0].mac packetDropNotAddressedToUs:sum(packetBytes) 0
scalar OSPF_mininet.S2R[1].eth[0] packetDropInterfaceDown:count 0
scalar OSPF_mininet.S2R[1].eth[0] packetDropInterfaceDown:sum(packetBytes) 0
scalar OSPF_mininet.S2R[1].eth[0] packetDropNoCarrier:count 0
scalar OSPF_mininet.S2R[1].eth[0] packetDropNoCarrier:sum(packetBytes) 0
scalar OSPF_mininet.S2R[1].eth[1].queue queueLength:last 0
scalar OSPF_mininet.S2R[1].eth[1].queue queueLength:max 1
scalar OSPF_mininet.S2R[1].eth[1].queue queueLength:timeavg 6.878e-08
scalar OSPF_mininet.S2R[1].eth[1].queue queueBitLength:last 0
scalar OSPF_mininet.S2R[1].eth[1].queue queueBitLength:max 624
scalar OSPF_mininet.S2R[1].eth[1].queue queueBitLength:timeavg 4.291872e-05
scalar OSPF_mininet.S2R[1].eth[1].queue outgoingPackets:count 20960
scalar OSPF_mininet.S2R[1].eth[1].queue outgoingPacketLengths:sum 12618880
scalar OSPF_mininet.S2R[1].eth[1].queue incomingPackets:count 20960
scalar OSPF_mininet.S2R[1].eth[1].queue incomingPacketLengths:sum 12618880
scalar OSPF_mininet.S2R[1].eth[1].queue droppedPacketsQueueOverflow:count 0
scalar OSPF_mininet.S2R[1].eth[1].queue droppedPacketLengthsQueueOverflow:sum 0
scalar OSPF_mininet.S2R[1].eth[1].mac "simulated time" 1000
scalar OSPF_mininet.S2R[1].eth[1].mac full-duplex 1
scalar OSPF_mininet.S2R[1].eth[1].mac "frames/sec sent" 20.96
scalar OSPF_mininet.S2R[1].eth[1].mac "frames/sec rcvd" 20.871
scalar OSPF_mininet.S2R[1].eth[1].mac "bits/sec sent" 12879.52
scalar OSPF_mininet.S2R[1].eth[1].mac "bits/sec rcvd" 12816.192
scalar OSPF_mininet.S2R[1].eth[1].mac "rx channel idle (%)" 99.985848064
scalar OSPF_mininet.S2R[1].eth[1].mac "rx channel utilization (%)" 0.014151936
scalar OSPF_mininet.S2R[1].eth[1].mac rxPausePkUnits:count 0
scalar OSPF_mininet.S2R[1].eth[1].mac rxPausePkUnits:sum 0
scalar OSPF_mininet.S2R[1].eth[1].mac txPausePkUnits:count 0
scalar OSPF_mininet.S2R[1].eth[1].mac txPausePkUnits:sum 0
scalar OSPF_mininet.S2R[1].eth[1].mac rxPkOk:count 20871
scalar OSPF_mininet.S2R[1].eth[1].mac rxPkOk:sum(packetBytes) 1602024
scalar OSPF_mininet.S2R[1].eth[1].mac txPk:count 20960
[...]
scalar OSPF_mininet.S2H[1].eth[0].mac rxPausePkUnits:vector:sumweights 0
scalar OSPF_mininet.S2H[1].eth[0].mac rxPausePkUnits:vector:mean -nan
scalar OSPF_mininet.S2H[1].eth[0].mac rxPausePkUnits:vector:stddev nan
scalar OSPF_mininet.S2H[1].eth[0].mac rxPausePkUnits:vector:min inf
scalar OSPF_mininet.S2H[1].eth[0].mac rxPausePkUnits:vector:max -inf
scalar OSPF_mininet.S2H[1].eth[0].mac rxPausePkUnits:vector:starttime nan
scalar OSPF_mininet.S2H[1].eth[0].mac rxPausePkUnits:vector:endtime nan
scalar OSPF_mininet.S2H[1].eth[0].mac packetReceivedFromUpper:vector(packetBytes):count 20872
scalar OSPF_mininet.S2H[1].eth[0].mac packetReceivedFromUpper:vector(packetBytes):sum 1568784
scalar OSPF_mininet.S2H[1].eth[0].mac packetReceivedFromUpper:vector(packetBytes):sumweights 20872
scalar OSPF_mininet.S2H[1].eth[0].mac packetReceivedFromUpper:vector(packetBytes):mean 75.162131084707
scalar OSPF_mininet.S2H[1].eth[0].mac packetReceivedFromUpper:vector(packetBytes):stddev 9.0973771241229
scalar OSPF_mininet.S2H[1].eth[0].mac packetReceivedFromUpper:vector(packetBytes):min 46
scalar OSPF_mininet.S2H[1].eth[0].mac packetReceivedFromUpper:vector(packetBytes):max 78
scalar OSPF_mininet.S2H[1].eth[0].mac packetReceivedFromUpper:vector(packetBytes):starttime 10
scalar OSPF_mininet.S2H[1].eth[0].mac packetReceivedFromUpper:vector(packetBytes):endtime 1000
scalar OSPF_mininet.S2H[1].eth[0].mac packetDropIncorrectlyReceived:vector(packetBytes):count 0
scalar OSPF_mininet.S2H[1].eth[0].mac packetDropIncorrectlyReceived:vector(packetBytes):sum 0
scalar OSPF_mininet.S2H[1].eth[0].mac packetDropIncorrectlyReceived:vector(packetBytes):sumweights 0
scalar OSPF_mininet.S2H[1].eth[0].mac packetDropIncorrectlyReceived:vector(packetBytes):mean -nan
scalar OSPF_mininet.S2H[1].eth[0].mac packetDropIncorrectlyReceived:vector(packetBytes):stddev nan
scalar OSPF_mininet.S2H[1].eth[0].mac packetDropIncorrectlyReceived:vector(packetBytes):min inf
scalar OSPF_mininet.S2H[1].eth[0].mac packetDropIncorrectlyReceived:vector(packetBytes):max -inf
scalar OSPF_mininet.S2H[1].eth[0].mac packetDropIncorrectlyReceived:vector(packetBytes):starttime nan
scalar OSPF_mininet.S2H[1].eth[0].mac packetDropIncorrectlyReceived:vector(packetBytes):endtime nan
scalar OSPF_mininet.S2H[1].eth[0].mac packetDropInterfaceDown:vector(packetBytes):count 0
scalar OSPF_mininet.S2H[1].eth[0].mac packetDropInterfaceDown:vector(packetBytes):sum 0
scalar OSPF_mininet.S2H[1].eth[0].mac packetDropInterfaceDown:vector(packetBytes):sumweights 0
scalar OSPF_mininet.S2H[1].eth[0].mac packetDropInterfaceDown:vector(packetBytes):mean -nan
scalar OSPF_mininet.S2H[1].eth[0].mac packetDropInterfaceDown:vector(packetBytes):stddev nan
scalar OSPF_mininet.S2H[1].eth[0].mac packetDropInterfaceDown:vector(packetBytes):min inf
scalar OSPF_mininet.S2H[1].eth[0].mac packetDropInterfaceDown:vector(packetBytes):max -inf
scalar OSPF_mininet.S2H[1].eth[0].mac packetDropInterfaceDown:vector(packetBytes):starttime nan
scalar OSPF_mininet.S2H[1].eth[0].mac packetDropInterfaceDown:vector(packetBytes):endtime nan
scalar OSPF_mininet.S2H[1].eth[0].mac packetDropNotAddressedToUs:vector(packetBytes):count 0
scalar OSPF_mininet.S2H[1].eth[0].mac packetDropNotAddressedToUs:vector(packetBytes):sum 0
scalar OSPF_mininet.S2H[1].eth[0].mac packetDropNotAddressedToUs:vector(packetBytes):sumweights 0
scalar OSPF_mininet.S2H[1].eth[0].mac packetDropNotAddressedToUs:vector(packetBytes):mean -nan
scalar OSPF_mininet.S2H[1].eth[0].mac packetDropNotAddressedToUs:vector(packetBytes):stddev nan
scalar OSPF_mininet.S2H[1].eth[0].mac packetDropNotAddressedToUs:vector(packetBytes):min inf
scalar OSPF_mininet.S2H[1].eth[0].mac packetDropNotAddressedToUs:vector(packetBytes):max -inf
scalar OSPF_mininet.S2H[1].eth[0].mac packetDropNotAddressedToUs:vector(packetBytes):starttime nan
scalar OSPF_mininet.S2H[1].eth[0].mac packetDropNotAddressedToUs:vector(packetBytes):endtime nan
scalar OSPF_mininet.S2H[1].eth[0] packetDropInterfaceDown:vector(packetBytes):count 0
scalar OSPF_mininet.S2H[1].eth[0] packetDropInterfaceDown:vector(packetBytes):sum 0
scalar OSPF_mininet.S2H[1].eth[0] packetDropInterfaceDown:vector(packetBytes):sumweights 0
scalar OSPF_mininet.S2H[1].eth[0] packetDropInterfaceDown:vector(packetBytes):mean -nan
scalar OSPF_mininet.S2H[1].eth[0] packetDropInterfaceDown:vector(packetBytes):stddev nan
scalar OSPF_mininet.S2H[1].eth[0] packetDropInterfaceDown:vector(packetBytes):min inf
scalar OSPF_mininet.S2H[1].eth[0] packetDropInterfaceDown:vector(packetBytes):max -inf
scalar OSPF_mininet.S2H[1].eth[0] packetDropInterfaceDown:vector(packetBytes):starttime nan
scalar OSPF_mininet.S2H[1].eth[0] packetDropInterfaceDown:vector(packetBytes):endtime nan
scalar OSPF_mininet.S2H[1].eth[0] packetDropNoCarrier:vector(packetBytes):count 0
scalar OSPF_mininet.S2H[1].eth[0] packetDropNoCarrier:vector(packetBytes):sum 0
scalar OSPF_mininet.S2H[1].eth[0] packetDropNoCarrier:vector(packetBytes):sumweights 0
scalar OSPF_mininet.S2H[1].eth[0] packetDropNoCarrier:vector(packetBytes):mean -nan
scalar OSPF_mininet.S2H[1].eth[0] packetDropNoCarrier:vector(packetBytes):stddev nan
scalar OSPF_mininet.S2H[1].eth[0] packetDropNoCarrier:vector(packetBytes):min inf
scalar OSPF_mininet.S2H[1].eth[0] packetDropNoCarrier:vector(packetBytes):max -inf
scalar OSPF_mininet.S2H[1].eth[0] packetDropNoCarrier:vector(packetBytes):starttime nan
scalar OSPF_mininet.S2H[1].eth[0] packetDropNoCarrier:vector(packetBytes):endtime nan
scalar OSPF_mininet.S2H[1].ipv4.ip packetDropAddressResolutionFailed:vector(packetBytes):count 420
scalar OSPF_mininet.S2H[1].ipv4.ip packetDropAddressResolutionFailed:vector(packetBytes):sum 25200
scalar OSPF_mininet.S2H[1].ipv4.ip packetDropAddressResolutionFailed:vector(packetBytes):sumweights 420
scalar OSPF_mininet.S2H[1].ipv4.ip packetDropAddressResolutionFailed:vector(packetBytes):mean 60
scalar OSPF_mininet.S2H[1].ipv4.ip packetDropAddressResolutionFailed:vector(packetBytes):stddev 0
scalar OSPF_mininet.S2H[1].ipv4.ip packetDropAddressResolutionFailed:vector(packetBytes):min 60
scalar OSPF_mininet.S2H[1].ipv4.ip packetDropAddressResolutionFailed:vector(packetBytes):max 60
scalar OSPF_mininet.S2H[1].ipv4.ip packetDropAddressResolutionFailed:vector(packetBytes):starttime 13
scalar OSPF_mininet.S2H[1].ipv4.ip packetDropAddressResolutionFailed:vector(packetBytes):endtime 49
scalar OSPF_mininet.S2H[1].ipv4.ip packetDropHopLimitReached:vector(packetBytes):count 0
scalar OSPF_mininet.S2H[1].ipv4.ip packetDropHopLimitReached:vector(packetBytes):sum 0
scalar OSPF_mininet.S2H[1].ipv4.ip packetDropHopLimitReached:vector(packetBytes):sumweights 0
scalar OSPF_mininet.S2H[1].ipv4.ip packetDropHopLimitReached:vector(packetBytes):mean -nan
scalar OSPF_mininet.S2H[1].ipv4.ip packetDropHopLimitReached:vector(packetBytes):stddev nan
scalar OSPF_mininet.S2H[1].ipv4.ip packetDropHopLimitReached:vector(packetBytes):min inf
scalar OSPF_mininet.S2H[1].ipv4.ip packetDropHopLimitReached:vector(packetBytes):max -inf
scalar OSPF_mininet.S2H[1].ipv4.ip packetDropHopLimitReached:vector(packetBytes):starttime nan
scalar OSPF_mininet.S2H[1].ipv4.ip packetDropHopLimitReached:vector(packetBytes):endtime nan
scalar OSPF_mininet.S2H[1].ipv4.ip packetDropForwardingDisabled:vector(packetBytes):count 0
scalar OSPF_mininet.S2H[1].ipv4.ip packetDropForwardingDisabled:vector(packetBytes):sum 0
scalar OSPF_mininet.S2H[1].ipv4.ip packetDropForwardingDisabled:vector(packetBytes):sumweights 0
scalar OSPF_mininet.S2H[1].ipv4.ip packetDropForwardingDisabled:vector(packetBytes):mean -nan
scalar OSPF_mininet.S2H[1].ipv4.ip packetDropForwardingDisabled:vector(packetBytes):stddev nan
scalar OSPF_mininet.S2H[1].ipv4.ip packetDropForwardingDisabled:vector(packetBytes):min inf
scalar OSPF_mininet.S2H[1].ipv4.ip packetDropForwardingDisabled:vector(packetBytes):max -inf
scalar OSPF_mininet.S2H[1].ipv4.ip packetDropForwardingDisabled:vector(packetBytes):starttime nan
scalar OSPF_mininet.S2H[1].ipv4.ip packetDropForwardingDisabled:vector(packetBytes):endtime nan
scalar OSPF_mininet.S2H[1].ipv4.ip packetDropLifetimeExpired:vector(packetBytes):count 0
scalar OSPF_mininet.S2H[1].ipv4.ip packetDropLifetimeExpired:vector(packetBytes):sum 0
scalar OSPF_mininet.S2H[1].ipv4.ip packetDropLifetimeExpired:vector(packetBytes):sumweights 0
scalar OSPF_mininet.S2H[1].ipv4.ip packetDropLifetimeExpired:vector(packetBytes):mean -nan
scalar OSPF_mininet.S2H[1].ipv4.ip packetDropLifetimeExpired:vector(packetBytes):stddev nan
scalar OSPF_mininet.S2H[1].ipv4.ip packetDropLifetimeExpired:vector(packetBytes):min inf
scalar OSPF_mininet.S2H[1].ipv4.ip packetDropLifetimeExpired:vector(packetBytes):max -inf
scalar OSPF_mininet.S2H[1].ipv4.ip packetDropLifetimeExpired:vector(packetBytes):starttime nan
scalar OSPF_mininet.S2H[1].ipv4.ip packetDropLifetimeExpired:vector(packetBytes):endtime nan
scalar OSPF_mininet.S2H[1].ipv4.ip packetDropNoInterfaceFound:vector(packetBytes):count 0
scalar OSPF_mininet.S2H[1].ipv4.ip packetDropNoInterfaceFound:vector(packetBytes):sum 0
scalar OSPF_mininet.S2H[1].ipv4.ip packetDropNoInterfaceFound:vector(packetBytes):sumweights 0
scalar OSPF_mininet.S2H[1].ipv4.ip packetDropNoInterfaceFound:vector(packetBytes):mean -nan
scalar OSPF_mininet.S2H[1].ipv4.ip packetDropNoInterfaceFound:vector(packetBytes):stddev nan
scalar OSPF_mininet.S2H[1].ipv4.ip packetDropNoInterfaceFound:vector(packetBytes):min inf
scalar OSPF_mininet.S2H[1].ipv4.ip packetDropNoInterfaceFound:vector(packetBytes):max -inf
scalar OSPF_mininet.S2H[1].ipv4.ip packetDropNoInterfaceFound:vector(packetBytes):starttime nan
scalar OSPF_mininet.S2H[1].ipv4.ip packetDropNoInterfaceFound:vector(packetBytes):endtime nan
scalar OSPF_mininet.S2H[1].ipv4.ip packetDropNoRouteFound:vector(packetBytes):count 0
scalar OSPF_mininet.S2H[1].ipv4.ip packetDropNoRouteFound:vector(packetBytes):sum 0
scalar OSPF_mininet.S2H[1].ipv4.ip packetDropNoRouteFound:vector(packetBytes):sumweights 0
scalar OSPF_mininet.S2H[1].ipv4.ip packetDropNoRouteFound:vector(packetBytes):mean -nan
scalar OSPF_mininet.S2H[1].ipv4.ip packetDropNoRouteFound:vector(packetBytes):stddev nan
scalar OSPF_mininet.S2H[1].ipv4.ip packetDropNoRouteFound:vector(packetBytes):min inf
scalar OSPF_mininet.S2H[1].ipv4.ip packetDropNoRouteFound:vector(packetBytes):max -inf
scalar OSPF_mininet.S2H[1].ipv4.ip packetDropNoRouteFound:vector(packetBytes):starttime nan
scalar OSPF_mininet.S2H[1].ipv4.ip packetDropNoRouteFound:vector(packetBytes):endtime nan
scalar OSPF_mininet.S2H[1].ipv4.ip packetDropUndefined:vector(packetBytes):count 0
scalar OSPF_mininet.S2H[1].ipv4.ip packetDropUndefined:vector(packetBytes):sum 0
scalar OSPF_mininet.S2H[1].ipv4.ip packetDropUndefined:vector(packetBytes):sumweights 0
scalar OSPF_mininet.S2H[1].ipv4.ip packetDropUndefined:vector(packetBytes):mean -nan
scalar OSPF_mininet.S2H[1].ipv4.ip packetDropUndefined:vector(packetBytes):stddev nan
scalar OSPF_mininet.S2H[1].ipv4.ip packetDropUndefined:vector(packetBytes):min inf
scalar OSPF_mininet.S2H[1].ipv4.ip packetDropUndefined:vector(packetBytes):max -inf
scalar OSPF_mininet.S2H[1].ipv4.ip packetDropUndefined:vector(packetBytes):starttime nan
scalar OSPF_mininet.S2H[1].ipv4.ip packetDropUndefined:vector(packetBytes):endtime nan
scalar OSPF_mininet.S2H[1].ipv4.arp arpRequestSent:vector(packetBytes):count 946
scalar OSPF_mininet.S2H[1].ipv4.arp arpRequestSent:vector(packetBytes):sum 26488
scalar OSPF_mininet.S2H[1].ipv4.arp arpRequestSent:vector(packetBytes):sumweights 946
scalar OSPF_mininet.S2H[1].ipv4.arp arpRequestSent:vector(packetBytes):mean 28
scalar OSPF_mininet.S2H[1].ipv4.arp arpRequestSent:vector(packetBytes):stddev 0
scalar OSPF_mininet.S2H[1].ipv4.arp arpRequestSent:vector(packetBytes):min 28
scalar OSPF_mininet.S2H[1].ipv4.arp arpRequestSent:vector(packetBytes):max 28
scalar OSPF_mininet.S2H[1].ipv4.arp arpRequestSent:vector(packetBytes):starttime 10
scalar OSPF_mininet.S2H[1].ipv4.arp arpRequestSent:vector(packetBytes):endtime 999.20008238
scalar OSPF_mininet.S2H[1].ipv4.arp arpReplySent:vector(packetBytes):count 905
scalar OSPF_mininet.S2H[1].ipv4.arp arpReplySent:vector(packetBytes):sum 25340
scalar OSPF_mininet.S2H[1].ipv4.arp arpReplySent:vector(packetBytes):sumweights 905
scalar OSPF_mininet.S2H[1].ipv4.arp arpReplySent:vector(packetBytes):mean 28
scalar OSPF_mininet.S2H[1].ipv4.arp arpReplySent:vector(packetBytes):stddev 0
scalar OSPF_mininet.S2H[1].ipv4.arp arpReplySent:vector(packetBytes):min 28
scalar OSPF_mininet.S2H[1].ipv4.arp arpReplySent:vector(packetBytes):max 28
scalar OSPF_mininet.S2H[1].ipv4.arp arpReplySent:vector(packetBytes):starttime 46.00008126
scalar OSPF_mininet.S2H[1].ipv4.arp arpReplySent:vector(packetBytes):endtime 999.20006954
scalar OSPF_mininet.S2H[1].udp packetSent:vector(packetBytes):count 19441
scalar OSPF_mininet.S2H[1].udp packetSent:vector(packetBytes):sum 777640
scalar OSPF_mininet.S2H[1].udp packetSent:vector(packetBytes):sumweights 19441
scalar OSPF_mininet.S2H[1].udp packetSent:vector(packetBytes):mean 40
scalar OSPF_mininet.S2H[1].udp packetSent:vector(packetBytes):stddev 0
scalar OSPF_mininet.S2H[1].udp packetSent:vector(packetBytes):min 40
scalar OSPF_mininet.S2H[1].udp packetSent:vector(packetBytes):max 40
scalar OSPF_mininet.S2H[1].udp packetSent:vector(packetBytes):starttime 10
scalar OSPF_mininet.S2H[1].udp packetSent:vector(packetBytes):endtime 1000
scalar OSPF_mininet.S2H[1].udp packetReceived:vector(packetBytes):count 19050
scalar OSPF_mininet.S2H[1].udp packetReceived:vector(packetBytes):sum 762000
scalar OSPF_mininet.S2H[1].udp packetReceived:vector(packetBytes):sumweights 19050
scalar OSPF_mininet.S2H[1].udp packetReceived:vector(packetBytes):mean 40
scalar OSPF_mininet.S2H[1].udp packetReceived:vector(packetBytes):stddev 0
scalar OSPF_mininet.S2H[1].udp packetReceived:vector(packetBytes):min 40
scalar OSPF_mininet.S2H[1].udp packetReceived:vector(packetBytes):max 40
scalar OSPF_mininet.S2H[1].udp packetReceived:vector(packetBytes):starttime 46.0000941
scalar OSPF_mininet.S2H[1].udp packetReceived:vector(packetBytes):endtime 999.90013348
scalar OSPF_mininet.S2H[1].udp passedUpPk:vector(count):count 19051
scalar OSPF_mininet.S2H[1].udp passedUpPk:vector(count):sum 181460775
scalar OSPF_mininet.S2H[1].udp passedUpPk:vector(count):sumweights 19051
scalar OSPF_mininet.S2H[1].udp passedUpPk:vector(count):mean 9525
scalar OSPF_mininet.S2H[1].udp passedUpPk:vector(count):stddev 5499.694324839
scalar OSPF_mininet.S2H[1].udp passedUpPk:vector(count):min 0
scalar OSPF_mininet.S2H[1].udp passedUpPk:vector(count):max 19050
scalar OSPF_mininet.S2H[1].udp passedUpPk:vector(count):starttime 0
scalar OSPF_mininet.S2H[1].udp passedUpPk:vector(count):endtime 999.90013348
scalar OSPF_mininet.S2H[1].udp droppedPkWrongPort:vector(count):count 1
scalar OSPF_mininet.S2H[1].udp droppedPkWrongPort:vector(count):sum 0
scalar OSPF_mininet.S2H[1].udp droppedPkWrongPort:vector(count):sumweights 1
scalar OSPF_mininet.S2H[1].udp droppedPkWrongPort:vector(count):mean 0
scalar OSPF_mininet.S2H[1].udp droppedPkWrongPort:vector(count):stddev nan
scalar OSPF_mininet.S2H[1].udp droppedPkWrongPort:vector(count):min 0
scalar OSPF_mininet.S2H[1].udp droppedPkWrongPort:vector(count):max 0
scalar OSPF_mininet.S2H[1].udp droppedPkWrongPort:vector(count):starttime 0
scalar OSPF_mininet.S2H[1].udp droppedPkWrongPort:vector(count):endtime 0
scalar OSPF_mininet.S2H[1].udp droppedPkBadChecksum:vector(count):count 1
scalar OSPF_mininet.S2H[1].udp droppedPkBadChecksum:vector(count):sum 0
scalar OSPF_mininet.S2H[1].udp droppedPkBadChecksum:vector(count):sumweights 1
scalar OSPF_mininet.S2H[1].udp droppedPkBadChecksum:vector(count):mean 0
scalar OSPF_mininet.S2H[1].udp droppedPkBadChecksum:vector(count):stddev nan
scalar OSPF_mininet.S2H[1].udp droppedPkBadChecksum:vector(count):min 0
scalar OSPF_mininet.S2H[1].udp droppedPkBadChecksum:vector(count):max 0
scalar OSPF_mininet.S2H[1].udp droppedPkBadChecksum:vector(count):starttime 0
scalar OSPF_mininet.S2H[1].udp droppedPkBadChecksum:vector(count):endtime 0
scalar OSPF_mininet.S2H[1].app[0] echoedPk:vector(packetBytes):count 9540
scalar OSPF_mininet.S2H[1].app[0] echoedPk:vector(packetBytes):sum 305280
scalar OSPF_mininet.S2H[1].app[0] echoedPk:vector(packetBytes):sumweights 9540
scalar OSPF_mininet.S2H[1].app[0] echoedPk:vector(packetBytes):mean 32
scalar OSPF_mininet.S2H[1].app[0] echoedPk:vector(packetBytes):stddev 0
scalar OSPF_mininet.S2H[1].app[0] echoedPk:vector(packetBytes):min 32
scalar OSPF_mininet.S2H[1].app[0] echoedPk:vector(packetBytes):max 32
scalar OSPF_mininet.S2H[1].app[0] echoedPk:vector(packetBytes):starttime 46.0000941
scalar OSPF_mininet.S2H[1].app[0] echoedPk:vector(packetBytes):endtime 999.90007066
scalar OSPF_mininet.S2H[1].app[1] packetReceived:vector(packetBytes):count 9510
scalar OSPF_mininet.S2H[1].app[1] packetReceived:vector(packetBytes):sum 304320
scalar OSPF_mininet.S2H[1].app[1] packetReceived:vector(packetBytes):sumweights 9510
scalar OSPF_mininet.S2H[1].app[1] packetReceived:vector(packetBytes):mean 32
scalar OSPF_mininet.S2H[1].app[1] packetReceived:vector(packetBytes):stddev 0
scalar OSPF_mininet.S2H[1].app[1] packetReceived:vector(packetBytes):min 32
scalar OSPF_mininet.S2H[1].app[1] packetReceived:vector(packetBytes):max 32
scalar OSPF_mininet.S2H[1].app[1] packetReceived:vector(packetBytes):starttime 51.0001452
scalar OSPF_mininet.S2H[1].app[1] packetReceived:vector(packetBytes):endtime 999.90013348
scalar OSPF_mininet.S2H[1].app[1] throughput:vector:count 10000
scalar OSPF_mininet.S2H[1].app[1] throughput:vector:sum 24345600
scalar OSPF_mininet.S2H[1].app[1] throughput:vector:sumweights 10000
scalar OSPF_mininet.S2H[1].app[1] throughput:vector:mean 2434.56
scalar OSPF_mininet.S2H[1].app[1] throughput:vector:stddev 762.03705713544
scalar OSPF_mininet.S2H[1].app[1] throughput:vector:min 0
scalar OSPF_mininet.S2H[1].app[1] throughput:vector:max 53760
scalar OSPF_mininet.S2H[1].app[1] throughput:vector:starttime 0.1
scalar OSPF_mininet.S2H[1].app[1] throughput:vector:endtime 1000
scalar OSPF_mininet.S2H[1].app[1] packetSent:vector(packetBytes):count 9901
scalar OSPF_mininet.S2H[1].app[1] packetSent:vector(packetBytes):sum 316832
scalar OSPF_mininet.S2H[1].app[1] packetSent:vector(packetBytes):sumweights 9901
scalar OSPF_mininet.S2H[1].app[1] packetSent:vector(packetBytes):mean 32
scalar OSPF_mininet.S2H[1].app[1] packetSent:vector(packetBytes):stddev 0
scalar OSPF_mininet.S2H[1].app[1] packetSent:vector(packetBytes):min 32
scalar OSPF_mininet.S2H[1].app[1] packetSent:vector(packetBytes):max 32
scalar OSPF_mininet.S2H[1].app[1] packetSent:vector(packetBytes):starttime 10
scalar OSPF_mininet.S2H[1].app[1] packetSent:vector(packetBytes):endtime 1000
scalar OSPF_mininet.S2H[1].app[1] rcvdPkLifetime:vector:count 9510
scalar OSPF_mininet.S2H[1].app[1] rcvdPkLifetime:vector:sum 22.3295351
scalar OSPF_mininet.S2H[1].app[1] rcvdPkLifetime:vector:sumweights 9510
scalar OSPF_mininet.S2H[1].app[1] rcvdPkLifetime:vector:mean 0.0023480057939012
scalar OSPF_mininet.S2H[1].app[1] rcvdPkLifetime:vector:stddev 0.054901895921533
scalar OSPF_mininet.S2H[1].app[1] rcvdPkLifetime:vector:min 0.00012564
scalar OSPF_mininet.S2H[1].app[1] rcvdPkLifetime:vector:max 2.0001452
scalar OSPF_mininet.S2H[1].app[1] rcvdPkLifetime:vector:starttime 51.0001452
scalar OSPF_mininet.S2H[1].app[1] rcvdPkLifetime:vector:endtime 999.90013348
scalar OSPF_mininet.S2H[1].app[1] rcvdPkSeqNo:vector:count 9510
scalar OSPF_mininet.S2H[1].app[1] rcvdPkSeqNo:vector:sum 48924195
scalar OSPF_mininet.S2H[1].app[1] rcvdPkSeqNo:vector:sumweights 9510
scalar OSPF_mininet.S2H[1].app[1] rcvdPkSeqNo:vector:mean 5144.5
scalar OSPF_mininet.S2H[1].app[1] rcvdPkSeqNo:vector:stddev 2745.4448637698
scalar OSPF_mininet.S2H[1].app[1] rcvdPkSeqNo:vector:min 390
scalar OSPF_mininet.S2H[1].app[1] rcvdPkSeqNo:vector:max 9899
scalar OSPF_mininet.S2H[1].app[1] rcvdPkSeqNo:vector:starttime 51.0001452
scalar OSPF_mininet.S2H[1].app[1] rcvdPkSeqNo:vector:endtime 999.90013348

