version 3
run twoclienthosts-0-20260121-12:16:03-129893
attr configname twoclienthosts
attr datetime 20260121-12:16:03
attr datetimef 20260121-121603
attr experiment twoclienthosts
attr inifile omnetpp.ini
attr iterationvars ""
attr iterationvarsd ""
attr iterationvarsf ""
attr measurement ""
attr network twoclienthosts
attr processid 129893
attr repetition 0
attr replication #0
attr resultdir results
attr runnumber 0
attr seedset 0
config **.param-recording false
config image-path /home/attila/projects/inet/images
config output-scalar-file results/omnetpp.ini-twoclienthosts-#0.sca
config output-scalar-precision 17
config output-vector-file results/omnetpp.ini-twoclienthosts-#0.vec
config output-vector-precision 17
config record-eventlog false
config network twoclienthosts
config **.client*.numApps 1
config **.client*.app[*].typename QuicClient
config **.client*.app[*].localPort 1001
config **.client*.app[*].connectPort 1000
config **.client*.app[*].connectAddress "\"server\""
config **.server.numApps 1
config **.server.app[*].typename QuicDiscardServer
config **.server.app[*].localAddress "\"\""
config **.server.app[*].localPort 1000

scalar twoclienthosts.router1.lo[0].lo rcvdPkFromHl:count 0
scalar twoclienthosts.router1.lo[0].lo rcvdPkFromHl:sum(packetBytes) 0
scalar twoclienthosts.router1.lo[0].lo passedUpPk:count 0
scalar twoclienthosts.router1.lo[0].lo passedUpPk:sum(packetBytes) 0
scalar twoclienthosts.router1.lo[0] packetDropInterfaceDown:count 0
scalar twoclienthosts.router1.lo[0] packetDropInterfaceDown:sum(packetBytes) 0
scalar twoclienthosts.router1.lo[0] packetDropNoCarrier:count 0
scalar twoclienthosts.router1.lo[0] packetDropNoCarrier:sum(packetBytes) 0
scalar twoclienthosts.router1.ppp[0].queue queueLength:last 0
scalar twoclienthosts.router1.ppp[0].queue queueLength:max 1
scalar twoclienthosts.router1.ppp[0].queue queueLength:timeavg 2.9540165378843465e-07
scalar twoclienthosts.router1.ppp[0].queue queueBitLength:last 0
scalar twoclienthosts.router1.ppp[0].queue queueBitLength:max 344
scalar twoclienthosts.router1.ppp[0].queue queueBitLength:timeavg 0.00010067288361109853
scalar twoclienthosts.router1.ppp[0].queue outgoingPackets:count 6
scalar twoclienthosts.router1.ppp[0].queue outgoingPacketLengths:sum 2240
scalar twoclienthosts.router1.ppp[0].queue incomingPackets:count 6
scalar twoclienthosts.router1.ppp[0].queue incomingPacketLengths:sum 2240
scalar twoclienthosts.router1.ppp[0].queue droppedPacketsQueueOverflow:count 0
scalar twoclienthosts.router1.ppp[0].queue droppedPacketLengthsQueueOverflow:sum 0
scalar twoclienthosts.router1.ppp[0].ppp transmissionState:timeavg 1.9023866503975191e-05
scalar twoclienthosts.router1.ppp[0].ppp rxPkOk:count 8
scalar twoclienthosts.router1.ppp[0].ppp rxPkOk:sum(packetBytes) 3097
scalar twoclienthosts.router1.ppp[0].ppp txPk:count 6
scalar twoclienthosts.router1.ppp[0].ppp txPk:sum(packetBytes) 322
scalar twoclienthosts.router1.ppp[0].ppp rcvdPkFromHl:count 6
scalar twoclienthosts.router1.ppp[0].ppp rcvdPkFromHl:sum(packetBytes) 280
scalar twoclienthosts.router1.ppp[0].ppp passedUpPk:count 8
scalar twoclienthosts.router1.ppp[0].ppp passedUpPk:sum(packetBytes) 3041
scalar twoclienthosts.router1.ppp[0].ppp packetDropIncorrectlyReceived:count 0
scalar twoclienthosts.router1.ppp[0].ppp packetDropIncorrectlyReceived:sum(packetBytes) 0
scalar twoclienthosts.router1.ppp[0].ppp packetDropInterfaceDown:count 0
scalar twoclienthosts.router1.ppp[0].ppp packetDropInterfaceDown:sum(packetBytes) 0
scalar twoclienthosts.router1.ppp[0] packetDropInterfaceDown:count 0
scalar twoclienthosts.router1.ppp[0] packetDropInterfaceDown:sum(packetBytes) 0
scalar twoclienthosts.router1.ppp[0] packetDropNoCarrier:count 0
scalar twoclienthosts.router1.ppp[0] packetDropNoCarrier:sum(packetBytes) 0
scalar twoclienthosts.router1.ppp[1].queue queueLength:last 0
scalar twoclienthosts.router1.ppp[1].queue queueLength:max 1
scalar twoclienthosts.router1.ppp[1].queue queueLength:timeavg 2.9540165378843465e-07
scalar twoclienthosts.router1.ppp[1].queue queueBitLength:last 0
scalar twoclienthosts.router1.ppp[1].queue queueBitLength:max 344
scalar twoclienthosts.router1.ppp[1].queue queueBitLength:timeavg 0.00010067288361109853
scalar twoclienthosts.router1.ppp[1].queue outgoingPackets:count 6
scalar twoclienthosts.router1.ppp[1].queue outgoingPacketLengths:sum 2240
scalar twoclienthosts.router1.ppp[1].queue incomingPackets:count 6
scalar twoclienthosts.router1.ppp[1].queue incomingPacketLengths:sum 2240
scalar twoclienthosts.router1.ppp[1].queue droppedPacketsQueueOverflow:count 0
scalar twoclienthosts.router1.ppp[1].queue droppedPacketLengthsQueueOverflow:sum 0
scalar twoclienthosts.router1.ppp[1].ppp transmissionState:timeavg 1.9023866503975191e-05
scalar twoclienthosts.router1.ppp[1].ppp rxPkOk:count 8
scalar twoclienthosts.router1.ppp[1].ppp rxPkOk:sum(packetBytes) 3097
scalar twoclienthosts.router1.ppp[1].ppp txPk:count 6
scalar twoclienthosts.router1.ppp[1].ppp txPk:sum(packetBytes) 322
scalar twoclienthosts.router1.ppp[1].ppp rcvdPkFromHl:count 6
scalar twoclienthosts.router1.ppp[1].ppp rcvdPkFromHl:sum(packetBytes) 280
scalar twoclienthosts.router1.ppp[1].ppp passedUpPk:count 8
scalar twoclienthosts.router1.ppp[1].ppp passedUpPk:sum(packetBytes) 3041
scalar twoclienthosts.router1.ppp[1].ppp packetDropIncorrectlyReceived:count 0
scalar twoclienthosts.router1.ppp[1].ppp packetDropIncorrectlyReceived:sum(packetBytes) 0
scalar twoclienthosts.router1.ppp[1].ppp packetDropInterfaceDown:count 0
scalar twoclienthosts.router1.ppp[1].ppp packetDropInterfaceDown:sum(packetBytes) 0
scalar twoclienthosts.router1.ppp[1] packetDropInterfaceDown:count 0
scalar twoclienthosts.router1.ppp[1] packetDropInterfaceDown:sum(packetBytes) 0
scalar twoclienthosts.router1.ppp[1] packetDropNoCarrier:count 0
scalar twoclienthosts.router1.ppp[1] packetDropNoCarrier:sum(packetBytes) 0
scalar twoclienthosts.router1.ppp[2].queue queueLength:last 0
scalar twoclienthosts.router1.ppp[2].queue queueLength:max 4
scalar twoclienthosts.router1.ppp[2].queue queueLength:timeavg 0.00046750265728557667
scalar twoclienthosts.router1.ppp[2].queue queueBitLength:last 0
scalar twoclienthosts.router1.ppp[2].queue queueBitLength:max 9824
scalar twoclienthosts.router1.ppp[2].queue queueBitLength:timeavg 1.4928342353028967
scalar twoclienthosts.router1.ppp[2].queue outgoingPackets:count 16
scalar twoclienthosts.router1.ppp[2].queue outgoingPacketLengths:sum 48656
scalar twoclienthosts.router1.ppp[2].queue incomingPackets:count 16
scalar twoclienthosts.router1.ppp[2].queue incomingPacketLengths:sum 48656
scalar twoclienthosts.router1.ppp[2].queue droppedPacketsQueueOverflow:count 0
scalar twoclienthosts.router1.ppp[2].queue droppedPacketLengthsQueueOverflow:sum 0
scalar twoclienthosts.router1.ppp[2].ppp transmissionState:timeavg 0.00036594356871311298
scalar twoclienthosts.router1.ppp[2].ppp rxPkOk:count 12
scalar twoclienthosts.router1.ppp[2].ppp rxPkOk:sum(packetBytes) 644
scalar twoclienthosts.router1.ppp[2].ppp txPk:count 16
scalar twoclienthosts.router1.ppp[2].ppp txPk:sum(packetBytes) 6194
scalar twoclienthosts.router1.ppp[2].ppp rcvdPkFromHl:count 16
scalar twoclienthosts.router1.ppp[2].ppp rcvdPkFromHl:sum(packetBytes) 6082
scalar twoclienthosts.router1.ppp[2].ppp passedUpPk:count 12
scalar twoclienthosts.router1.ppp[2].ppp passedUpPk:sum(packetBytes) 560
scalar twoclienthosts.router1.ppp[2].ppp packetDropIncorrectlyReceived:count 0
scalar twoclienthosts.router1.ppp[2].ppp packetDropIncorrectlyReceived:sum(packetBytes) 0
scalar twoclienthosts.router1.ppp[2].ppp packetDropInterfaceDown:count 0
scalar twoclienthosts.router1.ppp[2].ppp packetDropInterfaceDown:sum(packetBytes) 0
scalar twoclienthosts.router1.ppp[2] packetDropInterfaceDown:count 0
scalar twoclienthosts.router1.ppp[2] packetDropInterfaceDown:sum(packetBytes) 0
scalar twoclienthosts.router1.ppp[2] packetDropNoCarrier:count 0
scalar twoclienthosts.router1.ppp[2] packetDropNoCarrier:sum(packetBytes) 0
scalar twoclienthosts.router1.ipv4.ip packetDropAddressResolutionFailed:count 0
scalar twoclienthosts.router1.ipv4.ip packetDropAddressResolutionFailed:sum(packetBytes) 0
scalar twoclienthosts.router1.ipv4.ip packetDropHopLimitReached:count 0
scalar twoclienthosts.router1.ipv4.ip packetDropHopLimitReached:sum(packetBytes) 0
scalar twoclienthosts.router1.ipv4.ip packetDropForwardingDisabled:count 0
scalar twoclienthosts.router1.ipv4.ip packetDropForwardingDisabled:sum(packetBytes) 0
scalar twoclienthosts.router1.ipv4.ip packetDropLifetimeExpired:count 0
scalar twoclienthosts.router1.ipv4.ip packetDropLifetimeExpired:sum(packetBytes) 0
scalar twoclienthosts.router1.ipv4.ip packetDropNoInterfaceFound:count 0
scalar twoclienthosts.router1.ipv4.ip packetDropNoInterfaceFound:sum(packetBytes) 0
scalar twoclienthosts.router1.ipv4.ip packetDropNoRouteFound:count 0
scalar twoclienthosts.router1.ipv4.ip packetDropNoRouteFound:sum(packetBytes) 0
scalar twoclienthosts.router1.ipv4.ip packetDropUndefined:count 0
scalar twoclienthosts.router1.ipv4.ip packetDropUndefined:sum(packetBytes) 0
scalar twoclienthosts.router1.ipv4.arp arpResolutionFailed:count 0
scalar twoclienthosts.router1.ipv4.arp arpResolutionCompleted:count 0
scalar twoclienthosts.router1.ipv4.arp arpResolutionInitiated:count 0
scalar twoclienthosts.router1.ipv4.arp arpReplySent:count 0
scalar twoclienthosts.router1.ipv4.arp arpReplySent:sum(packetBytes) 0
scalar twoclienthosts.router1.ipv4.arp arpRequestSent:count 0
scalar twoclienthosts.router1.ipv4.arp arpRequestSent:sum(packetBytes) 0
scalar twoclienthosts.router2.lo[0].lo rcvdPkFromHl:count 0
scalar twoclienthosts.router2.lo[0].lo rcvdPkFromHl:sum(packetBytes) 0
scalar twoclienthosts.router2.lo[0].lo passedUpPk:count 0
scalar twoclienthosts.router2.lo[0].lo passedUpPk:sum(packetBytes) 0
scalar twoclienthosts.router2.lo[0] packetDropInterfaceDown:count 0
scalar twoclienthosts.router2.lo[0] packetDropInterfaceDown:sum(packetBytes) 0
scalar twoclienthosts.router2.lo[0] packetDropNoCarrier:count 0
scalar twoclienthosts.router2.lo[0] packetDropNoCarrier:sum(packetBytes) 0
scalar twoclienthosts.router2.ppp[0].queue queueLength:last 0
scalar twoclienthosts.router2.ppp[0].queue queueLength:max 1
scalar twoclienthosts.router2.ppp[0].queue queueLength:timeavg 5.908033075768693e-07
scalar twoclienthosts.router2.ppp[0].queue queueBitLength:last 0
scalar twoclienthosts.router2.ppp[0].queue queueBitLength:max 344
scalar twoclienthosts.router2.ppp[0].queue queueBitLength:timeavg 0.00020134576722219706
scalar twoclienthosts.router2.ppp[0].queue outgoingPackets:count 12
scalar twoclienthosts.router2.ppp[0].queue outgoingPacketLengths:sum 4480
scalar twoclienthosts.router2.ppp[0].queue incomingPackets:count 12
scalar twoclienthosts.router2.ppp[0].queue incomingPacketLengths:sum 4480
scalar twoclienthosts.router2.ppp[0].queue droppedPacketsQueueOverflow:count 0
scalar twoclienthosts.router2.ppp[0].queue droppedPacketLengthsQueueOverflow:sum 0
scalar twoclienthosts.router2.ppp[0].ppp transmissionState:timeavg 3.8047733007950375e-05
scalar twoclienthosts.router2.ppp[0].ppp rxPkOk:count 16
scalar twoclienthosts.router2.ppp[0].ppp rxPkOk:sum(packetBytes) 6194
scalar twoclienthosts.router2.ppp[0].ppp txPk:count 12
scalar twoclienthosts.router2.ppp[0].ppp txPk:sum(packetBytes) 644
scalar twoclienthosts.router2.ppp[0].ppp rcvdPkFromHl:count 12
scalar twoclienthosts.router2.ppp[0].ppp rcvdPkFromHl:sum(packetBytes) 560
scalar twoclienthosts.router2.ppp[0].ppp passedUpPk:count 16
scalar twoclienthosts.router2.ppp[0].ppp passedUpPk:sum(packetBytes) 6082
scalar twoclienthosts.router2.ppp[0].ppp packetDropIncorrectlyReceived:count 0
scalar twoclienthosts.router2.ppp[0].ppp packetDropIncorrectlyReceived:sum(packetBytes) 0
scalar twoclienthosts.router2.ppp[0].ppp packetDropInterfaceDown:count 0
scalar twoclienthosts.router2.ppp[0].ppp packetDropInterfaceDown:sum(packetBytes) 0
scalar twoclienthosts.router2.ppp[0] packetDropInterfaceDown:count 0
scalar twoclienthosts.router2.ppp[0] packetDropInterfaceDown:sum(packetBytes) 0
scalar twoclienthosts.router2.ppp[0] packetDropNoCarrier:count 0
scalar twoclienthosts.router2.ppp[0] packetDropNoCarrier:sum(packetBytes) 0
scalar twoclienthosts.router2.ppp[1].queue queueLength:last 0
scalar twoclienthosts.router2.ppp[1].queue queueLength:max 4
scalar twoclienthosts.router2.ppp[1].queue queueLength:timeavg 0.00029569705544222312
scalar twoclienthosts.router2.ppp[1].queue queueBitLength:last 0
scalar twoclienthosts.router2.ppp[1].queue queueBitLength:max 5448
scalar twoclienthosts.router2.ppp[1].queue queueBitLength:timeavg 0.34181752484490374
scalar twoclienthosts.router2.ppp[1].queue outgoingPackets:count 16
scalar twoclienthosts.router2.ppp[1].queue outgoingPacketLengths:sum 48656
scalar twoclienthosts.router2.ppp[1].queue incomingPackets:count 16
scalar twoclienthosts.router2.ppp[1].queue incomingPacketLengths:sum 48656
scalar twoclienthosts.router2.ppp[1].queue droppedPacketsQueueOverflow:count 0
scalar twoclienthosts.router2.ppp[1].queue droppedPacketLengthsQueueOverflow:sum 0
scalar twoclienthosts.router2.ppp[1].ppp transmissionState:timeavg 0.00036594356871311298
scalar twoclienthosts.router2.ppp[1].ppp rxPkOk:count 12
scalar twoclienthosts.router2.ppp[1].ppp rxPkOk:sum(packetBytes) 644
scalar twoclienthosts.router2.ppp[1].ppp txPk:count 16
scalar twoclienthosts.router2.ppp[1].ppp txPk:sum(packetBytes) 6194
scalar twoclienthosts.router2.ppp[1].ppp rcvdPkFromHl:count 16
scalar twoclienthosts.router2.ppp[1].ppp rcvdPkFromHl:sum(packetBytes) 6082
scalar twoclienthosts.router2.ppp[1].ppp passedUpPk:count 12
scalar twoclienthosts.router2.ppp[1].ppp passedUpPk:sum(packetBytes) 560
scalar twoclienthosts.router2.ppp[1].ppp packetDropIncorrectlyReceived:count 0
scalar twoclienthosts.router2.ppp[1].ppp packetDropIncorrectlyReceived:sum(packetBytes) 0
scalar twoclienthosts.router2.ppp[1].ppp packetDropInterfaceDown:count 0
scalar twoclienthosts.router2.ppp[1].ppp packetDropInterfaceDown:sum(packetBytes) 0
scalar twoclienthosts.router2.ppp[1] packetDropInterfaceDown:count 0
scalar twoclienthosts.router2.ppp[1] packetDropInterfaceDown:sum(packetBytes) 0
scalar twoclienthosts.router2.ppp[1] packetDropNoCarrier:count 0
scalar twoclienthosts.router2.ppp[1] packetDropNoCarrier:sum(packetBytes) 0
scalar twoclienthosts.router2.ipv4.ip packetDropAddressResolutionFailed:count 0
scalar twoclienthosts.router2.ipv4.ip packetDropAddressResolutionFailed:sum(packetBytes) 0
scalar twoclienthosts.router2.ipv4.ip packetDropHopLimitReached:count 0
scalar twoclienthosts.router2.ipv4.ip packetDropHopLimitReached:sum(packetBytes) 0
scalar twoclienthosts.router2.ipv4.ip packetDropForwardingDisabled:count 0
scalar twoclienthosts.router2.ipv4.ip packetDropForwardingDisabled:sum(packetBytes) 0
scalar twoclienthosts.router2.ipv4.ip packetDropLifetimeExpired:count 0
scalar twoclienthosts.router2.ipv4.ip packetDropLifetimeExpired:sum(packetBytes) 0
scalar twoclienthosts.router2.ipv4.ip packetDropNoInterfaceFound:count 0
scalar twoclienthosts.router2.ipv4.ip packetDropNoInterfaceFound:sum(packetBytes) 0
scalar twoclienthosts.router2.ipv4.ip packetDropNoRouteFound:count 0
scalar twoclienthosts.router2.ipv4.ip packetDropNoRouteFound:sum(packetBytes) 0
scalar twoclienthosts.router2.ipv4.ip packetDropUndefined:count 0
scalar twoclienthosts.router2.ipv4.ip packetDropUndefined:sum(packetBytes) 0
scalar twoclienthosts.router2.ipv4.arp arpResolutionFailed:count 0
scalar twoclienthosts.router2.ipv4.arp arpResolutionCompleted:count 0
scalar twoclienthosts.router2.ipv4.arp arpResolutionInitiated:count 0
scalar twoclienthosts.router2.ipv4.arp arpReplySent:count 0
scalar twoclienthosts.router2.ipv4.arp arpReplySent:sum(packetBytes) 0
scalar twoclienthosts.router2.ipv4.arp arpRequestSent:count 0
scalar twoclienthosts.router2.ipv4.arp arpRequestSent:sum(packetBytes) 0
scalar twoclienthosts.client1.lo[0].lo rcvdPkFromHl:count 0
scalar twoclienthosts.client1.lo[0].lo rcvdPkFromHl:sum(packetBytes) 0
scalar twoclienthosts.client1.lo[0].lo passedUpPk:count 0
scalar twoclienthosts.client1.lo[0].lo passedUpPk:sum(packetBytes) 0
scalar twoclienthosts.client1.lo[0] packetDropInterfaceDown:count 0
scalar twoclienthosts.client1.lo[0] packetDropInterfaceDown:sum(packetBytes) 0
scalar twoclienthosts.client1.lo[0] packetDropNoCarrier:count 0
scalar twoclienthosts.client1.lo[0] packetDropNoCarrier:sum(packetBytes) 0
scalar twoclienthosts.client1.ppp[0].queue queueLength:last 0
scalar twoclienthosts.client1.ppp[0].queue queueLength:max 3
scalar twoclienthosts.client1.ppp[0].queue queueLength:timeavg 0.0001667246933981925
scalar twoclienthosts.client1.ppp[0].queue queueBitLength:last 0
scalar twoclienthosts.client1.ppp[0].queue queueBitLength:max 13088
scalar twoclienthosts.client1.ppp[0].queue queueBitLength:timeavg 0.34665313175675888
scalar twoclienthosts.client1.ppp[0].queue outgoingPackets:count 8
scalar twoclienthosts.client1.ppp[0].queue outgoingPacketLengths:sum 24328
scalar twoclienthosts.client1.ppp[0].queue incomingPackets:count 8
scalar twoclienthosts.client1.ppp[0].queue incomingPacketLengths:sum 24328
scalar twoclienthosts.client1.ppp[0].queue droppedPacketsQueueOverflow:count 0
scalar twoclienthosts.client1.ppp[0].queue droppedPacketLengthsQueueOverflow:sum 0
scalar twoclienthosts.client1.ppp[0].ppp transmissionState:timeavg 0.00018297178435655641
scalar twoclienthosts.client1.ppp[0].ppp rxPkOk:count 6
scalar twoclienthosts.client1.ppp[0].ppp rxPkOk:sum(packetBytes) 322
scalar twoclienthosts.client1.ppp[0].ppp txPk:count 8
scalar twoclienthosts.client1.ppp[0].ppp txPk:sum(packetBytes) 3097
scalar twoclienthosts.client1.ppp[0].ppp rcvdPkFromHl:count 8
scalar twoclienthosts.client1.ppp[0].ppp rcvdPkFromHl:sum(packetBytes) 3041
scalar twoclienthosts.client1.ppp[0].ppp passedUpPk:count 6
scalar twoclienthosts.client1.ppp[0].ppp passedUpPk:sum(packetBytes) 280
scalar twoclienthosts.client1.ppp[0].ppp packetDropIncorrectlyReceived:count 0
scalar twoclienthosts.client1.ppp[0].ppp packetDropIncorrectlyReceived:sum(packetBytes) 0
scalar twoclienthosts.client1.ppp[0].ppp packetDropInterfaceDown:count 0
scalar twoclienthosts.client1.ppp[0].ppp packetDropInterfaceDown:sum(packetBytes) 0
scalar twoclienthosts.client1.ppp[0] packetDropInterfaceDown:count 0
scalar twoclienthosts.client1.ppp[0] packetDropInterfaceDown:sum(packetBytes) 0
scalar twoclienthosts.client1.ppp[0] packetDropNoCarrier:count 0
scalar twoclienthosts.client1.ppp[0] packetDropNoCarrier:sum(packetBytes) 0
scalar twoclienthosts.client1.ipv4.ip packetDropAddressResolutionFailed:count 0
scalar twoclienthosts.client1.ipv4.ip packetDropAddressResolutionFailed:sum(packetBytes) 0
scalar twoclienthosts.client1.ipv4.ip packetDropHopLimitReached:count 0
scalar twoclienthosts.client1.ipv4.ip packetDropHopLimitReached:sum(packetBytes) 0
scalar twoclienthosts.client1.ipv4.ip packetDropForwardingDisabled:count 0
scalar twoclienthosts.client1.ipv4.ip packetDropForwardingDisabled:sum(packetBytes) 0
scalar twoclienthosts.client1.ipv4.ip packetDropLifetimeExpired:count 0
scalar twoclienthosts.client1.ipv4.ip packetDropLifetimeExpired:sum(packetBytes) 0
scalar twoclienthosts.client1.ipv4.ip packetDropNoInterfaceFound:count 0
scalar twoclienthosts.client1.ipv4.ip packetDropNoInterfaceFound:sum(packetBytes) 0
scalar twoclienthosts.client1.ipv4.ip packetDropNoRouteFound:count 0
scalar twoclienthosts.client1.ipv4.ip packetDropNoRouteFound:sum(packetBytes) 0
scalar twoclienthosts.client1.ipv4.ip packetDropUndefined:count 0
scalar twoclienthosts.client1.ipv4.ip packetDropUndefined:sum(packetBytes) 0
scalar twoclienthosts.client1.ipv4.arp arpResolutionFailed:count 0
scalar twoclienthosts.client1.ipv4.arp arpResolutionCompleted:count 0
scalar twoclienthosts.client1.ipv4.arp arpResolutionInitiated:count 0
scalar twoclienthosts.client1.ipv4.arp arpReplySent:count 0
scalar twoclienthosts.client1.ipv4.arp arpReplySent:sum(packetBytes) 0
scalar twoclienthosts.client1.ipv4.arp arpRequestSent:count 0
scalar twoclienthosts.client1.ipv4.arp arpRequestSent:sum(packetBytes) 0
scalar twoclienthosts.client1.udp packetReceived:count 6
scalar twoclienthosts.client1.udp packetReceived:sum(packetBytes) 160
scalar twoclienthosts.client1.udp packetSent:count 8
scalar twoclienthosts.client1.udp packetSent:sum(packetBytes) 2881
scalar twoclienthosts.client1.udp passedUpPk:count 6
scalar twoclienthosts.client1.udp droppedPkWrongPort:count 0
scalar twoclienthosts.client1.udp droppedPkBadChecksum:count 0
scalar twoclienthosts.client1.quic maxDataFrameLostCount_cid=0_sid=0:last 0
scalar twoclienthosts.client1.quic generatedMaxDataFrameCount_cid=0_sid=0:last 0
scalar twoclienthosts.client1.quic rcvBlockFrameCount_cid=0_sid=0:last 0
scalar twoclienthosts.client1.quic rcvMaxFrameCount_cid=0_sid=0:last 0
scalar twoclienthosts.client1.quic generatedBlockFrameCount_cid=0_sid=0:last 0
scalar twoclienthosts.client1.quic maxDataFrameLostCount_cid=0:last 0
scalar twoclienthosts.client1.quic generatedMaxDataFrameCount_cid=0:last 0
scalar twoclienthosts.client1.quic rcvBlockFrameCount_cid=0:last 0
scalar twoclienthosts.client1.quic rcvMaxFrameCount_cid=0:last 0
scalar twoclienthosts.client1.quic generatedBlockFrameCount_cid=0:last 0
scalar twoclienthosts.client1.quic packetReceived:count 6
scalar twoclienthosts.client1.quic packetReceived:sum(packetBytes) 112
scalar twoclienthosts.client1.quic packetSent:count 8
scalar twoclienthosts.client1.quic packetSent:sum(packetBytes) 2817
scalar twoclienthosts.client2.lo[0].lo rcvdPkFromHl:count 0
scalar twoclienthosts.client2.lo[0].lo rcvdPkFromHl:sum(packetBytes) 0
scalar twoclienthosts.client2.lo[0].lo passedUpPk:count 0
scalar twoclienthosts.client2.lo[0].lo passedUpPk:sum(packetBytes) 0
scalar twoclienthosts.client2.lo[0] packetDropInterfaceDown:count 0
scalar twoclienthosts.client2.lo[0] packetDropInterfaceDown:sum(packetBytes) 0
scalar twoclienthosts.client2.lo[0] packetDropNoCarrier:count 0
scalar twoclienthosts.client2.lo[0] packetDropNoCarrier:sum(packetBytes) 0
scalar twoclienthosts.client2.ppp[0].queue queueLength:last 0
scalar twoclienthosts.client2.ppp[0].queue queueLength:max 3
scalar twoclienthosts.client2.ppp[0].queue queueLength:timeavg 0.0001667246933981925
scalar twoclienthosts.client2.ppp[0].queue queueBitLength:last 0
scalar twoclienthosts.client2.ppp[0].queue queueBitLength:max 13088
scalar twoclienthosts.client2.ppp[0].queue queueBitLength:timeavg 0.34665313175675888
scalar twoclienthosts.client2.ppp[0].queue outgoingPackets:count 8
scalar twoclienthosts.client2.ppp[0].queue outgoingPacketLengths:sum 24328
scalar twoclienthosts.client2.ppp[0].queue incomingPackets:count 8
scalar twoclienthosts.client2.ppp[0].queue incomingPacketLengths:sum 24328
scalar twoclienthosts.client2.ppp[0].queue droppedPacketsQueueOverflow:count 0
scalar twoclienthosts.client2.ppp[0].queue droppedPacketLengthsQueueOverflow:sum 0
scalar twoclienthosts.client2.ppp[0].ppp transmissionState:timeavg 0.00018297178435655641
scalar twoclienthosts.client2.ppp[0].ppp rxPkOk:count 6
scalar twoclienthosts.client2.ppp[0].ppp rxPkOk:sum(packetBytes) 322
scalar twoclienthosts.client2.ppp[0].ppp txPk:count 8
scalar twoclienthosts.client2.ppp[0].ppp txPk:sum(packetBytes) 3097
scalar twoclienthosts.client2.ppp[0].ppp rcvdPkFromHl:count 8
scalar twoclienthosts.client2.ppp[0].ppp rcvdPkFromHl:sum(packetBytes) 3041
scalar twoclienthosts.client2.ppp[0].ppp passedUpPk:count 6
scalar twoclienthosts.client2.ppp[0].ppp passedUpPk:sum(packetBytes) 280
scalar twoclienthosts.client2.ppp[0].ppp packetDropIncorrectlyReceived:count 0
scalar twoclienthosts.client2.ppp[0].ppp packetDropIncorrectlyReceived:sum(packetBytes) 0
scalar twoclienthosts.client2.ppp[0].ppp packetDropInterfaceDown:count 0
scalar twoclienthosts.client2.ppp[0].ppp packetDropInterfaceDown:sum(packetBytes) 0
scalar twoclienthosts.client2.ppp[0] packetDropInterfaceDown:count 0
scalar twoclienthosts.client2.ppp[0] packetDropInterfaceDown:sum(packetBytes) 0
scalar twoclienthosts.client2.ppp[0] packetDropNoCarrier:count 0
scalar twoclienthosts.client2.ppp[0] packetDropNoCarrier:sum(packetBytes) 0
scalar twoclienthosts.client2.ipv4.ip packetDropAddressResolutionFailed:count 0
scalar twoclienthosts.client2.ipv4.ip packetDropAddressResolutionFailed:sum(packetBytes) 0
scalar twoclienthosts.client2.ipv4.ip packetDropHopLimitReached:count 0
scalar twoclienthosts.client2.ipv4.ip packetDropHopLimitReached:sum(packetBytes) 0
scalar twoclienthosts.client2.ipv4.ip packetDropForwardingDisabled:count 0
scalar twoclienthosts.client2.ipv4.ip packetDropForwardingDisabled:sum(packetBytes) 0
scalar twoclienthosts.client2.ipv4.ip packetDropLifetimeExpired:count 0
scalar twoclienthosts.client2.ipv4.ip packetDropLifetimeExpired:sum(packetBytes) 0
scalar twoclienthosts.client2.ipv4.ip packetDropNoInterfaceFound:count 0
scalar twoclienthosts.client2.ipv4.ip packetDropNoInterfaceFound:sum(packetBytes) 0
scalar twoclienthosts.client2.ipv4.ip packetDropNoRouteFound:count 0
scalar twoclienthosts.client2.ipv4.ip packetDropNoRouteFound:sum(packetBytes) 0
scalar twoclienthosts.client2.ipv4.ip packetDropUndefined:count 0
scalar twoclienthosts.client2.ipv4.ip packetDropUndefined:sum(packetBytes) 0
scalar twoclienthosts.client2.ipv4.arp arpResolutionFailed:count 0
scalar twoclienthosts.client2.ipv4.arp arpResolutionCompleted:count 0
scalar twoclienthosts.client2.ipv4.arp arpResolutionInitiated:count 0
scalar twoclienthosts.client2.ipv4.arp arpReplySent:count 0
scalar twoclienthosts.client2.ipv4.arp arpReplySent:sum(packetBytes) 0
scalar twoclienthosts.client2.ipv4.arp arpRequestSent:count 0
scalar twoclienthosts.client2.ipv4.arp arpRequestSent:sum(packetBytes) 0
scalar twoclienthosts.client2.udp packetReceived:count 6
scalar twoclienthosts.client2.udp packetReceived:sum(packetBytes) 160
scalar twoclienthosts.client2.udp packetSent:count 8
scalar twoclienthosts.client2.udp packetSent:sum(packetBytes) 2881
scalar twoclienthosts.client2.udp passedUpPk:count 6
scalar twoclienthosts.client2.udp droppedPkWrongPort:count 0
scalar twoclienthosts.client2.udp droppedPkBadChecksum:count 0
scalar twoclienthosts.client2.quic maxDataFrameLostCount_cid=0_sid=0:last 0
scalar twoclienthosts.client2.quic generatedMaxDataFrameCount_cid=0_sid=0:last 0
scalar twoclienthosts.client2.quic rcvBlockFrameCount_cid=0_sid=0:last 0
scalar twoclienthosts.client2.quic rcvMaxFrameCount_cid=0_sid=0:last 0
scalar twoclienthosts.client2.quic generatedBlockFrameCount_cid=0_sid=0:last 0
scalar twoclienthosts.client2.quic maxDataFrameLostCount_cid=0:last 0
scalar twoclienthosts.client2.quic generatedMaxDataFrameCount_cid=0:last 0
scalar twoclienthosts.client2.quic rcvBlockFrameCount_cid=0:last 0
scalar twoclienthosts.client2.quic rcvMaxFrameCount_cid=0:last 0
scalar twoclienthosts.client2.quic generatedBlockFrameCount_cid=0:last 0
scalar twoclienthosts.client2.quic packetReceived:count 6
scalar twoclienthosts.client2.quic packetReceived:sum(packetBytes) 112
scalar twoclienthosts.client2.quic packetSent:count 8
scalar twoclienthosts.client2.quic packetSent:sum(packetBytes) 2817
scalar twoclienthosts.server.lo[0].lo rcvdPkFromHl:count 0
scalar twoclienthosts.server.lo[0].lo rcvdPkFromHl:sum(packetBytes) 0
scalar twoclienthosts.server.lo[0].lo passedUpPk:count 0
scalar twoclienthosts.server.lo[0].lo passedUpPk:sum(packetBytes) 0
scalar twoclienthosts.server.lo[0] packetDropInterfaceDown:count 0
scalar twoclienthosts.server.lo[0] packetDropInterfaceDown:sum(packetBytes) 0
scalar twoclienthosts.server.lo[0] packetDropNoCarrier:count 0
scalar twoclienthosts.server.lo[0] packetDropNoCarrier:sum(packetBytes) 0
scalar twoclienthosts.server.ppp[0].queue queueLength:last 0
scalar twoclienthosts.server.ppp[0].queue queueLength:max 1
scalar twoclienthosts.server.ppp[0].queue queueLength:timeavg 1.2761351443660376e-05
scalar twoclienthosts.server.ppp[0].queue queueBitLength:last 0
scalar twoclienthosts.server.ppp[0].queue queueBitLength:max 464
scalar twoclienthosts.server.ppp[0].queue queueBitLength:timeavg 0.00510737643334052
scalar twoclienthosts.server.ppp[0].queue outgoingPackets:count 12
scalar twoclienthosts.server.ppp[0].queue outgoingPacketLengths:sum 4480
scalar twoclienthosts.server.ppp[0].queue incomingPackets:count 12
scalar twoclienthosts.server.ppp[0].queue incomingPacketLengths:sum 4480
scalar twoclienthosts.server.ppp[0].queue droppedPacketsQueueOverflow:count 0
scalar twoclienthosts.server.ppp[0].queue droppedPacketLengthsQueueOverflow:sum 0
scalar twoclienthosts.server.ppp[0].ppp transmissionState:timeavg 3.8047733007950375e-05
scalar twoclienthosts.server.ppp[0].ppp rxPkOk:count 16
scalar twoclienthosts.server.ppp[0].ppp rxPkOk:sum(packetBytes) 6194
scalar twoclienthosts.server.ppp[0].ppp txPk:count 12
scalar twoclienthosts.server.ppp[0].ppp txPk:sum(packetBytes) 644
scalar twoclienthosts.server.ppp[0].ppp rcvdPkFromHl:count 12
scalar twoclienthosts.server.ppp[0].ppp rcvdPkFromHl:sum(packetBytes) 560
scalar twoclienthosts.server.ppp[0].ppp passedUpPk:count 16
scalar twoclienthosts.server.ppp[0].ppp passedUpPk:sum(packetBytes) 6082
scalar twoclienthosts.server.ppp[0].ppp packetDropIncorrectlyReceived:count 0
scalar twoclienthosts.server.ppp[0].ppp packetDropIncorrectlyReceived:sum(packetBytes) 0
scalar twoclienthosts.server.ppp[0].ppp packetDropInterfaceDown:count 0
scalar twoclienthosts.server.ppp[0].ppp packetDropInterfaceDown:sum(packetBytes) 0
scalar twoclienthosts.server.ppp[0] packetDropInterfaceDown:count 0
scalar twoclienthosts.server.ppp[0] packetDropInterfaceDown:sum(packetBytes) 0
scalar twoclienthosts.server.ppp[0] packetDropNoCarrier:count 0
scalar twoclienthosts.server.ppp[0] packetDropNoCarrier:sum(packetBytes) 0
scalar twoclienthosts.server.ipv4.ip packetDropAddressResolutionFailed:count 0
scalar twoclienthosts.server.ipv4.ip packetDropAddressResolutionFailed:sum(packetBytes) 0
scalar twoclienthosts.server.ipv4.ip packetDropHopLimitReached:count 0
scalar twoclienthosts.server.ipv4.ip packetDropHopLimitReached:sum(packetBytes) 0
scalar twoclienthosts.server.ipv4.ip packetDropForwardingDisabled:count 0
scalar twoclienthosts.server.ipv4.ip packetDropForwardingDisabled:sum(packetBytes) 0
scalar twoclienthosts.server.ipv4.ip packetDropLifetimeExpired:count 0
scalar twoclienthosts.server.ipv4.ip packetDropLifetimeExpired:sum(packetBytes) 0
scalar twoclienthosts.server.ipv4.ip packetDropNoInterfaceFound:count 0
scalar twoclienthosts.server.ipv4.ip packetDropNoInterfaceFound:sum(packetBytes) 0
scalar twoclienthosts.server.ipv4.ip packetDropNoRouteFound:count 0
scalar twoclienthosts.server.ipv4.ip packetDropNoRouteFound:sum(packetBytes) 0
scalar twoclienthosts.server.ipv4.ip packetDropUndefined:count 0
scalar twoclienthosts.server.ipv4.ip packetDropUndefined:sum(packetBytes) 0
scalar twoclienthosts.server.ipv4.arp arpResolutionFailed:count 0
scalar twoclienthosts.server.ipv4.arp arpResolutionCompleted:count 0
scalar twoclienthosts.server.ipv4.arp arpResolutionInitiated:count 0
scalar twoclienthosts.server.ipv4.arp arpReplySent:count 0
scalar twoclienthosts.server.ipv4.arp arpReplySent:sum(packetBytes) 0
scalar twoclienthosts.server.ipv4.arp arpRequestSent:count 0
scalar twoclienthosts.server.ipv4.arp arpRequestSent:sum(packetBytes) 0
scalar twoclienthosts.server.udp packetReceived:count 16
scalar twoclienthosts.server.udp packetReceived:sum(packetBytes) 5762
scalar twoclienthosts.server.udp packetSent:count 12
scalar twoclienthosts.server.udp packetSent:sum(packetBytes) 320
scalar twoclienthosts.server.udp passedUpPk:count 16
scalar twoclienthosts.server.udp droppedPkWrongPort:count 0
scalar twoclienthosts.server.udp droppedPkBadChecksum:count 0
scalar twoclienthosts.server.quic maxDataFrameLostCount_cid=1_sid=0:last 0
scalar twoclienthosts.server.quic generatedMaxDataFrameCount_cid=1_sid=0:last 0
scalar twoclienthosts.server.quic rcvBlockFrameCount_cid=1_sid=0:last 0
scalar twoclienthosts.server.quic rcvMaxFrameCount_cid=1_sid=0:last 0
scalar twoclienthosts.server.quic generatedBlockFrameCount_cid=1_sid=0:last 0
scalar twoclienthosts.server.quic maxDataFrameLostCount_cid=0_sid=0:last 0
scalar twoclienthosts.server.quic generatedMaxDataFrameCount_cid=0_sid=0:last 0
scalar twoclienthosts.server.quic rcvBlockFrameCount_cid=0_sid=0:last 0
scalar twoclienthosts.server.quic rcvMaxFrameCount_cid=0_sid=0:last 0
scalar twoclienthosts.server.quic generatedBlockFrameCount_cid=0_sid=0:last 0
scalar twoclienthosts.server.quic maxDataFrameLostCount_cid=1:last 0
scalar twoclienthosts.server.quic generatedMaxDataFrameCount_cid=1:last 0
scalar twoclienthosts.server.quic rcvBlockFrameCount_cid=1:last 0
scalar twoclienthosts.server.quic rcvMaxFrameCount_cid=1:last 0
scalar twoclienthosts.server.quic generatedBlockFrameCount_cid=1:last 0
scalar twoclienthosts.server.quic maxDataFrameLostCount_cid=0:last 0
scalar twoclienthosts.server.quic generatedMaxDataFrameCount_cid=0:last 0
scalar twoclienthosts.server.quic rcvBlockFrameCount_cid=0:last 0
scalar twoclienthosts.server.quic rcvMaxFrameCount_cid=0:last 0
scalar twoclienthosts.server.quic generatedBlockFrameCount_cid=0:last 0
scalar twoclienthosts.server.quic packetReceived:count 16
scalar twoclienthosts.server.quic packetReceived:sum(packetBytes) 5634
scalar twoclienthosts.server.quic packetSent:count 12
scalar twoclienthosts.server.quic packetSent:sum(packetBytes) 224
scalar twoclienthosts.router1.ppp[0].queue queueingTime:histogram:count 6
scalar twoclienthosts.router1.ppp[0].queue queueingTime:histogram:sumweights 6
scalar twoclienthosts.router1.ppp[0].queue queueingTime:histogram:mean 6.6666666666666668e-09
scalar twoclienthosts.router1.ppp[0].queue queueingTime:histogram:stddev 1.0633281086601006e-08
scalar twoclienthosts.router1.ppp[0].queue queueingTime:histogram:min 0
scalar twoclienthosts.router1.ppp[0].queue queueingTime:histogram:max 2.4e-08
scalar twoclienthosts.router1.ppp[0].queue queueingTime:histogram:numbins 60
scalar twoclienthosts.router1.ppp[0].queue queueingTime:histogram:rangemin 0
scalar twoclienthosts.router1.ppp[0].queue queueingTime:histogram:rangemax 3.0000000000000011e-08
scalar twoclienthosts.router1.ppp[0].queue queueingTime:histogram:underflows 0
scalar twoclienthosts.router1.ppp[0].queue queueingTime:histogram:overflows 0
scalar twoclienthosts.router1.ppp[0].queue outgoingPacketLengths:histogram:count 6
scalar twoclienthosts.router1.ppp[0].queue outgoingPacketLengths:histogram:sumweights 6
scalar twoclienthosts.router1.ppp[0].queue outgoingPacketLengths:histogram:mean 373.33333333333331
scalar twoclienthosts.router1.ppp[0].queue outgoingPacketLengths:histogram:stddev 46.830189692832491
scalar twoclienthosts.router1.ppp[0].queue outgoingPacketLengths:histogram:min 336
scalar twoclienthosts.router1.ppp[0].queue outgoingPacketLengths:histogram:max 464
scalar twoclienthosts.router1.ppp[0].queue outgoingPacketLengths:histogram:numbins 96
scalar twoclienthosts.router1.ppp[0].queue outgoingPacketLengths:histogram:rangemin 304
scalar twoclienthosts.router1.ppp[0].queue outgoingPacketLengths:histogram:rangemax 496
scalar twoclienthosts.router1.ppp[0].queue outgoingPacketLengths:histogram:underflows 0
scalar twoclienthosts.router1.ppp[0].queue outgoingPacketLengths:histogram:overflows 0
scalar twoclienthosts.router1.ppp[0].queue flowQueueingTime:histogram:count 0
scalar twoclienthosts.router1.ppp[0].queue flowQueueingTime:histogram:sumweights 0
scalar twoclienthosts.router1.ppp[0].queue flowQueueingTime:histogram:mean -nan
scalar twoclienthosts.router1.ppp[0].queue flowQueueingTime:histogram:stddev nan
scalar twoclienthosts.router1.ppp[0].queue flowQueueingTime:histogram:min nan
scalar twoclienthosts.router1.ppp[0].queue flowQueueingTime:histogram:max nan
scalar twoclienthosts.router1.ppp[0].queue flowQueueingTime:histogram:numbins 1
scalar twoclienthosts.router1.ppp[0].queue flowQueueingTime:histogram:rangemin 0
scalar twoclienthosts.router1.ppp[0].queue flowQueueingTime:histogram:rangemax 1
scalar twoclienthosts.router1.ppp[0].queue flowQueueingTime:histogram:underflows 0
scalar twoclienthosts.router1.ppp[0].queue flowQueueingTime:histogram:overflows 0
scalar twoclienthosts.router1.ppp[0].queue incomingPacketLengths:histogram:count 6
scalar twoclienthosts.router1.ppp[0].queue incomingPacketLengths:histogram:sumweights 6
scalar twoclienthosts.router1.ppp[0].queue incomingPacketLengths:histogram:mean 373.33333333333331
scalar twoclienthosts.router1.ppp[0].queue incomingPacketLengths:histogram:stddev 46.830189692832491
scalar twoclienthosts.router1.ppp[0].queue incomingPacketLengths:histogram:min 336
scalar twoclienthosts.router1.ppp[0].queue incomingPacketLengths:histogram:max 464
scalar twoclienthosts.router1.ppp[0].queue incomingPacketLengths:histogram:numbins 96
scalar twoclienthosts.router1.ppp[0].queue incomingPacketLengths:histogram:rangemin 304
scalar twoclienthosts.router1.ppp[0].queue incomingPacketLengths:histogram:rangemax 496
scalar twoclienthosts.router1.ppp[0].queue incomingPacketLengths:histogram:underflows 0
scalar twoclienthosts.router1.ppp[0].queue incomingPacketLengths:histogram:overflows 0
scalar twoclienthosts.router1.ppp[1].queue queueingTime:histogram:count 6
scalar twoclienthosts.router1.ppp[1].queue queueingTime:histogram:sumweights 6
scalar twoclienthosts.router1.ppp[1].queue queueingTime:histogram:mean 6.6666666666666668e-09
scalar twoclienthosts.router1.ppp[1].queue queueingTime:histogram:stddev 1.0633281086601006e-08
scalar twoclienthosts.router1.ppp[1].queue queueingTime:histogram:min 0
scalar twoclienthosts.router1.ppp[1].queue queueingTime:histogram:max 2.4e-08
scalar twoclienthosts.router1.ppp[1].queue queueingTime:histogram:numbins 60
scalar twoclienthosts.router1.ppp[1].queue queueingTime:histogram:rangemin 0
scalar twoclienthosts.router1.ppp[1].queue queueingTime:histogram:rangemax 3.0000000000000011e-08
scalar twoclienthosts.router1.ppp[1].queue queueingTime:histogram:underflows 0
scalar twoclienthosts.router1.ppp[1].queue queueingTime:histogram:overflows 0
scalar twoclienthosts.router1.ppp[1].queue outgoingPacketLengths:histogram:count 6
scalar twoclienthosts.router1.ppp[1].queue outgoingPacketLengths:histogram:sumweights 6
scalar twoclienthosts.router1.ppp[1].queue outgoingPacketLengths:histogram:mean 373.33333333333331
scalar twoclienthosts.router1.ppp[1].queue outgoingPacketLengths:histogram:stddev 46.830189692832491
scalar twoclienthosts.router1.ppp[1].queue outgoingPacketLengths:histogram:min 336
scalar twoclienthosts.router1.ppp[1].queue outgoingPacketLengths:histogram:max 464
scalar twoclienthosts.router1.ppp[1].queue outgoingPacketLengths:histogram:numbins 96
scalar twoclienthosts.router1.ppp[1].queue outgoingPacketLengths:histogram:rangemin 304
scalar twoclienthosts.router1.ppp[1].queue outgoingPacketLengths:histogram:rangemax 496
scalar twoclienthosts.router1.ppp[1].queue outgoingPacketLengths:histogram:underflows 0
scalar twoclienthosts.router1.ppp[1].queue outgoingPacketLengths:histogram:overflows 0
scalar twoclienthosts.router1.ppp[1].queue flowQueueingTime:histogram:count 0
scalar twoclienthosts.router1.ppp[1].queue flowQueueingTime:histogram:sumweights 0
scalar twoclienthosts.router1.ppp[1].queue flowQueueingTime:histogram:mean -nan
scalar twoclienthosts.router1.ppp[1].queue flowQueueingTime:histogram:stddev nan
scalar twoclienthosts.router1.ppp[1].queue flowQueueingTime:histogram:min nan
scalar twoclienthosts.router1.ppp[1].queue flowQueueingTime:histogram:max nan
scalar twoclienthosts.router1.ppp[1].queue flowQueueingTime:histogram:numbins 1
scalar twoclienthosts.router1.ppp[1].queue flowQueueingTime:histogram:rangemin 0
scalar twoclienthosts.router1.ppp[1].queue flowQueueingTime:histogram:rangemax 1
scalar twoclienthosts.router1.ppp[1].queue flowQueueingTime:histogram:underflows 0
scalar twoclienthosts.router1.ppp[1].queue flowQueueingTime:histogram:overflows 0
scalar twoclienthosts.router1.ppp[1].queue incomingPacketLengths:histogram:count 6
scalar twoclienthosts.router1.ppp[1].queue incomingPacketLengths:histogram:sumweights 6
scalar twoclienthosts.router1.ppp[1].queue incomingPacketLengths:histogram:mean 373.33333333333331
scalar twoclienthosts.router1.ppp[1].queue incomingPacketLengths:histogram:stddev 46.830189692832491
scalar twoclienthosts.router1.ppp[1].queue incomingPacketLengths:histogram:min 336
scalar twoclienthosts.router1.ppp[1].queue incomingPacketLengths:histogram:max 464
scalar twoclienthosts.router1.ppp[1].queue incomingPacketLengths:histogram:numbins 96
scalar twoclienthosts.router1.ppp[1].queue incomingPacketLengths:histogram:rangemin 304
scalar twoclienthosts.router1.ppp[1].queue incomingPacketLengths:histogram:rangemax 496
scalar twoclienthosts.router1.ppp[1].queue incomingPacketLengths:histogram:underflows 0
scalar twoclienthosts.router1.ppp[1].queue incomingPacketLengths:histogram:overflows 0
scalar twoclienthosts.router1.ppp[2].queue queueingTime:histogram:count 16
scalar twoclienthosts.router1.ppp[2].queue queueingTime:histogram:sumweights 16
scalar twoclienthosts.router1.ppp[2].queue queueingTime:histogram:mean 3.9565000000000002e-06
scalar twoclienthosts.router1.ppp[2].queue queueingTime:histogram:stddev 4.4538005044381284e-06
scalar twoclienthosts.router1.ppp[2].queue queueingTime:histogram:min 0
scalar twoclienthosts.router1.ppp[2].queue queueingTime:histogram:max 1.224e-05
scalar twoclienthosts.router1.ppp[2].queue queueingTime:histogram:numbins 77
scalar twoclienthosts.router1.ppp[2].queue queueingTime:histogram:rangemin 0
scalar twoclienthosts.router1.ppp[2].queue queueingTime:histogram:rangemax 1.5400000000000005e-05
scalar twoclienthosts.router1.ppp[2].queue queueingTime:histogram:underflows 0
scalar twoclienthosts.router1.ppp[2].queue queueingTime:histogram:overflows 0
scalar twoclienthosts.router1.ppp[2].queue outgoingPacketLengths:histogram:count 16
scalar twoclienthosts.router1.ppp[2].queue outgoingPacketLengths:histogram:sumweights 16
scalar twoclienthosts.router1.ppp[2].queue outgoingPacketLengths:histogram:mean 3041
scalar twoclienthosts.router1.ppp[2].queue outgoingPacketLengths:histogram:stddev 3869.9287848744711
scalar twoclienthosts.router1.ppp[2].queue outgoingPacketLengths:histogram:min 344
scalar twoclienthosts.router1.ppp[2].queue outgoingPacketLengths:histogram:max 9824
scalar twoclienthosts.router1.ppp[2].queue outgoingPacketLengths:histogram:numbins 61
scalar twoclienthosts.router1.ppp[2].queue outgoingPacketLengths:histogram:rangemin 0
scalar twoclienthosts.router1.ppp[2].queue outgoingPacketLengths:histogram:rangemax 12200
scalar twoclienthosts.router1.ppp[2].queue outgoingPacketLengths:histogram:underflows 0
scalar twoclienthosts.router1.ppp[2].queue outgoingPacketLengths:histogram:overflows 0
scalar twoclienthosts.router1.ppp[2].queue flowQueueingTime:histogram:count 0
scalar twoclienthosts.router1.ppp[2].queue flowQueueingTime:histogram:sumweights 0
scalar twoclienthosts.router1.ppp[2].queue flowQueueingTime:histogram:mean -nan
scalar twoclienthosts.router1.ppp[2].queue flowQueueingTime:histogram:stddev nan
scalar twoclienthosts.router1.ppp[2].queue flowQueueingTime:histogram:min nan
scalar twoclienthosts.router1.ppp[2].queue flowQueueingTime:histogram:max nan
scalar twoclienthosts.router1.ppp[2].queue flowQueueingTime:histogram:numbins 1
scalar twoclienthosts.router1.ppp[2].queue flowQueueingTime:histogram:rangemin 0
scalar twoclienthosts.router1.ppp[2].queue flowQueueingTime:histogram:rangemax 1
scalar twoclienthosts.router1.ppp[2].queue flowQueueingTime:histogram:underflows 0
scalar twoclienthosts.router1.ppp[2].queue flowQueueingTime:histogram:overflows 0
scalar twoclienthosts.router1.ppp[2].queue incomingPacketLengths:histogram:count 16
scalar twoclienthosts.router1.ppp[2].queue incomingPacketLengths:histogram:sumweights 16
scalar twoclienthosts.router1.ppp[2].queue incomingPacketLengths:histogram:mean 3041
scalar twoclienthosts.router1.ppp[2].queue incomingPacketLengths:histogram:stddev 3869.9287848744711
scalar twoclienthosts.router1.ppp[2].queue incomingPacketLengths:histogram:min 344
scalar twoclienthosts.router1.ppp[2].queue incomingPacketLengths:histogram:max 9824
scalar twoclienthosts.router1.ppp[2].queue incomingPacketLengths:histogram:numbins 61
scalar twoclienthosts.router1.ppp[2].queue incomingPacketLengths:histogram:rangemin 0
scalar twoclienthosts.router1.ppp[2].queue incomingPacketLengths:histogram:rangemax 12200
scalar twoclienthosts.router1.ppp[2].queue incomingPacketLengths:histogram:underflows 0
scalar twoclienthosts.router1.ppp[2].queue incomingPacketLengths:histogram:overflows 0
scalar twoclienthosts.router2.ppp[0].queue queueingTime:histogram:count 12
scalar twoclienthosts.router2.ppp[0].queue queueingTime:histogram:sumweights 12
scalar twoclienthosts.router2.ppp[0].queue queueingTime:histogram:mean 6.6666666666666668e-09
scalar twoclienthosts.router2.ppp[0].queue queueingTime:histogram:stddev 1.0138435717006778e-08
scalar twoclienthosts.router2.ppp[0].queue queueingTime:histogram:min 0
scalar twoclienthosts.router2.ppp[0].queue queueingTime:histogram:max 2.4e-08
scalar twoclienthosts.router2.ppp[0].queue queueingTime:histogram:numbins 60
scalar twoclienthosts.router2.ppp[0].queue queueingTime:histogram:rangemin 0
scalar twoclienthosts.router2.ppp[0].queue queueingTime:histogram:rangemax 3.0000000000000011e-08
scalar twoclienthosts.router2.ppp[0].queue queueingTime:histogram:underflows 0
scalar twoclienthosts.router2.ppp[0].queue queueingTime:histogram:overflows 0
scalar twoclienthosts.router2.ppp[0].queue outgoingPacketLengths:histogram:count 12
scalar twoclienthosts.router2.ppp[0].queue outgoingPacketLengths:histogram:sumweights 12
scalar twoclienthosts.router2.ppp[0].queue outgoingPacketLengths:histogram:mean 373.33333333333331
scalar twoclienthosts.router2.ppp[0].queue outgoingPacketLengths:histogram:stddev 44.650833919390315
scalar twoclienthosts.router2.ppp[0].queue outgoingPacketLengths:histogram:min 336
scalar twoclienthosts.router2.ppp[0].queue outgoingPacketLengths:histogram:max 464
scalar twoclienthosts.router2.ppp[0].queue outgoingPacketLengths:histogram:numbins 96
scalar twoclienthosts.router2.ppp[0].queue outgoingPacketLengths:histogram:rangemin 304
scalar twoclienthosts.router2.ppp[0].queue outgoingPacketLengths:histogram:rangemax 496
scalar twoclienthosts.router2.ppp[0].queue outgoingPacketLengths:histogram:underflows 0
scalar twoclienthosts.router2.ppp[0].queue outgoingPacketLengths:histogram:overflows 0
scalar twoclienthosts.router2.ppp[0].queue flowQueueingTime:histogram:count 0
scalar twoclienthosts.router2.ppp[0].queue flowQueueingTime:histogram:sumweights 0
scalar twoclienthosts.router2.ppp[0].queue flowQueueingTime:histogram:mean -nan
scalar twoclienthosts.router2.ppp[0].queue flowQueueingTime:histogram:stddev nan
scalar twoclienthosts.router2.ppp[0].queue flowQueueingTime:histogram:min nan
scalar twoclienthosts.router2.ppp[0].queue flowQueueingTime:histogram:max nan
scalar twoclienthosts.router2.ppp[0].queue flowQueueingTime:histogram:numbins 1
scalar twoclienthosts.router2.ppp[0].queue flowQueueingTime:histogram:rangemin 0
scalar twoclienthosts.router2.ppp[0].queue flowQueueingTime:histogram:rangemax 1
scalar twoclienthosts.router2.ppp[0].queue flowQueueingTime:histogram:underflows 0
scalar twoclienthosts.router2.ppp[0].queue flowQueueingTime:histogram:overflows 0
scalar twoclienthosts.router2.ppp[0].queue incomingPacketLengths:histogram:count 12
scalar twoclienthosts.router2.ppp[0].queue incomingPacketLengths:histogram:sumweights 12
scalar twoclienthosts.router2.ppp[0].queue incomingPacketLengths:histogram:mean 373.33333333333331
scalar twoclienthosts.router2.ppp[0].queue incomingPacketLengths:histogram:stddev 44.650833919390315
scalar twoclienthosts.router2.ppp[0].queue incomingPacketLengths:histogram:min 336
scalar twoclienthosts.router2.ppp[0].queue incomingPacketLengths:histogram:max 464
scalar twoclienthosts.router2.ppp[0].queue incomingPacketLengths:histogram:numbins 96
scalar twoclienthosts.router2.ppp[0].queue incomingPacketLengths:histogram:rangemin 304
scalar twoclienthosts.router2.ppp[0].queue incomingPacketLengths:histogram:rangemax 496
scalar twoclienthosts.router2.ppp[0].queue incomingPacketLengths:histogram:underflows 0
scalar twoclienthosts.router2.ppp[0].queue incomingPacketLengths:histogram:overflows 0
scalar twoclienthosts.router2.ppp[1].queue queueingTime:histogram:count 16
scalar twoclienthosts.router2.ppp[1].queue queueingTime:histogram:sumweights 16
scalar twoclienthosts.router2.ppp[1].queue queueingTime:histogram:mean 2.5025000000000002e-06
scalar twoclienthosts.router2.ppp[1].queue queueingTime:histogram:stddev 3.5456029106486241e-06
scalar twoclienthosts.router2.ppp[1].queue queueingTime:histogram:min 0
scalar twoclienthosts.router2.ppp[1].queue queueingTime:histogram:max 8.0239999999999997e-06
scalar twoclienthosts.router2.ppp[1].queue queueingTime:histogram:numbins 51
scalar twoclienthosts.router2.ppp[1].queue queueingTime:histogram:rangemin 0
scalar twoclienthosts.router2.ppp[1].queue queueingTime:histogram:rangemax 1.0200000000000002e-05
scalar twoclienthosts.router2.ppp[1].queue queueingTime:histogram:underflows 0
scalar twoclienthosts.router2.ppp[1].queue queueingTime:histogram:overflows 0
scalar twoclienthosts.router2.ppp[1].queue outgoingPacketLengths:histogram:count 16
scalar twoclienthosts.router2.ppp[1].queue outgoingPacketLengths:histogram:sumweights 16
scalar twoclienthosts.router2.ppp[1].queue outgoingPacketLengths:histogram:mean 3041
scalar twoclienthosts.router2.ppp[1].queue outgoingPacketLengths:histogram:stddev 3869.9287848744711
scalar twoclienthosts.router2.ppp[1].queue outgoingPacketLengths:histogram:min 344
scalar twoclienthosts.router2.ppp[1].queue outgoingPacketLengths:histogram:max 9824
scalar twoclienthosts.router2.ppp[1].queue outgoingPacketLengths:histogram:numbins 61
scalar twoclienthosts.router2.ppp[1].queue outgoingPacketLengths:histogram:rangemin 0
scalar twoclienthosts.router2.ppp[1].queue outgoingPacketLengths:histogram:rangemax 12200
scalar twoclienthosts.router2.ppp[1].queue outgoingPacketLengths:histogram:underflows 0
scalar twoclienthosts.router2.ppp[1].queue outgoingPacketLengths:histogram:overflows 0
scalar twoclienthosts.router2.ppp[1].queue flowQueueingTime:histogram:count 0
scalar twoclienthosts.router2.ppp[1].queue flowQueueingTime:histogram:sumweights 0
scalar twoclienthosts.router2.ppp[1].queue flowQueueingTime:histogram:mean -nan
scalar twoclienthosts.router2.ppp[1].queue flowQueueingTime:histogram:stddev nan
scalar twoclienthosts.router2.ppp[1].queue flowQueueingTime:histogram:min nan
scalar twoclienthosts.router2.ppp[1].queue flowQueueingTime:histogram:max nan
scalar twoclienthosts.router2.ppp[1].queue flowQueueingTime:histogram:numbins 1
scalar twoclienthosts.router2.ppp[1].queue flowQueueingTime:histogram:rangemin 0
scalar twoclienthosts.router2.ppp[1].queue flowQueueingTime:histogram:rangemax 1
scalar twoclienthosts.router2.ppp[1].queue flowQueueingTime:histogram:underflows 0
scalar twoclienthosts.router2.ppp[1].queue flowQueueingTime:histogram:overflows 0
scalar twoclienthosts.router2.ppp[1].queue incomingPacketLengths:histogram:count 16
scalar twoclienthosts.router2.ppp[1].queue incomingPacketLengths:histogram:sumweights 16
scalar twoclienthosts.router2.ppp[1].queue incomingPacketLengths:histogram:mean 3041
scalar twoclienthosts.router2.ppp[1].queue incomingPacketLengths:histogram:stddev 3869.9287848744711
scalar twoclienthosts.router2.ppp[1].queue incomingPacketLengths:histogram:min 344
scalar twoclienthosts.router2.ppp[1].queue incomingPacketLengths:histogram:max 9824
scalar twoclienthosts.router2.ppp[1].queue incomingPacketLengths:histogram:numbins 61
scalar twoclienthosts.router2.ppp[1].queue incomingPacketLengths:histogram:rangemin 0
scalar twoclienthosts.router2.ppp[1].queue incomingPacketLengths:histogram:rangemax 12200
scalar twoclienthosts.router2.ppp[1].queue incomingPacketLengths:histogram:underflows 0
scalar twoclienthosts.router2.ppp[1].queue incomingPacketLengths:histogram:overflows 0
scalar twoclienthosts.client1.ppp[0].queue queueingTime:histogram:count 8
scalar twoclienthosts.client1.ppp[0].queue queueingTime:histogram:sumweights 8
scalar twoclienthosts.client1.ppp[0].queue queueingTime:histogram:mean 2.8220000000000003e-06
scalar twoclienthosts.client1.ppp[0].queue queueingTime:histogram:stddev 5.2300892098373567e-06
scalar twoclienthosts.client1.ppp[0].queue queueingTime:histogram:min 0
scalar twoclienthosts.client1.ppp[0].queue queueingTime:histogram:max 1.3288000000000001e-05
scalar twoclienthosts.client1.ppp[0].queue queueingTime:histogram:numbins 84
scalar twoclienthosts.client1.ppp[0].queue queueingTime:histogram:rangemin 0
scalar twoclienthosts.client1.ppp[0].queue queueingTime:histogram:rangemax 1.6800000000000005e-05
scalar twoclienthosts.client1.ppp[0].queue queueingTime:histogram:underflows 0
scalar twoclienthosts.client1.ppp[0].queue queueingTime:histogram:overflows 0
scalar twoclienthosts.client1.ppp[0].queue outgoingPacketLengths:histogram:count 8
scalar twoclienthosts.client1.ppp[0].queue outgoingPacketLengths:histogram:sumweights 8
scalar twoclienthosts.client1.ppp[0].queue outgoingPacketLengths:histogram:mean 3041
scalar twoclienthosts.client1.ppp[0].queue outgoingPacketLengths:histogram:stddev 4005.7568573242188
scalar twoclienthosts.client1.ppp[0].queue outgoingPacketLengths:histogram:min 344
scalar twoclienthosts.client1.ppp[0].queue outgoingPacketLengths:histogram:max 9824
scalar twoclienthosts.client1.ppp[0].queue outgoingPacketLengths:histogram:numbins 61
scalar twoclienthosts.client1.ppp[0].queue outgoingPacketLengths:histogram:rangemin 0
scalar twoclienthosts.client1.ppp[0].queue outgoingPacketLengths:histogram:rangemax 12200
scalar twoclienthosts.client1.ppp[0].queue outgoingPacketLengths:histogram:underflows 0
scalar twoclienthosts.client1.ppp[0].queue outgoingPacketLengths:histogram:overflows 0
scalar twoclienthosts.client1.ppp[0].queue flowQueueingTime:histogram:count 0
scalar twoclienthosts.client1.ppp[0].queue flowQueueingTime:histogram:sumweights 0
scalar twoclienthosts.client1.ppp[0].queue flowQueueingTime:histogram:mean -nan
scalar twoclienthosts.client1.ppp[0].queue flowQueueingTime:histogram:stddev nan
scalar twoclienthosts.client1.ppp[0].queue flowQueueingTime:histogram:min nan
scalar twoclienthosts.client1.ppp[0].queue flowQueueingTime:histogram:max nan
scalar twoclienthosts.client1.ppp[0].queue flowQueueingTime:histogram:numbins 1
scalar twoclienthosts.client1.ppp[0].queue flowQueueingTime:histogram:rangemin 0
scalar twoclienthosts.client1.ppp[0].queue flowQueueingTime:histogram:rangemax 1
scalar twoclienthosts.client1.ppp[0].queue flowQueueingTime:histogram:underflows 0
scalar twoclienthosts.client1.ppp[0].queue flowQueueingTime:histogram:overflows 0
scalar twoclienthosts.client1.ppp[0].queue incomingPacketLengths:histogram:count 8
scalar twoclienthosts.client1.ppp[0].queue incomingPacketLengths:histogram:sumweights 8
scalar twoclienthosts.client1.ppp[0].queue incomingPacketLengths:histogram:mean 3041
scalar twoclienthosts.client1.ppp[0].queue incomingPacketLengths:histogram:stddev 4005.7568573242188
scalar twoclienthosts.client1.ppp[0].queue incomingPacketLengths:histogram:min 344
scalar twoclienthosts.client1.ppp[0].queue incomingPacketLengths:histogram:max 9824
scalar twoclienthosts.client1.ppp[0].queue incomingPacketLengths:histogram:numbins 61
scalar twoclienthosts.client1.ppp[0].queue incomingPacketLengths:histogram:rangemin 0
scalar twoclienthosts.client1.ppp[0].queue incomingPacketLengths:histogram:rangemax 12200
scalar twoclienthosts.client1.ppp[0].queue incomingPacketLengths:histogram:underflows 0
scalar twoclienthosts.client1.ppp[0].queue incomingPacketLengths:histogram:overflows 0
scalar twoclienthosts.client2.ppp[0].queue queueingTime:histogram:count 8
scalar twoclienthosts.client2.ppp[0].queue queueingTime:histogram:sumweights 8
scalar twoclienthosts.client2.ppp[0].queue queueingTime:histogram:mean 2.8220000000000003e-06
scalar twoclienthosts.client2.ppp[0].queue queueingTime:histogram:stddev 5.2300892098373567e-06
scalar twoclienthosts.client2.ppp[0].queue queueingTime:histogram:min 0
scalar twoclienthosts.client2.ppp[0].queue queueingTime:histogram:max 1.3288000000000001e-05
scalar twoclienthosts.client2.ppp[0].queue queueingTime:histogram:numbins 84
scalar twoclienthosts.client2.ppp[0].queue queueingTime:histogram:rangemin 0
scalar twoclienthosts.client2.ppp[0].queue queueingTime:histogram:rangemax 1.6800000000000005e-05
scalar twoclienthosts.client2.ppp[0].queue queueingTime:histogram:underflows 0
scalar twoclienthosts.client2.ppp[0].queue queueingTime:histogram:overflows 0
scalar twoclienthosts.client2.ppp[0].queue outgoingPacketLengths:histogram:count 8
scalar twoclienthosts.client2.ppp[0].queue outgoingPacketLengths:histogram:sumweights 8
scalar twoclienthosts.client2.ppp[0].queue outgoingPacketLengths:histogram:mean 3041
scalar twoclienthosts.client2.ppp[0].queue outgoingPacketLengths:histogram:stddev 4005.7568573242188
scalar twoclienthosts.client2.ppp[0].queue outgoingPacketLengths:histogram:min 344
scalar twoclienthosts.client2.ppp[0].queue outgoingPacketLengths:histogram:max 9824
scalar twoclienthosts.client2.ppp[0].queue outgoingPacketLengths:histogram:numbins 61
scalar twoclienthosts.client2.ppp[0].queue outgoingPacketLengths:histogram:rangemin 0
scalar twoclienthosts.client2.ppp[0].queue outgoingPacketLengths:histogram:rangemax 12200
scalar twoclienthosts.client2.ppp[0].queue outgoingPacketLengths:histogram:underflows 0
scalar twoclienthosts.client2.ppp[0].queue outgoingPacketLengths:histogram:overflows 0
scalar twoclienthosts.client2.ppp[0].queue flowQueueingTime:histogram:count 0
scalar twoclienthosts.client2.ppp[0].queue flowQueueingTime:histogram:sumweights 0
scalar twoclienthosts.client2.ppp[0].queue flowQueueingTime:histogram:mean -nan
scalar twoclienthosts.client2.ppp[0].queue flowQueueingTime:histogram:stddev nan
scalar twoclienthosts.client2.ppp[0].queue flowQueueingTime:histogram:min nan
scalar twoclienthosts.client2.ppp[0].queue flowQueueingTime:histogram:max nan
scalar twoclienthosts.client2.ppp[0].queue flowQueueingTime:histogram:numbins 1
scalar twoclienthosts.client2.ppp[0].queue flowQueueingTime:histogram:rangemin 0
scalar twoclienthosts.client2.ppp[0].queue flowQueueingTime:histogram:rangemax 1
scalar twoclienthosts.client2.ppp[0].queue flowQueueingTime:histogram:underflows 0
scalar twoclienthosts.client2.ppp[0].queue flowQueueingTime:histogram:overflows 0
scalar twoclienthosts.client2.ppp[0].queue incomingPacketLengths:histogram:count 8
scalar twoclienthosts.client2.ppp[0].queue incomingPacketLengths:histogram:sumweights 8
scalar twoclienthosts.client2.ppp[0].queue incomingPacketLengths:histogram:mean 3041
scalar twoclienthosts.client2.ppp[0].queue incomingPacketLengths:histogram:stddev 4005.7568573242188
scalar twoclienthosts.client2.ppp[0].queue incomingPacketLengths:histogram:min 344
scalar twoclienthosts.client2.ppp[0].queue incomingPacketLengths:histogram:max 9824
scalar twoclienthosts.client2.ppp[0].queue incomingPacketLengths:histogram:numbins 61
scalar twoclienthosts.client2.ppp[0].queue incomingPacketLengths:histogram:rangemin 0
scalar twoclienthosts.client2.ppp[0].queue incomingPacketLengths:histogram:rangemax 12200
scalar twoclienthosts.client2.ppp[0].queue incomingPacketLengths:histogram:underflows 0
scalar twoclienthosts.client2.ppp[0].queue incomingPacketLengths:histogram:overflows 0
scalar twoclienthosts.server.ppp[0].queue queueingTime:histogram:count 12
scalar twoclienthosts.server.ppp[0].queue queueingTime:histogram:sumweights 12
scalar twoclienthosts.server.ppp[0].queue queueingTime:histogram:mean 1.4399999999999999e-07
scalar twoclienthosts.server.ppp[0].queue queueingTime:histogram:stddev 2.0416036477596367e-07
scalar twoclienthosts.server.ppp[0].queue queueingTime:histogram:min 0
scalar twoclienthosts.server.ppp[0].queue queueingTime:histogram:max 4.32e-07
scalar twoclienthosts.server.ppp[0].queue queueingTime:histogram:numbins 54
scalar twoclienthosts.server.ppp[0].queue queueingTime:histogram:rangemin 0
scalar twoclienthosts.server.ppp[0].queue queueingTime:histogram:rangemax 5.4000000000000012e-07
scalar twoclienthosts.server.ppp[0].queue queueingTime:histogram:underflows 0
scalar twoclienthosts.server.ppp[0].queue queueingTime:histogram:overflows 0
scalar twoclienthosts.server.ppp[0].queue outgoingPacketLengths:histogram:count 12
scalar twoclienthosts.server.ppp[0].queue outgoingPacketLengths:histogram:sumweights 12
scalar twoclienthosts.server.ppp[0].queue outgoingPacketLengths:histogram:mean 373.33333333333331
scalar twoclienthosts.server.ppp[0].queue outgoingPacketLengths:histogram:stddev 44.650833919390315
scalar twoclienthosts.server.ppp[0].queue outgoingPacketLengths:histogram:min 336
scalar twoclienthosts.server.ppp[0].queue outgoingPacketLengths:histogram:max 464
scalar twoclienthosts.server.ppp[0].queue outgoingPacketLengths:histogram:numbins 96
scalar twoclienthosts.server.ppp[0].queue outgoingPacketLengths:histogram:rangemin 304
scalar twoclienthosts.server.ppp[0].queue outgoingPacketLengths:histogram:rangemax 496
scalar twoclienthosts.server.ppp[0].queue outgoingPacketLengths:histogram:underflows 0
scalar twoclienthosts.server.ppp[0].queue outgoingPacketLengths:histogram:overflows 0
scalar twoclienthosts.server.ppp[0].queue flowQueueingTime:histogram:count 0
scalar twoclienthosts.server.ppp[0].queue flowQueueingTime:histogram:sumweights 0
scalar twoclienthosts.server.ppp[0].queue flowQueueingTime:histogram:mean -nan
scalar twoclienthosts.server.ppp[0].queue flowQueueingTime:histogram:stddev nan
scalar twoclienthosts.server.ppp[0].queue flowQueueingTime:histogram:min nan
scalar twoclienthosts.server.ppp[0].queue flowQueueingTime:histogram:max nan
scalar twoclienthosts.server.ppp[0].queue flowQueueingTime:histogram:numbins 1
scalar twoclienthosts.server.ppp[0].queue flowQueueingTime:histogram:rangemin 0
scalar twoclienthosts.server.ppp[0].queue flowQueueingTime:histogram:rangemax 1
scalar twoclienthosts.server.ppp[0].queue flowQueueingTime:histogram:underflows 0
scalar twoclienthosts.server.ppp[0].queue flowQueueingTime:histogram:overflows 0
scalar twoclienthosts.server.ppp[0].queue incomingPacketLengths:histogram:count 12
scalar twoclienthosts.server.ppp[0].queue incomingPacketLengths:histogram:sumweights 12
scalar twoclienthosts.server.ppp[0].queue incomingPacketLengths:histogram:mean 373.33333333333331
scalar twoclienthosts.server.ppp[0].queue incomingPacketLengths:histogram:stddev 44.650833919390315
scalar twoclienthosts.server.ppp[0].queue incomingPacketLengths:histogram:min 336
scalar twoclienthosts.server.ppp[0].queue incomingPacketLengths:histogram:max 464
scalar twoclienthosts.server.ppp[0].queue incomingPacketLengths:histogram:numbins 96
scalar twoclienthosts.server.ppp[0].queue incomingPacketLengths:histogram:rangemin 304
scalar twoclienthosts.server.ppp[0].queue incomingPacketLengths:histogram:rangemax 496
scalar twoclienthosts.server.ppp[0].queue incomingPacketLengths:histogram:underflows 0
scalar twoclienthosts.server.ppp[0].queue incomingPacketLengths:histogram:overflows 0
statistic twoclienthosts.router1.ppp[0].queue queueingTime:histogram
field count 6
field mean 6.6666666666666668e-09
field stddev 1.0633281086601006e-08
field min 0
field max 2.4e-08
field sum 4.0000000000000001e-08
field sqrsum 8.3200000000000001e-16
bin	-inf	0
bin	0	4
bin	5.0000000000000013e-10	0
bin	1.0000000000000003e-09	0
bin	1.5000000000000004e-09	0
bin	2.0000000000000005e-09	0
bin	2.5000000000000009e-09	0
bin	3.0000000000000008e-09	0
bin	3.5000000000000007e-09	0
bin	4.0000000000000011e-09	0
bin	4.5000000000000014e-09	0
bin	5.0000000000000018e-09	0
bin	5.5000000000000013e-09	0
bin	6.0000000000000016e-09	0
bin	6.500000000000002e-09	0
bin	7.0000000000000015e-09	0
bin	7.5000000000000026e-09	0
bin	8.0000000000000022e-09	0
bin	8.5000000000000017e-09	0
bin	9.0000000000000028e-09	0
bin	9.5000000000000023e-09	0
bin	1.0000000000000004e-08	0
bin	1.0500000000000003e-08	0
bin	1.1000000000000003e-08	0
bin	1.1500000000000004e-08	0
bin	1.2000000000000003e-08	0
bin	1.2500000000000003e-08	0
bin	1.3000000000000004e-08	0
bin	1.3500000000000003e-08	0
bin	1.4000000000000003e-08	0
bin	1.4500000000000004e-08	0
bin	1.5000000000000005e-08	0
bin	1.5500000000000003e-08	1
bin	1.6000000000000004e-08	0
bin	1.6500000000000005e-08	0
bin	1.7000000000000003e-08	0
bin	1.7500000000000005e-08	0
bin	1.8000000000000006e-08	0
bin	1.8500000000000004e-08	0
bin	1.9000000000000005e-08	0
bin	1.9500000000000006e-08	0
bin	2.0000000000000007e-08	0
bin	2.0500000000000005e-08	0
bin	2.1000000000000006e-08	0
bin	2.1500000000000007e-08	0
bin	2.2000000000000005e-08	0
bin	2.2500000000000006e-08	0
bin	2.3000000000000007e-08	0
bin	2.3500000000000005e-08	1
bin	2.4000000000000006e-08	0
bin	2.4500000000000008e-08	0
bin	2.5000000000000005e-08	0
bin	2.5500000000000007e-08	0
bin	2.6000000000000008e-08	0
bin	2.6500000000000006e-08	0
bin	2.7000000000000007e-08	0
bin	2.7500000000000008e-08	0
bin	2.8000000000000006e-08	0
bin	2.8500000000000007e-08	0
bin	2.9000000000000008e-08	0
bin	2.9500000000000009e-08	0
bin	3.0000000000000011e-08	0
statistic twoclienthosts.router1.ppp[0].queue outgoingPacketLengths:histogram
field count 6
field mean 373.33333333333331
field stddev 46.830189692832491
field min 336
field max 464
field sum 2240
field sqrsum 847232
bin	-inf	0
bin	304	0
bin	306	0
bin	308	0
bin	310	0
bin	312	0
bin	314	0
bin	316	0
bin	318	0
bin	320	0
bin	322	0
bin	324	0
bin	326	0
bin	328	0
bin	330	0
bin	332	0
bin	334	0
bin	336	1
bin	338	0
bin	340	0
bin	342	0
bin	344	1
bin	346	0
bin	348	0
bin	350	0
bin	352	1
bin	354	0
bin	356	0
bin	358	0
bin	360	0
bin	362	0
bin	364	0
bin	366	0
bin	368	1
bin	370	0
bin	372	0
bin	374	0
bin	376	1
bin	378	0
bin	380	0
bin	382	0
bin	384	0
bin	386	0
bin	388	0
bin	390	0
bin	392	0
bin	394	0
bin	396	0
bin	398	0
bin	400	0
bin	402	0
bin	404	0
bin	406	0
bin	408	0
bin	410	0
bin	412	0
bin	414	0
bin	416	0
bin	418	0
bin	420	0
bin	422	0
bin	424	0
bin	426	0
bin	428	0
bin	430	0
bin	432	0
bin	434	0
bin	436	0
bin	438	0
bin	440	0
bin	442	0
bin	444	0
bin	446	0
bin	448	0
bin	450	0
bin	452	0
bin	454	0
bin	456	0
bin	458	0
bin	460	0
bin	462	0
bin	464	1
bin	466	0
bin	468	0
bin	470	0
bin	472	0
bin	474	0
bin	476	0
bin	478	0
bin	480	0
bin	482	0
bin	484	0
bin	486	0
bin	488	0
bin	490	0
bin	492	0
bin	494	0
bin	496	0
statistic twoclienthosts.router1.ppp[0].queue flowQueueingTime:histogram
field count 0
field mean -nan
field stddev nan
field min nan
field max nan
field sum 0
field sqrsum 0
bin	-inf	0
bin	0	0
bin	1	0
statistic twoclienthosts.router1.ppp[0].queue incomingPacketLengths:histogram
field count 6
field mean 373.33333333333331
field stddev 46.830189692832491
field min 336
field max 464
field sum 2240
field sqrsum 847232
bin	-inf	0
bin	304	0
bin	306	0
bin	308	0
bin	310	0
bin	312	0
bin	314	0
bin	316	0
bin	318	0
bin	320	0
bin	322	0
bin	324	0
bin	326	0
bin	328	0
bin	330	0
bin	332	0
bin	334	0
bin	336	1
bin	338	0
bin	340	0
bin	342	0
bin	344	1
bin	346	0
bin	348	0
bin	350	0
bin	352	1
bin	354	0
bin	356	0
bin	358	0
bin	360	0
bin	362	0
bin	364	0
bin	366	0
bin	368	1
bin	370	0
bin	372	0
bin	374	0
bin	376	1
bin	378	0
bin	380	0
bin	382	0
bin	384	0
bin	386	0
bin	388	0
bin	390	0
bin	392	0
bin	394	0
bin	396	0
bin	398	0
bin	400	0
bin	402	0
bin	404	0
bin	406	0
bin	408	0
bin	410	0
bin	412	0
bin	414	0
bin	416	0
bin	418	0
bin	420	0
bin	422	0
bin	424	0
bin	426	0
bin	428	0
bin	430	0
bin	432	0
bin	434	0
bin	436	0
bin	438	0
bin	440	0
bin	442	0
bin	444	0
bin	446	0
bin	448	0
bin	450	0
bin	452	0
bin	454	0
bin	456	0
bin	458	0
bin	460	0
bin	462	0
bin	464	1
bin	466	0
bin	468	0
bin	470	0
bin	472	0
bin	474	0
bin	476	0
bin	478	0
bin	480	0
bin	482	0
bin	484	0
bin	486	0
bin	488	0
bin	490	0
bin	492	0
bin	494	0
bin	496	0
statistic twoclienthosts.router1.ppp[1].queue queueingTime:histogram
field count 6
field mean 6.6666666666666668e-09
field stddev 1.0633281086601006e-08
field min 0
field max 2.4e-08
field sum 4.0000000000000001e-08
field sqrsum 8.3200000000000001e-16
bin	-inf	0
bin	0	4
bin	5.0000000000000013e-10	0
bin	1.0000000000000003e-09	0
bin	1.5000000000000004e-09	0
bin	2.0000000000000005e-09	0
bin	2.5000000000000009e-09	0
bin	3.0000000000000008e-09	0
bin	3.5000000000000007e-09	0
bin	4.0000000000000011e-09	0
bin	4.5000000000000014e-09	0
bin	5.0000000000000018e-09	0
bin	5.5000000000000013e-09	0
bin	6.0000000000000016e-09	0
bin	6.500000000000002e-09	0
bin	7.0000000000000015e-09	0
bin	7.5000000000000026e-09	0
bin	8.0000000000000022e-09	0
bin	8.5000000000000017e-09	0
bin	9.0000000000000028e-09	0
bin	9.5000000000000023e-09	0
bin	1.0000000000000004e-08	0
bin	1.0500000000000003e-08	0
bin	1.1000000000000003e-08	0
bin	1.1500000000000004e-08	0
bin	1.2000000000000003e-08	0
bin	1.2500000000000003e-08	0
bin	1.3000000000000004e-08	0
bin	1.3500000000000003e-08	0
bin	1.4000000000000003e-08	0
bin	1.4500000000000004e-08	0
bin	1.5000000000000005e-08	0
bin	1.5500000000000003e-08	1
bin	1.6000000000000004e-08	0
bin	1.6500000000000005e-08	0
bin	1.7000000000000003e-08	0
bin	1.7500000000000005e-08	0
bin	1.8000000000000006e-08	0
bin	1.8500000000000004e-08	0
bin	1.9000000000000005e-08	0
bin	1.9500000000000006e-08	0
bin	2.0000000000000007e-08	0
bin	2.0500000000000005e-08	0
bin	2.1000000000000006e-08	0
bin	2.1500000000000007e-08	0
bin	2.2000000000000005e-08	0
bin	2.2500000000000006e-08	0
bin	2.3000000000000007e-08	0
bin	2.3500000000000005e-08	1
bin	2.4000000000000006e-08	0
bin	2.4500000000000008e-08	0
bin	2.5000000000000005e-08	0
bin	2.5500000000000007e-08	0
bin	2.6000000000000008e-08	0
bin	2.6500000000000006e-08	0
bin	2.7000000000000007e-08	0
bin	2.7500000000000008e-08	0
bin	2.8000000000000006e-08	0
bin	2.8500000000000007e-08	0
bin	2.9000000000000008e-08	0
bin	2.9500000000000009e-08	0
bin	3.0000000000000011e-08	0
statistic twoclienthosts.router1.ppp[1].queue outgoingPacketLengths:histogram
field count 6
field mean 373.33333333333331
field stddev 46.830189692832491
field min 336
field max 464
field sum 2240
field sqrsum 847232
bin	-inf	0
bin	304	0
bin	306	0
bin	308	0
bin	310	0
bin	312	0
bin	314	0
bin	316	0
bin	318	0
bin	320	0
bin	322	0
bin	324	0
bin	326	0
bin	328	0
bin	330	0
bin	332	0
bin	334	0
bin	336	1
bin	338	0
bin	340	0
bin	342	0
bin	344	1
bin	346	0
bin	348	0
bin	350	0
bin	352	1
bin	354	0
bin	356	0
bin	358	0
bin	360	0
bin	362	0
bin	364	0
bin	366	0
bin	368	1
bin	370	0
bin	372	0
bin	374	0
bin	376	1
bin	378	0
bin	380	0
bin	382	0
bin	384	0
bin	386	0
bin	388	0
bin	390	0
bin	392	0
bin	394	0
bin	396	0
bin	398	0
bin	400	0
bin	402	0
bin	404	0
bin	406	0
bin	408	0
bin	410	0
bin	412	0
bin	414	0
bin	416	0
bin	418	0
bin	420	0
bin	422	0
bin	424	0
bin	426	0
bin	428	0
bin	430	0
bin	432	0
bin	434	0
bin	436	0
bin	438	0
bin	440	0
bin	442	0
bin	444	0
bin	446	0
bin	448	0
bin	450	0
bin	452	0
bin	454	0
bin	456	0
bin	458	0
bin	460	0
bin	462	0
bin	464	1
bin	466	0
bin	468	0
bin	470	0
bin	472	0
bin	474	0
bin	476	0
bin	478	0
bin	480	0
bin	482	0
bin	484	0
bin	486	0
bin	488	0
bin	490	0
bin	492	0
bin	494	0
bin	496	0
statistic twoclienthosts.router1.ppp[1].queue flowQueueingTime:histogram
field count 0
field mean -nan
field stddev nan
field min nan
field max nan
field sum 0
field sqrsum 0
bin	-inf	0
bin	0	0
bin	1	0
statistic twoclienthosts.router1.ppp[1].queue incomingPacketLengths:histogram
field count 6
field mean 373.33333333333331
field stddev 46.830189692832491
field min 336
field max 464
field sum 2240
field sqrsum 847232
bin	-inf	0
bin	304	0
bin	306	0
bin	308	0
bin	310	0
bin	312	0
bin	314	0
bin	316	0
bin	318	0
bin	320	0
bin	322	0
bin	324	0
bin	326	0
bin	328	0
bin	330	0
bin	332	0
bin	334	0
bin	336	1
bin	338	0
bin	340	0
bin	342	0
bin	344	1
bin	346	0
bin	348	0
bin	350	0
bin	352	1
bin	354	0
bin	356	0
bin	358	0
bin	360	0
bin	362	0
bin	364	0
bin	366	0
bin	368	1
bin	370	0
bin	372	0
bin	374	0
bin	376	1
bin	378	0
bin	380	0
bin	382	0
bin	384	0
bin	386	0
bin	388	0
bin	390	0
bin	392	0
bin	394	0
bin	396	0
bin	398	0
bin	400	0
bin	402	0
bin	404	0
bin	406	0
bin	408	0
bin	410	0
bin	412	0
bin	414	0
bin	416	0
bin	418	0
bin	420	0
bin	422	0
bin	424	0
bin	426	0
bin	428	0
bin	430	0
bin	432	0
bin	434	0
bin	436	0
bin	438	0
bin	440	0
bin	442	0
bin	444	0
bin	446	0
bin	448	0
bin	450	0
bin	452	0
bin	454	0
bin	456	0
bin	458	0
bin	460	0
bin	462	0
bin	464	1
bin	466	0
bin	468	0
bin	470	0
bin	472	0
bin	474	0
bin	476	0
bin	478	0
bin	480	0
bin	482	0
bin	484	0
bin	486	0
bin	488	0
bin	490	0
bin	492	0
bin	494	0
bin	496	0
statistic twoclienthosts.router1.ppp[2].queue queueingTime:histogram
field count 16
field mean 3.9565000000000002e-06
field stddev 4.4538005044381284e-06
field min 0
field max 1.224e-05
field sum 6.3304000000000002e-05
field sqrsum 5.4800735999999998e-10
bin	-inf	0
bin	0	8
bin	2.0000000000000004e-07	0
bin	4.0000000000000009e-07	0
bin	6.0000000000000018e-07	0
bin	8.0000000000000018e-07	0
bin	1.0000000000000002e-06	0
bin	1.2000000000000004e-06	0
bin	1.4000000000000004e-06	0
bin	1.6000000000000004e-06	0
bin	1.8000000000000003e-06	0
bin	2.0000000000000003e-06	0
bin	2.2000000000000005e-06	0
bin	2.4000000000000007e-06	0
bin	2.6000000000000005e-06	0
bin	2.8000000000000007e-06	0
bin	3.0000000000000005e-06	0
bin	3.2000000000000007e-06	0
bin	3.4000000000000009e-06	0
bin	3.6000000000000007e-06	0
bin	3.8000000000000009e-06	0
bin	4.0000000000000007e-06	0
bin	4.2000000000000013e-06	1
bin	4.4000000000000011e-06	0
bin	4.6000000000000009e-06	0
bin	4.8000000000000015e-06	1
bin	5.0000000000000013e-06	0
bin	5.200000000000001e-06	0
bin	5.4000000000000008e-06	0
bin	5.6000000000000014e-06	0
bin	5.8000000000000012e-06	0
bin	6.000000000000001e-06	0
bin	6.2000000000000016e-06	0
bin	6.4000000000000014e-06	0
bin	6.6000000000000012e-06	0
bin	6.8000000000000018e-06	0
bin	7.0000000000000016e-06	0
bin	7.2000000000000014e-06	1
bin	7.400000000000002e-06	0
bin	7.6000000000000018e-06	1
bin	7.8000000000000016e-06	0
bin	8.0000000000000013e-06	0
bin	8.2000000000000011e-06	1
bin	8.4000000000000026e-06	0
bin	8.6000000000000024e-06	0
bin	8.8000000000000021e-06	1
bin	9.0000000000000019e-06	0
bin	9.2000000000000017e-06	0
bin	9.4000000000000015e-06	0
bin	9.600000000000003e-06	0
bin	9.8000000000000027e-06	1
bin	1.0000000000000003e-05	0
bin	1.0200000000000002e-05	0
bin	1.0400000000000002e-05	0
bin	1.0600000000000002e-05	0
bin	1.0800000000000002e-05	0
bin	1.1000000000000003e-05	0
bin	1.1200000000000003e-05	0
bin	1.1400000000000003e-05	0
bin	1.1600000000000002e-05	0
bin	1.1800000000000002e-05	0
bin	1.2000000000000002e-05	0
bin	1.2200000000000003e-05	1
bin	1.2400000000000003e-05	0
bin	1.2600000000000003e-05	0
bin	1.2800000000000003e-05	0
bin	1.3000000000000003e-05	0
bin	1.3200000000000002e-05	0
bin	1.3400000000000002e-05	0
bin	1.3600000000000004e-05	0
bin	1.3800000000000003e-05	0
bin	1.4000000000000003e-05	0
bin	1.4200000000000003e-05	0
bin	1.4400000000000003e-05	0
bin	1.4600000000000003e-05	0
bin	1.4800000000000004e-05	0
bin	1.5000000000000004e-05	0
bin	1.5200000000000004e-05	0
bin	1.5400000000000005e-05	0
statistic twoclienthosts.router1.ppp[2].queue outgoingPacketLengths:histogram
field count 16
field mean 3041
field stddev 3869.9287848744711
field min 344
field max 9824
field sum 48656
field sqrsum 372608128
bin	-inf	0
bin	0	0
bin	200	10
bin	400	0
bin	600	0
bin	800	0
bin	1000	0
bin	1200	0
bin	1400	0
bin	1600	0
bin	1800	0
bin	2000	0
bin	2200	0
bin	2400	0
bin	2600	0
bin	2800	0
bin	3000	0
bin	3200	0
bin	3400	0
bin	3600	0
bin	3800	0
bin	4000	0
bin	4200	2
bin	4400	0
bin	4600	0
bin	4800	0
bin	5000	0
bin	5200	0
bin	5400	0
bin	5600	0
bin	5800	0
bin	6000	0
bin	6200	0
bin	6400	0
bin	6600	0
bin	6800	0
bin	7000	0
bin	7200	0
bin	7400	0
bin	7600	0
bin	7800	0
bin	8000	0
bin	8200	2
bin	8400	0
bin	8600	0
bin	8800	0
bin	9000	0
bin	9200	0
bin	9400	0
bin	9600	0
bin	9800	2
bin	10000	0
bin	10200	0
bin	10400	0
bin	10600	0
bin	10800	0
bin	11000	0
bin	11200	0
bin	11400	0
bin	11600	0
bin	11800	0
bin	12000	0
bin	12200	0
statistic twoclienthosts.router1.ppp[2].queue flowQueueingTime:histogram
field count 0
field mean -nan
field stddev nan
field min nan
field max nan
field sum 0
field sqrsum 0
bin	-inf	0
bin	0	0
bin	1	0
statistic twoclienthosts.router1.ppp[2].queue incomingPacketLengths:histogram
field count 16
field mean 3041
field stddev 3869.9287848744711
field min 344
field max 9824
field sum 48656
field sqrsum 372608128
bin	-inf	0
bin	0	0
bin	200	10
bin	400	0
bin	600	0
bin	800	0
bin	1000	0
bin	1200	0
bin	1400	0
bin	1600	0
bin	1800	0
bin	2000	0
bin	2200	0
bin	2400	0
bin	2600	0
bin	2800	0
bin	3000	0
bin	3200	0
bin	3400	0
bin	3600	0
bin	3800	0
bin	4000	0
bin	4200	2
bin	4400	0
bin	4600	0
bin	4800	0
bin	5000	0
bin	5200	0
bin	5400	0
bin	5600	0
bin	5800	0
bin	6000	0
bin	6200	0
bin	6400	0
bin	6600	0
bin	6800	0
bin	7000	0
bin	7200	0
bin	7400	0
bin	7600	0
bin	7800	0
bin	8000	0
bin	8200	2
bin	8400	0
bin	8600	0
bin	8800	0
bin	9000	0
bin	9200	0
bin	9400	0
bin	9600	0
bin	9800	2
bin	10000	0
bin	10200	0
bin	10400	0
bin	10600	0
bin	10800	0
bin	11000	0
bin	11200	0
bin	11400	0
bin	11600	0
bin	11800	0
bin	12000	0
bin	12200	0
statistic twoclienthosts.router2.ppp[0].queue queueingTime:histogram
field count 12
field mean 6.6666666666666668e-09
field stddev 1.0138435717006778e-08
field min 0
field max 2.4e-08
field sum 8.0000000000000002e-08
field sqrsum 1.6639999999999998e-15
bin	-inf	0
bin	0	8
bin	5.0000000000000013e-10	0
bin	1.0000000000000003e-09	0
bin	1.5000000000000004e-09	0
bin	2.0000000000000005e-09	0
bin	2.5000000000000009e-09	0
bin	3.0000000000000008e-09	0
bin	3.5000000000000007e-09	0
bin	4.0000000000000011e-09	0
bin	4.5000000000000014e-09	0
bin	5.0000000000000018e-09	0
bin	5.5000000000000013e-09	0
bin	6.0000000000000016e-09	0
bin	6.500000000000002e-09	0
bin	7.0000000000000015e-09	0
bin	7.5000000000000026e-09	0
bin	8.0000000000000022e-09	0
bin	8.5000000000000017e-09	0
bin	9.0000000000000028e-09	0
bin	9.5000000000000023e-09	0
bin	1.0000000000000004e-08	0
bin	1.0500000000000003e-08	0
bin	1.1000000000000003e-08	0
bin	1.1500000000000004e-08	0
bin	1.2000000000000003e-08	0
bin	1.2500000000000003e-08	0
bin	1.3000000000000004e-08	0
bin	1.3500000000000003e-08	0
bin	1.4000000000000003e-08	0
bin	1.4500000000000004e-08	0
bin	1.5000000000000005e-08	0
bin	1.5500000000000003e-08	2
bin	1.6000000000000004e-08	0
bin	1.6500000000000005e-08	0
bin	1.7000000000000003e-08	0
bin	1.7500000000000005e-08	0
bin	1.8000000000000006e-08	0
bin	1.8500000000000004e-08	0
bin	1.9000000000000005e-08	0
bin	1.9500000000000006e-08	0
bin	2.0000000000000007e-08	0
bin	2.0500000000000005e-08	0
bin	2.1000000000000006e-08	0
bin	2.1500000000000007e-08	0
bin	2.2000000000000005e-08	0
bin	2.2500000000000006e-08	0
bin	2.3000000000000007e-08	0
bin	2.3500000000000005e-08	2
bin	2.4000000000000006e-08	0
bin	2.4500000000000008e-08	0
bin	2.5000000000000005e-08	0
bin	2.5500000000000007e-08	0
bin	2.6000000000000008e-08	0
bin	2.6500000000000006e-08	0
bin	2.7000000000000007e-08	0
bin	2.7500000000000008e-08	0
bin	2.8000000000000006e-08	0
bin	2.8500000000000007e-08	0
bin	2.9000000000000008e-08	0
bin	2.9500000000000009e-08	0
bin	3.0000000000000011e-08	0
statistic twoclienthosts.router2.ppp[0].queue outgoingPacketLengths:histogram
field count 12
field mean 373.33333333333331
field stddev 44.650833919390315
field min 336
field max 464
field sum 4480
field sqrsum 1694464
bin	-inf	0
bin	304	0
bin	306	0
bin	308	0
bin	310	0
bin	312	0
bin	314	0
bin	316	0
bin	318	0
bin	320	0
bin	322	0
bin	324	0
bin	326	0
bin	328	0
bin	330	0
bin	332	0
bin	334	0
bin	336	2
bin	338	0
bin	340	0
bin	342	0
bin	344	2
bin	346	0
bin	348	0
bin	350	0
bin	352	2
bin	354	0
bin	356	0
bin	358	0
bin	360	0
bin	362	0
bin	364	0
bin	366	0
bin	368	2
bin	370	0
bin	372	0
bin	374	0
bin	376	2
bin	378	0
bin	380	0
bin	382	0
bin	384	0
bin	386	0
bin	388	0
bin	390	0
bin	392	0
bin	394	0
bin	396	0
bin	398	0
bin	400	0
bin	402	0
bin	404	0
bin	406	0
bin	408	0
bin	410	0
bin	412	0
bin	414	0
bin	416	0
bin	418	0
bin	420	0
bin	422	0
bin	424	0
bin	426	0
bin	428	0
bin	430	0
bin	432	0
bin	434	0
bin	436	0
bin	438	0
bin	440	0
bin	442	0
bin	444	0
bin	446	0
bin	448	0
bin	450	0
bin	452	0
bin	454	0
bin	456	0
bin	458	0
bin	460	0
bin	462	0
bin	464	2
bin	466	0
bin	468	0
bin	470	0
bin	472	0
bin	474	0
[...]
scalar twoclienthosts.client2.quic streamRcvAppData_cid=0_sid=0:vector(sum):count 1
scalar twoclienthosts.client2.quic streamRcvAppData_cid=0_sid=0:vector(sum):sum 0
scalar twoclienthosts.client2.quic streamRcvAppData_cid=0_sid=0:vector(sum):sumweights 1
scalar twoclienthosts.client2.quic streamRcvAppData_cid=0_sid=0:vector(sum):mean 0
scalar twoclienthosts.client2.quic streamRcvAppData_cid=0_sid=0:vector(sum):stddev nan
scalar twoclienthosts.client2.quic streamRcvAppData_cid=0_sid=0:vector(sum):min 0
scalar twoclienthosts.client2.quic streamRcvAppData_cid=0_sid=0:vector(sum):max 0
scalar twoclienthosts.client2.quic streamRcvAppData_cid=0_sid=0:vector(sum):starttime 0.0060415120000000015
scalar twoclienthosts.client2.quic streamRcvAppData_cid=0_sid=0:vector(sum):endtime 0.0060415120000000015
scalar twoclienthosts.client2.quic availableRwnd_cid=0_sid=0:vector:count 2
scalar twoclienthosts.client2.quic availableRwnd_cid=0_sid=0:vector:sum 11997500
scalar twoclienthosts.client2.quic availableRwnd_cid=0_sid=0:vector:sumweights 2
scalar twoclienthosts.client2.quic availableRwnd_cid=0_sid=0:vector:mean 5998750
scalar twoclienthosts.client2.quic availableRwnd_cid=0_sid=0:vector:stddev 353.55339059327378
scalar twoclienthosts.client2.quic availableRwnd_cid=0_sid=0:vector:min 5998500
scalar twoclienthosts.client2.quic availableRwnd_cid=0_sid=0:vector:max 5999000
scalar twoclienthosts.client2.quic availableRwnd_cid=0_sid=0:vector:starttime 0.0060415120000000015
scalar twoclienthosts.client2.quic availableRwnd_cid=0_sid=0:vector:endtime 0.0060415120000000015
scalar twoclienthosts.client2.quic blockFrameOffset_cid=0_sid=0:vector:count 0
scalar twoclienthosts.client2.quic blockFrameOffset_cid=0_sid=0:vector:sum 0
scalar twoclienthosts.client2.quic blockFrameOffset_cid=0_sid=0:vector:sumweights 0
scalar twoclienthosts.client2.quic blockFrameOffset_cid=0_sid=0:vector:mean -nan
scalar twoclienthosts.client2.quic blockFrameOffset_cid=0_sid=0:vector:stddev nan
scalar twoclienthosts.client2.quic blockFrameOffset_cid=0_sid=0:vector:min inf
scalar twoclienthosts.client2.quic blockFrameOffset_cid=0_sid=0:vector:max -inf
scalar twoclienthosts.client2.quic blockFrameOffset_cid=0_sid=0:vector:starttime nan
scalar twoclienthosts.client2.quic blockFrameOffset_cid=0_sid=0:vector:endtime nan
scalar twoclienthosts.client2.quic maxDataFrameOffset_cid=0_sid=0:vector:count 0
scalar twoclienthosts.client2.quic maxDataFrameOffset_cid=0_sid=0:vector:sum 0
scalar twoclienthosts.client2.quic maxDataFrameOffset_cid=0_sid=0:vector:sumweights 0
scalar twoclienthosts.client2.quic maxDataFrameOffset_cid=0_sid=0:vector:mean -nan
scalar twoclienthosts.client2.quic maxDataFrameOffset_cid=0_sid=0:vector:stddev nan
scalar twoclienthosts.client2.quic maxDataFrameOffset_cid=0_sid=0:vector:min inf
scalar twoclienthosts.client2.quic maxDataFrameOffset_cid=0_sid=0:vector:max -inf
scalar twoclienthosts.client2.quic maxDataFrameOffset_cid=0_sid=0:vector:starttime nan
scalar twoclienthosts.client2.quic maxDataFrameOffset_cid=0_sid=0:vector:endtime nan
scalar twoclienthosts.client2.quic consumedData_cid=0_sid=0:vector:count 0
scalar twoclienthosts.client2.quic consumedData_cid=0_sid=0:vector:sum 0
scalar twoclienthosts.client2.quic consumedData_cid=0_sid=0:vector:sumweights 0
scalar twoclienthosts.client2.quic consumedData_cid=0_sid=0:vector:mean -nan
scalar twoclienthosts.client2.quic consumedData_cid=0_sid=0:vector:stddev nan
scalar twoclienthosts.client2.quic consumedData_cid=0_sid=0:vector:min inf
scalar twoclienthosts.client2.quic consumedData_cid=0_sid=0:vector:max -inf
scalar twoclienthosts.client2.quic consumedData_cid=0_sid=0:vector:starttime nan
scalar twoclienthosts.client2.quic consumedData_cid=0_sid=0:vector:endtime nan
scalar twoclienthosts.client2.quic streamRcvFrameStartOffset_cid=0_sid=0:vector:count 0
scalar twoclienthosts.client2.quic streamRcvFrameStartOffset_cid=0_sid=0:vector:sum 0
scalar twoclienthosts.client2.quic streamRcvFrameStartOffset_cid=0_sid=0:vector:sumweights 0
scalar twoclienthosts.client2.quic streamRcvFrameStartOffset_cid=0_sid=0:vector:mean -nan
scalar twoclienthosts.client2.quic streamRcvFrameStartOffset_cid=0_sid=0:vector:stddev nan
scalar twoclienthosts.client2.quic streamRcvFrameStartOffset_cid=0_sid=0:vector:min inf
scalar twoclienthosts.client2.quic streamRcvFrameStartOffset_cid=0_sid=0:vector:max -inf
scalar twoclienthosts.client2.quic streamRcvFrameStartOffset_cid=0_sid=0:vector:starttime nan
scalar twoclienthosts.client2.quic streamRcvFrameStartOffset_cid=0_sid=0:vector:endtime nan
scalar twoclienthosts.client2.quic streamRcvFrameEndOffset_cid=0_sid=0:vector:count 0
scalar twoclienthosts.client2.quic streamRcvFrameEndOffset_cid=0_sid=0:vector:sum 0
scalar twoclienthosts.client2.quic streamRcvFrameEndOffset_cid=0_sid=0:vector:sumweights 0
scalar twoclienthosts.client2.quic streamRcvFrameEndOffset_cid=0_sid=0:vector:mean -nan
scalar twoclienthosts.client2.quic streamRcvFrameEndOffset_cid=0_sid=0:vector:stddev nan
scalar twoclienthosts.client2.quic streamRcvFrameEndOffset_cid=0_sid=0:vector:min inf
scalar twoclienthosts.client2.quic streamRcvFrameEndOffset_cid=0_sid=0:vector:max -inf
scalar twoclienthosts.client2.quic streamRcvFrameEndOffset_cid=0_sid=0:vector:starttime nan
scalar twoclienthosts.client2.quic streamRcvFrameEndOffset_cid=0_sid=0:vector:endtime nan
scalar twoclienthosts.server.quic sendBufferUnsentAppData_cid=0_sid=0:vector:count 0
scalar twoclienthosts.server.quic sendBufferUnsentAppData_cid=0_sid=0:vector:sum 0
scalar twoclienthosts.server.quic sendBufferUnsentAppData_cid=0_sid=0:vector:sumweights 0
scalar twoclienthosts.server.quic sendBufferUnsentAppData_cid=0_sid=0:vector:mean -nan
scalar twoclienthosts.server.quic sendBufferUnsentAppData_cid=0_sid=0:vector:stddev nan
scalar twoclienthosts.server.quic sendBufferUnsentAppData_cid=0_sid=0:vector:min inf
scalar twoclienthosts.server.quic sendBufferUnsentAppData_cid=0_sid=0:vector:max -inf
scalar twoclienthosts.server.quic sendBufferUnsentAppData_cid=0_sid=0:vector:starttime nan
scalar twoclienthosts.server.quic sendBufferUnsentAppData_cid=0_sid=0:vector:endtime nan
scalar twoclienthosts.server.quic streamRcvAppData_cid=0_sid=0:vector:count 3
scalar twoclienthosts.server.quic streamRcvAppData_cid=0_sid=0:vector:sum 1500
scalar twoclienthosts.server.quic streamRcvAppData_cid=0_sid=0:vector:sumweights 3
scalar twoclienthosts.server.quic streamRcvAppData_cid=0_sid=0:vector:mean 500
scalar twoclienthosts.server.quic streamRcvAppData_cid=0_sid=0:vector:stddev 500
scalar twoclienthosts.server.quic streamRcvAppData_cid=0_sid=0:vector:min 0
scalar twoclienthosts.server.quic streamRcvAppData_cid=0_sid=0:vector:max 1000
scalar twoclienthosts.server.quic streamRcvAppData_cid=0_sid=0:vector:starttime 0.0090573360000000026
scalar twoclienthosts.server.quic streamRcvAppData_cid=0_sid=0:vector:endtime 0.0090626080000000032
scalar twoclienthosts.server.quic streamRcvAppData_cid=0_sid=0:vector(sum):count 3
scalar twoclienthosts.server.quic streamRcvAppData_cid=0_sid=0:vector(sum):sum 2500
scalar twoclienthosts.server.quic streamRcvAppData_cid=0_sid=0:vector(sum):sumweights 3
scalar twoclienthosts.server.quic streamRcvAppData_cid=0_sid=0:vector(sum):mean 833.33333333333337
scalar twoclienthosts.server.quic streamRcvAppData_cid=0_sid=0:vector(sum):stddev 763.7626158259734
scalar twoclienthosts.server.quic streamRcvAppData_cid=0_sid=0:vector(sum):min 0
scalar twoclienthosts.server.quic streamRcvAppData_cid=0_sid=0:vector(sum):max 1500
scalar twoclienthosts.server.quic streamRcvAppData_cid=0_sid=0:vector(sum):starttime 0.0090573360000000026
scalar twoclienthosts.server.quic streamRcvAppData_cid=0_sid=0:vector(sum):endtime 0.0090626080000000032
scalar twoclienthosts.server.quic availableRwnd_cid=0_sid=0:vector:count 0
scalar twoclienthosts.server.quic availableRwnd_cid=0_sid=0:vector:sum 0
scalar twoclienthosts.server.quic availableRwnd_cid=0_sid=0:vector:sumweights 0
scalar twoclienthosts.server.quic availableRwnd_cid=0_sid=0:vector:mean -nan
scalar twoclienthosts.server.quic availableRwnd_cid=0_sid=0:vector:stddev nan
scalar twoclienthosts.server.quic availableRwnd_cid=0_sid=0:vector:min inf
scalar twoclienthosts.server.quic availableRwnd_cid=0_sid=0:vector:max -inf
scalar twoclienthosts.server.quic availableRwnd_cid=0_sid=0:vector:starttime nan
scalar twoclienthosts.server.quic availableRwnd_cid=0_sid=0:vector:endtime nan
scalar twoclienthosts.server.quic blockFrameOffset_cid=0_sid=0:vector:count 0
scalar twoclienthosts.server.quic blockFrameOffset_cid=0_sid=0:vector:sum 0
scalar twoclienthosts.server.quic blockFrameOffset_cid=0_sid=0:vector:sumweights 0
scalar twoclienthosts.server.quic blockFrameOffset_cid=0_sid=0:vector:mean -nan
scalar twoclienthosts.server.quic blockFrameOffset_cid=0_sid=0:vector:stddev nan
scalar twoclienthosts.server.quic blockFrameOffset_cid=0_sid=0:vector:min inf
scalar twoclienthosts.server.quic blockFrameOffset_cid=0_sid=0:vector:max -inf
scalar twoclienthosts.server.quic blockFrameOffset_cid=0_sid=0:vector:starttime nan
scalar twoclienthosts.server.quic blockFrameOffset_cid=0_sid=0:vector:endtime nan
scalar twoclienthosts.server.quic maxDataFrameOffset_cid=0_sid=0:vector:count 0
scalar twoclienthosts.server.quic maxDataFrameOffset_cid=0_sid=0:vector:sum 0
scalar twoclienthosts.server.quic maxDataFrameOffset_cid=0_sid=0:vector:sumweights 0
scalar twoclienthosts.server.quic maxDataFrameOffset_cid=0_sid=0:vector:mean -nan
scalar twoclienthosts.server.quic maxDataFrameOffset_cid=0_sid=0:vector:stddev nan
scalar twoclienthosts.server.quic maxDataFrameOffset_cid=0_sid=0:vector:min inf
scalar twoclienthosts.server.quic maxDataFrameOffset_cid=0_sid=0:vector:max -inf
scalar twoclienthosts.server.quic maxDataFrameOffset_cid=0_sid=0:vector:starttime nan
scalar twoclienthosts.server.quic maxDataFrameOffset_cid=0_sid=0:vector:endtime nan
scalar twoclienthosts.server.quic consumedData_cid=0_sid=0:vector:count 2
scalar twoclienthosts.server.quic consumedData_cid=0_sid=0:vector:sum 2500
scalar twoclienthosts.server.quic consumedData_cid=0_sid=0:vector:sumweights 2
scalar twoclienthosts.server.quic consumedData_cid=0_sid=0:vector:mean 1250
scalar twoclienthosts.server.quic consumedData_cid=0_sid=0:vector:stddev 353.55339059327378
scalar twoclienthosts.server.quic consumedData_cid=0_sid=0:vector:min 1000
scalar twoclienthosts.server.quic consumedData_cid=0_sid=0:vector:max 1500
scalar twoclienthosts.server.quic consumedData_cid=0_sid=0:vector:starttime 0.0090573360000000026
scalar twoclienthosts.server.quic consumedData_cid=0_sid=0:vector:endtime 0.0090626080000000032
scalar twoclienthosts.server.quic streamRcvFrameStartOffset_cid=0_sid=0:vector:count 2
scalar twoclienthosts.server.quic streamRcvFrameStartOffset_cid=0_sid=0:vector:sum 1000
scalar twoclienthosts.server.quic streamRcvFrameStartOffset_cid=0_sid=0:vector:sumweights 2
scalar twoclienthosts.server.quic streamRcvFrameStartOffset_cid=0_sid=0:vector:mean 500
scalar twoclienthosts.server.quic streamRcvFrameStartOffset_cid=0_sid=0:vector:stddev 707.10678118654755
scalar twoclienthosts.server.quic streamRcvFrameStartOffset_cid=0_sid=0:vector:min 0
scalar twoclienthosts.server.quic streamRcvFrameStartOffset_cid=0_sid=0:vector:max 1000
scalar twoclienthosts.server.quic streamRcvFrameStartOffset_cid=0_sid=0:vector:starttime 0.0090573360000000026
scalar twoclienthosts.server.quic streamRcvFrameStartOffset_cid=0_sid=0:vector:endtime 0.0090626080000000032
scalar twoclienthosts.server.quic streamRcvFrameEndOffset_cid=0_sid=0:vector:count 2
scalar twoclienthosts.server.quic streamRcvFrameEndOffset_cid=0_sid=0:vector:sum 2500
scalar twoclienthosts.server.quic streamRcvFrameEndOffset_cid=0_sid=0:vector:sumweights 2
scalar twoclienthosts.server.quic streamRcvFrameEndOffset_cid=0_sid=0:vector:mean 1250
scalar twoclienthosts.server.quic streamRcvFrameEndOffset_cid=0_sid=0:vector:stddev 353.55339059327378
scalar twoclienthosts.server.quic streamRcvFrameEndOffset_cid=0_sid=0:vector:min 1000
scalar twoclienthosts.server.quic streamRcvFrameEndOffset_cid=0_sid=0:vector:max 1500
scalar twoclienthosts.server.quic streamRcvFrameEndOffset_cid=0_sid=0:vector:starttime 0.0090573360000000026
scalar twoclienthosts.server.quic streamRcvFrameEndOffset_cid=0_sid=0:vector:endtime 0.0090626080000000032
scalar twoclienthosts.server.quic totalRcvAppData_cid=0:vector:count 4
scalar twoclienthosts.server.quic totalRcvAppData_cid=0:vector:sum 8000
scalar twoclienthosts.server.quic totalRcvAppData_cid=0:vector:sumweights 4
scalar twoclienthosts.server.quic totalRcvAppData_cid=0:vector:mean 2000
scalar twoclienthosts.server.quic totalRcvAppData_cid=0:vector:stddev 912.87092917527684
scalar twoclienthosts.server.quic totalRcvAppData_cid=0:vector:min 1000
scalar twoclienthosts.server.quic totalRcvAppData_cid=0:vector:max 3000
scalar twoclienthosts.server.quic totalRcvAppData_cid=0:vector:starttime 0.0090573360000000026
scalar twoclienthosts.server.quic totalRcvAppData_cid=0:vector:endtime 0.0090758640000000029
scalar twoclienthosts.server.quic sendBufferUnsentAppData_cid=1_sid=0:vector:count 0
scalar twoclienthosts.server.quic sendBufferUnsentAppData_cid=1_sid=0:vector:sum 0
scalar twoclienthosts.server.quic sendBufferUnsentAppData_cid=1_sid=0:vector:sumweights 0
scalar twoclienthosts.server.quic sendBufferUnsentAppData_cid=1_sid=0:vector:mean -nan
scalar twoclienthosts.server.quic sendBufferUnsentAppData_cid=1_sid=0:vector:stddev nan
scalar twoclienthosts.server.quic sendBufferUnsentAppData_cid=1_sid=0:vector:min inf
scalar twoclienthosts.server.quic sendBufferUnsentAppData_cid=1_sid=0:vector:max -inf
scalar twoclienthosts.server.quic sendBufferUnsentAppData_cid=1_sid=0:vector:starttime nan
scalar twoclienthosts.server.quic sendBufferUnsentAppData_cid=1_sid=0:vector:endtime nan
scalar twoclienthosts.server.quic streamRcvAppData_cid=1_sid=0:vector:count 3
scalar twoclienthosts.server.quic streamRcvAppData_cid=1_sid=0:vector:sum 1500
scalar twoclienthosts.server.quic streamRcvAppData_cid=1_sid=0:vector:sumweights 3
scalar twoclienthosts.server.quic streamRcvAppData_cid=1_sid=0:vector:mean 500
scalar twoclienthosts.server.quic streamRcvAppData_cid=1_sid=0:vector:stddev 500
scalar twoclienthosts.server.quic streamRcvAppData_cid=1_sid=0:vector:min 0
scalar twoclienthosts.server.quic streamRcvAppData_cid=1_sid=0:vector:max 1000
scalar twoclienthosts.server.quic streamRcvAppData_cid=1_sid=0:vector:starttime 0.0090714320000000025
scalar twoclienthosts.server.quic streamRcvAppData_cid=1_sid=0:vector:endtime 0.0090758640000000029
scalar twoclienthosts.server.quic streamRcvAppData_cid=1_sid=0:vector(sum):count 3
scalar twoclienthosts.server.quic streamRcvAppData_cid=1_sid=0:vector(sum):sum 2500
scalar twoclienthosts.server.quic streamRcvAppData_cid=1_sid=0:vector(sum):sumweights 3
scalar twoclienthosts.server.quic streamRcvAppData_cid=1_sid=0:vector(sum):mean 833.33333333333337
scalar twoclienthosts.server.quic streamRcvAppData_cid=1_sid=0:vector(sum):stddev 763.7626158259734
scalar twoclienthosts.server.quic streamRcvAppData_cid=1_sid=0:vector(sum):min 0
scalar twoclienthosts.server.quic streamRcvAppData_cid=1_sid=0:vector(sum):max 1500
scalar twoclienthosts.server.quic streamRcvAppData_cid=1_sid=0:vector(sum):starttime 0.0090714320000000025
scalar twoclienthosts.server.quic streamRcvAppData_cid=1_sid=0:vector(sum):endtime 0.0090758640000000029
scalar twoclienthosts.server.quic availableRwnd_cid=1_sid=0:vector:count 0
scalar twoclienthosts.server.quic availableRwnd_cid=1_sid=0:vector:sum 0
scalar twoclienthosts.server.quic availableRwnd_cid=1_sid=0:vector:sumweights 0
scalar twoclienthosts.server.quic availableRwnd_cid=1_sid=0:vector:mean -nan
scalar twoclienthosts.server.quic availableRwnd_cid=1_sid=0:vector:stddev nan
scalar twoclienthosts.server.quic availableRwnd_cid=1_sid=0:vector:min inf
scalar twoclienthosts.server.quic availableRwnd_cid=1_sid=0:vector:max -inf
scalar twoclienthosts.server.quic availableRwnd_cid=1_sid=0:vector:starttime nan
scalar twoclienthosts.server.quic availableRwnd_cid=1_sid=0:vector:endtime nan
scalar twoclienthosts.server.quic blockFrameOffset_cid=1_sid=0:vector:count 0
scalar twoclienthosts.server.quic blockFrameOffset_cid=1_sid=0:vector:sum 0
scalar twoclienthosts.server.quic blockFrameOffset_cid=1_sid=0:vector:sumweights 0
scalar twoclienthosts.server.quic blockFrameOffset_cid=1_sid=0:vector:mean -nan
scalar twoclienthosts.server.quic blockFrameOffset_cid=1_sid=0:vector:stddev nan
scalar twoclienthosts.server.quic blockFrameOffset_cid=1_sid=0:vector:min inf
scalar twoclienthosts.server.quic blockFrameOffset_cid=1_sid=0:vector:max -inf
scalar twoclienthosts.server.quic blockFrameOffset_cid=1_sid=0:vector:starttime nan
scalar twoclienthosts.server.quic blockFrameOffset_cid=1_sid=0:vector:endtime nan
scalar twoclienthosts.server.quic maxDataFrameOffset_cid=1_sid=0:vector:count 0
scalar twoclienthosts.server.quic maxDataFrameOffset_cid=1_sid=0:vector:sum 0
scalar twoclienthosts.server.quic maxDataFrameOffset_cid=1_sid=0:vector:sumweights 0
scalar twoclienthosts.server.quic maxDataFrameOffset_cid=1_sid=0:vector:mean -nan
scalar twoclienthosts.server.quic maxDataFrameOffset_cid=1_sid=0:vector:stddev nan
scalar twoclienthosts.server.quic maxDataFrameOffset_cid=1_sid=0:vector:min inf
scalar twoclienthosts.server.quic maxDataFrameOffset_cid=1_sid=0:vector:max -inf
scalar twoclienthosts.server.quic maxDataFrameOffset_cid=1_sid=0:vector:starttime nan
scalar twoclienthosts.server.quic maxDataFrameOffset_cid=1_sid=0:vector:endtime nan
scalar twoclienthosts.server.quic consumedData_cid=1_sid=0:vector:count 2
scalar twoclienthosts.server.quic consumedData_cid=1_sid=0:vector:sum 2500
scalar twoclienthosts.server.quic consumedData_cid=1_sid=0:vector:sumweights 2
scalar twoclienthosts.server.quic consumedData_cid=1_sid=0:vector:mean 1250
scalar twoclienthosts.server.quic consumedData_cid=1_sid=0:vector:stddev 353.55339059327378
scalar twoclienthosts.server.quic consumedData_cid=1_sid=0:vector:min 1000
scalar twoclienthosts.server.quic consumedData_cid=1_sid=0:vector:max 1500
scalar twoclienthosts.server.quic consumedData_cid=1_sid=0:vector:starttime 0.0090714320000000025
scalar twoclienthosts.server.quic consumedData_cid=1_sid=0:vector:endtime 0.0090758640000000029
scalar twoclienthosts.server.quic streamRcvFrameStartOffset_cid=1_sid=0:vector:count 2
scalar twoclienthosts.server.quic streamRcvFrameStartOffset_cid=1_sid=0:vector:sum 1000
scalar twoclienthosts.server.quic streamRcvFrameStartOffset_cid=1_sid=0:vector:sumweights 2
scalar twoclienthosts.server.quic streamRcvFrameStartOffset_cid=1_sid=0:vector:mean 500
scalar twoclienthosts.server.quic streamRcvFrameStartOffset_cid=1_sid=0:vector:stddev 707.10678118654755
scalar twoclienthosts.server.quic streamRcvFrameStartOffset_cid=1_sid=0:vector:min 0
scalar twoclienthosts.server.quic streamRcvFrameStartOffset_cid=1_sid=0:vector:max 1000
scalar twoclienthosts.server.quic streamRcvFrameStartOffset_cid=1_sid=0:vector:starttime 0.0090714320000000025
scalar twoclienthosts.server.quic streamRcvFrameStartOffset_cid=1_sid=0:vector:endtime 0.0090758640000000029
scalar twoclienthosts.server.quic streamRcvFrameEndOffset_cid=1_sid=0:vector:count 2
scalar twoclienthosts.server.quic streamRcvFrameEndOffset_cid=1_sid=0:vector:sum 2500
scalar twoclienthosts.server.quic streamRcvFrameEndOffset_cid=1_sid=0:vector:sumweights 2
scalar twoclienthosts.server.quic streamRcvFrameEndOffset_cid=1_sid=0:vector:mean 1250
scalar twoclienthosts.server.quic streamRcvFrameEndOffset_cid=1_sid=0:vector:stddev 353.55339059327378
scalar twoclienthosts.server.quic streamRcvFrameEndOffset_cid=1_sid=0:vector:min 1000
scalar twoclienthosts.server.quic streamRcvFrameEndOffset_cid=1_sid=0:vector:max 1500
scalar twoclienthosts.server.quic streamRcvFrameEndOffset_cid=1_sid=0:vector:starttime 0.0090714320000000025
scalar twoclienthosts.server.quic streamRcvFrameEndOffset_cid=1_sid=0:vector:endtime 0.0090758640000000029

