version 3
run oneclienthost_reconnect-0-20260121-12:16:03-129870
attr configname oneclienthost_reconnect
attr datetime 20260121-12:16:03
attr datetimef 20260121-121603
attr experiment oneclienthost_reconnect
attr inifile omnetpp.ini
attr iterationvars ""
attr iterationvarsd ""
attr iterationvarsf ""
attr measurement ""
attr network oneclienthost
attr processid 129870
attr repetition 0
attr replication #0
attr resultdir results
attr runnumber 0
attr seedset 0
config **.param-recording false
config image-path /home/attila/projects/inet/images
config output-scalar-file results/omnetpp.ini-oneclienthost_reconnect-#0.sca
config output-scalar-precision 17
config output-vector-file results/omnetpp.ini-oneclienthost_reconnect-#0.vec
config output-vector-precision 17
config record-eventlog false
config network oneclienthost
config **.client.numApps 2
config **.client.app[*].typename TrafficgenCompound
config **.client.app[*].numGenerators 1
config **.client.app[*].handler.typename QuicTrafficgen
config **.client.app[*].handler.localPort 1001
config **.client.app[*].handler.connectPort 1000
config **.client.app[*].handler.connectAddress "\"server\""
config **.client.app[0].handler.connectTime 1s
config **.client.app[1].handler.connectTime 4s
config **.client.app[*].generator[0].typename TrafficgenSimple
config **.client.app[*].generator[0].id 0
config **.client.app[*].generator[0].packetSize 1000B
config **.client.app[*].generator[0].packetInterval 100ms
config **.client.app[0].generator[0].startTime 2s
config **.client.app[0].generator[0].stopTime 3s
config **.client.app[1].generator[0].startTime 5s
config **.client.app[1].generator[0].stopTime 6s
config **.server.numApps 1
config **.server.app[*].typename QuicDiscardServer
config **.server.app[*].localAddress "\"\""
config **.server.app[*].localPort 1000

scalar oneclienthost.router1.lo[0].lo rcvdPkFromHl:count 0
scalar oneclienthost.router1.lo[0].lo rcvdPkFromHl:sum(packetBytes) 0
scalar oneclienthost.router1.lo[0].lo passedUpPk:count 0
scalar oneclienthost.router1.lo[0].lo passedUpPk:sum(packetBytes) 0
scalar oneclienthost.router1.lo[0] packetDropInterfaceDown:count 0
scalar oneclienthost.router1.lo[0] packetDropInterfaceDown:sum(packetBytes) 0
scalar oneclienthost.router1.lo[0] packetDropNoCarrier:count 0
scalar oneclienthost.router1.lo[0] packetDropNoCarrier:sum(packetBytes) 0
scalar oneclienthost.router1.ppp[0].queue queueLength:last 0
scalar oneclienthost.router1.ppp[0].queue queueLength:max 1
scalar oneclienthost.router1.ppp[0].queue queueLength:timeavg 5.2319465592026941e-09
scalar oneclienthost.router1.ppp[0].queue queueBitLength:last 0
scalar oneclienthost.router1.ppp[0].queue queueBitLength:max 336
scalar oneclienthost.router1.ppp[0].queue queueBitLength:timeavg 1.7579340438921053e-06
scalar oneclienthost.router1.ppp[0].queue outgoingPackets:count 30
scalar oneclienthost.router1.ppp[0].queue outgoingPacketLengths:sum 11264
scalar oneclienthost.router1.ppp[0].queue incomingPackets:count 30
scalar oneclienthost.router1.ppp[0].queue incomingPacketLengths:sum 11264
scalar oneclienthost.router1.ppp[0].queue droppedPacketsQueueOverflow:count 0
scalar oneclienthost.router1.ppp[0].queue droppedPacketLengthsQueueOverflow:sum 0
scalar oneclienthost.router1.ppp[0].ppp transmissionState:timeavg 2.1163223831974903e-06
scalar oneclienthost.router1.ppp[0].ppp rxPkOk:count 30
scalar oneclienthost.router1.ppp[0].ppp rxPkOk:sum(packetBytes) 23978
scalar oneclienthost.router1.ppp[0].ppp txPk:count 30
scalar oneclienthost.router1.ppp[0].ppp txPk:sum(packetBytes) 1618
scalar oneclienthost.router1.ppp[0].ppp rcvdPkFromHl:count 30
scalar oneclienthost.router1.ppp[0].ppp rcvdPkFromHl:sum(packetBytes) 1408
scalar oneclienthost.router1.ppp[0].ppp passedUpPk:count 30
scalar oneclienthost.router1.ppp[0].ppp passedUpPk:sum(packetBytes) 23768
scalar oneclienthost.router1.ppp[0].ppp packetDropIncorrectlyReceived:count 0
scalar oneclienthost.router1.ppp[0].ppp packetDropIncorrectlyReceived:sum(packetBytes) 0
scalar oneclienthost.router1.ppp[0].ppp packetDropInterfaceDown:count 0
scalar oneclienthost.router1.ppp[0].ppp packetDropInterfaceDown:sum(packetBytes) 0
scalar oneclienthost.router1.ppp[0] packetDropInterfaceDown:count 0
scalar oneclienthost.router1.ppp[0] packetDropInterfaceDown:sum(packetBytes) 0
scalar oneclienthost.router1.ppp[0] packetDropNoCarrier:count 0
scalar oneclienthost.router1.ppp[0] packetDropNoCarrier:sum(packetBytes) 0
scalar oneclienthost.router1.ppp[1].queue queueLength:last 0
scalar oneclienthost.router1.ppp[1].queue queueLength:max 0
scalar oneclienthost.router1.ppp[1].queue queueLength:timeavg 0
scalar oneclienthost.router1.ppp[1].queue queueBitLength:last 0
scalar oneclienthost.router1.ppp[1].queue queueBitLength:max 0
scalar oneclienthost.router1.ppp[1].queue queueBitLength:timeavg 0
scalar oneclienthost.router1.ppp[1].queue outgoingPackets:count 30
scalar oneclienthost.router1.ppp[1].queue outgoingPacketLengths:sum 190144
scalar oneclienthost.router1.ppp[1].queue incomingPackets:count 30
scalar oneclienthost.router1.ppp[1].queue incomingPacketLengths:sum 190144
scalar oneclienthost.router1.ppp[1].queue droppedPacketsQueueOverflow:count 0
scalar oneclienthost.router1.ppp[1].queue droppedPacketLengthsQueueOverflow:sum 0
scalar oneclienthost.router1.ppp[1].ppp transmissionState:timeavg 3.1362903649140558e-05
scalar oneclienthost.router1.ppp[1].ppp rxPkOk:count 30
scalar oneclienthost.router1.ppp[1].ppp rxPkOk:sum(packetBytes) 1618
scalar oneclienthost.router1.ppp[1].ppp txPk:count 30
scalar oneclienthost.router1.ppp[1].ppp txPk:sum(packetBytes) 23978
scalar oneclienthost.router1.ppp[1].ppp rcvdPkFromHl:count 30
scalar oneclienthost.router1.ppp[1].ppp rcvdPkFromHl:sum(packetBytes) 23768
scalar oneclienthost.router1.ppp[1].ppp passedUpPk:count 30
scalar oneclienthost.router1.ppp[1].ppp passedUpPk:sum(packetBytes) 1408
scalar oneclienthost.router1.ppp[1].ppp packetDropIncorrectlyReceived:count 0
scalar oneclienthost.router1.ppp[1].ppp packetDropIncorrectlyReceived:sum(packetBytes) 0
scalar oneclienthost.router1.ppp[1].ppp packetDropInterfaceDown:count 0
scalar oneclienthost.router1.ppp[1].ppp packetDropInterfaceDown:sum(packetBytes) 0
scalar oneclienthost.router1.ppp[1] packetDropInterfaceDown:count 0
scalar oneclienthost.router1.ppp[1] packetDropInterfaceDown:sum(packetBytes) 0
scalar oneclienthost.router1.ppp[1] packetDropNoCarrier:count 0
scalar oneclienthost.router1.ppp[1] packetDropNoCarrier:sum(packetBytes) 0
scalar oneclienthost.router1.ipv4.ip packetDropAddressResolutionFailed:count 0
scalar oneclienthost.router1.ipv4.ip packetDropAddressResolutionFailed:sum(packetBytes) 0
scalar oneclienthost.router1.ipv4.ip packetDropHopLimitReached:count 0
scalar oneclienthost.router1.ipv4.ip packetDropHopLimitReached:sum(packetBytes) 0
scalar oneclienthost.router1.ipv4.ip packetDropForwardingDisabled:count 0
scalar oneclienthost.router1.ipv4.ip packetDropForwardingDisabled:sum(packetBytes) 0
scalar oneclienthost.router1.ipv4.ip packetDropLifetimeExpired:count 0
scalar oneclienthost.router1.ipv4.ip packetDropLifetimeExpired:sum(packetBytes) 0
scalar oneclienthost.router1.ipv4.ip packetDropNoInterfaceFound:count 0
scalar oneclienthost.router1.ipv4.ip packetDropNoInterfaceFound:sum(packetBytes) 0
scalar oneclienthost.router1.ipv4.ip packetDropNoRouteFound:count 0
scalar oneclienthost.router1.ipv4.ip packetDropNoRouteFound:sum(packetBytes) 0
scalar oneclienthost.router1.ipv4.ip packetDropUndefined:count 0
scalar oneclienthost.router1.ipv4.ip packetDropUndefined:sum(packetBytes) 0
scalar oneclienthost.router1.ipv4.arp arpResolutionFailed:count 0
scalar oneclienthost.router1.ipv4.arp arpResolutionCompleted:count 0
scalar oneclienthost.router1.ipv4.arp arpResolutionInitiated:count 0
scalar oneclienthost.router1.ipv4.arp arpReplySent:count 0
scalar oneclienthost.router1.ipv4.arp arpReplySent:sum(packetBytes) 0
scalar oneclienthost.router1.ipv4.arp arpRequestSent:count 0
scalar oneclienthost.router1.ipv4.arp arpRequestSent:sum(packetBytes) 0
scalar oneclienthost.router2.lo[0].lo rcvdPkFromHl:count 0
scalar oneclienthost.router2.lo[0].lo rcvdPkFromHl:sum(packetBytes) 0
scalar oneclienthost.router2.lo[0].lo passedUpPk:count 0
scalar oneclienthost.router2.lo[0].lo passedUpPk:sum(packetBytes) 0
scalar oneclienthost.router2.lo[0] packetDropInterfaceDown:count 0
scalar oneclienthost.router2.lo[0] packetDropInterfaceDown:sum(packetBytes) 0
scalar oneclienthost.router2.lo[0] packetDropNoCarrier:count 0
scalar oneclienthost.router2.lo[0] packetDropNoCarrier:sum(packetBytes) 0
scalar oneclienthost.router2.ppp[0].queue queueLength:last 0
scalar oneclienthost.router2.ppp[0].queue queueLength:max 1
scalar oneclienthost.router2.ppp[0].queue queueLength:timeavg 5.2319465592026941e-09
scalar oneclienthost.router2.ppp[0].queue queueBitLength:last 0
scalar oneclienthost.router2.ppp[0].queue queueBitLength:max 336
scalar oneclienthost.router2.ppp[0].queue queueBitLength:timeavg 1.7579340438921053e-06
scalar oneclienthost.router2.ppp[0].queue outgoingPackets:count 30
scalar oneclienthost.router2.ppp[0].queue outgoingPacketLengths:sum 11264
scalar oneclienthost.router2.ppp[0].queue incomingPackets:count 30
scalar oneclienthost.router2.ppp[0].queue incomingPacketLengths:sum 11264
scalar oneclienthost.router2.ppp[0].queue droppedPacketsQueueOverflow:count 0
scalar oneclienthost.router2.ppp[0].queue droppedPacketLengthsQueueOverflow:sum 0
scalar oneclienthost.router2.ppp[0].ppp transmissionState:timeavg 2.1163223831974903e-06
scalar oneclienthost.router2.ppp[0].ppp rxPkOk:count 30
scalar oneclienthost.router2.ppp[0].ppp rxPkOk:sum(packetBytes) 23978
scalar oneclienthost.router2.ppp[0].ppp txPk:count 30
scalar oneclienthost.router2.ppp[0].ppp txPk:sum(packetBytes) 1618
scalar oneclienthost.router2.ppp[0].ppp rcvdPkFromHl:count 30
scalar oneclienthost.router2.ppp[0].ppp rcvdPkFromHl:sum(packetBytes) 1408
scalar oneclienthost.router2.ppp[0].ppp passedUpPk:count 30
scalar oneclienthost.router2.ppp[0].ppp passedUpPk:sum(packetBytes) 23768
scalar oneclienthost.router2.ppp[0].ppp packetDropIncorrectlyReceived:count 0
scalar oneclienthost.router2.ppp[0].ppp packetDropIncorrectlyReceived:sum(packetBytes) 0
scalar oneclienthost.router2.ppp[0].ppp packetDropInterfaceDown:count 0
scalar oneclienthost.router2.ppp[0].ppp packetDropInterfaceDown:sum(packetBytes) 0
scalar oneclienthost.router2.ppp[0] packetDropInterfaceDown:count 0
scalar oneclienthost.router2.ppp[0] packetDropInterfaceDown:sum(packetBytes) 0
scalar oneclienthost.router2.ppp[0] packetDropNoCarrier:count 0
scalar oneclienthost.router2.ppp[0] packetDropNoCarrier:sum(packetBytes) 0
scalar oneclienthost.router2.ppp[1].queue queueLength:last 0
scalar oneclienthost.router2.ppp[1].queue queueLength:max 0
scalar oneclienthost.router2.ppp[1].queue queueLength:timeavg 0
scalar oneclienthost.router2.ppp[1].queue queueBitLength:last 0
scalar oneclienthost.router2.ppp[1].queue queueBitLength:max 0
scalar oneclienthost.router2.ppp[1].queue queueBitLength:timeavg 0
scalar oneclienthost.router2.ppp[1].queue outgoingPackets:count 30
scalar oneclienthost.router2.ppp[1].queue outgoingPacketLengths:sum 190144
scalar oneclienthost.router2.ppp[1].queue incomingPackets:count 30
scalar oneclienthost.router2.ppp[1].queue incomingPacketLengths:sum 190144
scalar oneclienthost.router2.ppp[1].queue droppedPacketsQueueOverflow:count 0
scalar oneclienthost.router2.ppp[1].queue droppedPacketLengthsQueueOverflow:sum 0
scalar oneclienthost.router2.ppp[1].ppp transmissionState:timeavg 3.1362903649140558e-05
scalar oneclienthost.router2.ppp[1].ppp rxPkOk:count 30
scalar oneclienthost.router2.ppp[1].ppp rxPkOk:sum(packetBytes) 1618
scalar oneclienthost.router2.ppp[1].ppp txPk:count 30
scalar oneclienthost.router2.ppp[1].ppp txPk:sum(packetBytes) 23978
scalar oneclienthost.router2.ppp[1].ppp rcvdPkFromHl:count 30
scalar oneclienthost.router2.ppp[1].ppp rcvdPkFromHl:sum(packetBytes) 23768
scalar oneclienthost.router2.ppp[1].ppp passedUpPk:count 30
scalar oneclienthost.router2.ppp[1].ppp passedUpPk:sum(packetBytes) 1408
scalar oneclienthost.router2.ppp[1].ppp packetDropIncorrectlyReceived:count 0
scalar oneclienthost.router2.ppp[1].ppp packetDropIncorrectlyReceived:sum(packetBytes) 0
scalar oneclienthost.router2.ppp[1].ppp packetDropInterfaceDown:count 0
scalar oneclienthost.router2.ppp[1].ppp packetDropInterfaceDown:sum(packetBytes) 0
scalar oneclienthost.router2.ppp[1] packetDropInterfaceDown:count 0
scalar oneclienthost.router2.ppp[1] packetDropInterfaceDown:sum(packetBytes) 0
scalar oneclienthost.router2.ppp[1] packetDropNoCarrier:count 0
scalar oneclienthost.router2.ppp[1] packetDropNoCarrier:sum(packetBytes) 0
scalar oneclienthost.router2.ipv4.ip packetDropAddressResolutionFailed:count 0
scalar oneclienthost.router2.ipv4.ip packetDropAddressResolutionFailed:sum(packetBytes) 0
scalar oneclienthost.router2.ipv4.ip packetDropHopLimitReached:count 0
scalar oneclienthost.router2.ipv4.ip packetDropHopLimitReached:sum(packetBytes) 0
scalar oneclienthost.router2.ipv4.ip packetDropForwardingDisabled:count 0
scalar oneclienthost.router2.ipv4.ip packetDropForwardingDisabled:sum(packetBytes) 0
scalar oneclienthost.router2.ipv4.ip packetDropLifetimeExpired:count 0
scalar oneclienthost.router2.ipv4.ip packetDropLifetimeExpired:sum(packetBytes) 0
scalar oneclienthost.router2.ipv4.ip packetDropNoInterfaceFound:count 0
scalar oneclienthost.router2.ipv4.ip packetDropNoInterfaceFound:sum(packetBytes) 0
scalar oneclienthost.router2.ipv4.ip packetDropNoRouteFound:count 0
scalar oneclienthost.router2.ipv4.ip packetDropNoRouteFound:sum(packetBytes) 0
scalar oneclienthost.router2.ipv4.ip packetDropUndefined:count 0
scalar oneclienthost.router2.ipv4.ip packetDropUndefined:sum(packetBytes) 0
scalar oneclienthost.router2.ipv4.arp arpResolutionFailed:count 0
scalar oneclienthost.router2.ipv4.arp arpResolutionCompleted:count 0
scalar oneclienthost.router2.ipv4.arp arpResolutionInitiated:count 0
scalar oneclienthost.router2.ipv4.arp arpReplySent:count 0
scalar oneclienthost.router2.ipv4.arp arpReplySent:sum(packetBytes) 0
scalar oneclienthost.router2.ipv4.arp arpRequestSent:count 0
scalar oneclienthost.router2.ipv4.arp arpRequestSent:sum(packetBytes) 0
scalar oneclienthost.client.lo[0].lo rcvdPkFromHl:count 0
scalar oneclienthost.client.lo[0].lo rcvdPkFromHl:sum(packetBytes) 0
scalar oneclienthost.client.lo[0].lo passedUpPk:count 0
scalar oneclienthost.client.lo[0].lo passedUpPk:sum(packetBytes) 0
scalar oneclienthost.client.lo[0] packetDropInterfaceDown:count 0
scalar oneclienthost.client.lo[0] packetDropInterfaceDown:sum(packetBytes) 0
scalar oneclienthost.client.lo[0] packetDropNoCarrier:count 0
scalar oneclienthost.client.lo[0] packetDropNoCarrier:sum(packetBytes) 0
scalar oneclienthost.client.ppp[0].queue queueLength:last 0
scalar oneclienthost.client.ppp[0].queue queueLength:max 0
scalar oneclienthost.client.ppp[0].queue queueLength:timeavg 0
scalar oneclienthost.client.ppp[0].queue queueBitLength:last 0
scalar oneclienthost.client.ppp[0].queue queueBitLength:max 0
scalar oneclienthost.client.ppp[0].queue queueBitLength:timeavg 0
scalar oneclienthost.client.ppp[0].queue outgoingPackets:count 30
scalar oneclienthost.client.ppp[0].queue outgoingPacketLengths:sum 190144
scalar oneclienthost.client.ppp[0].queue incomingPackets:count 30
scalar oneclienthost.client.ppp[0].queue incomingPacketLengths:sum 190144
scalar oneclienthost.client.ppp[0].queue droppedPacketsQueueOverflow:count 0
scalar oneclienthost.client.ppp[0].queue droppedPacketLengthsQueueOverflow:sum 0
scalar oneclienthost.client.ppp[0].ppp transmissionState:timeavg 3.1362903649140558e-05
scalar oneclienthost.client.ppp[0].ppp rxPkOk:count 30
scalar oneclienthost.client.ppp[0].ppp rxPkOk:sum(packetBytes) 1618
scalar oneclienthost.client.ppp[0].ppp txPk:count 30
scalar oneclienthost.client.ppp[0].ppp txPk:sum(packetBytes) 23978
scalar oneclienthost.client.ppp[0].ppp rcvdPkFromHl:count 30
scalar oneclienthost.client.ppp[0].ppp rcvdPkFromHl:sum(packetBytes) 23768
scalar oneclienthost.client.ppp[0].ppp passedUpPk:count 30
scalar oneclienthost.client.ppp[0].ppp passedUpPk:sum(packetBytes) 1408
scalar oneclienthost.client.ppp[0].ppp packetDropIncorrectlyReceived:count 0
scalar oneclienthost.client.ppp[0].ppp packetDropIncorrectlyReceived:sum(packetBytes) 0
scalar oneclienthost.client.ppp[0].ppp packetDropInterfaceDown:count 0
scalar oneclienthost.client.ppp[0].ppp packetDropInterfaceDown:sum(packetBytes) 0
scalar oneclienthost.client.ppp[0] packetDropInterfaceDown:count 0
scalar oneclienthost.client.ppp[0] packetDropInterfaceDown:sum(packetBytes) 0
scalar oneclienthost.client.ppp[0] packetDropNoCarrier:count 0
scalar oneclienthost.client.ppp[0] packetDropNoCarrier:sum(packetBytes) 0
scalar oneclienthost.client.ipv4.ip packetDropAddressResolutionFailed:count 0
scalar oneclienthost.client.ipv4.ip packetDropAddressResolutionFailed:sum(packetBytes) 0
scalar oneclienthost.client.ipv4.ip packetDropHopLimitReached:count 0
scalar oneclienthost.client.ipv4.ip packetDropHopLimitReached:sum(packetBytes) 0
scalar oneclienthost.client.ipv4.ip packetDropForwardingDisabled:count 0
scalar oneclienthost.client.ipv4.ip packetDropForwardingDisabled:sum(packetBytes) 0
scalar oneclienthost.client.ipv4.ip packetDropLifetimeExpired:count 0
scalar oneclienthost.client.ipv4.ip packetDropLifetimeExpired:sum(packetBytes) 0
scalar oneclienthost.client.ipv4.ip packetDropNoInterfaceFound:count 0
scalar oneclienthost.client.ipv4.ip packetDropNoInterfaceFound:sum(packetBytes) 0
scalar oneclienthost.client.ipv4.ip packetDropNoRouteFound:count 0
scalar oneclienthost.client.ipv4.ip packetDropNoRouteFound:sum(packetBytes) 0
scalar oneclienthost.client.ipv4.ip packetDropUndefined:count 0
scalar oneclienthost.client.ipv4.ip packetDropUndefined:sum(packetBytes) 0
scalar oneclienthost.client.ipv4.arp arpResolutionFailed:count 0
scalar oneclienthost.client.ipv4.arp arpResolutionCompleted:count 0
scalar oneclienthost.client.ipv4.arp arpResolutionInitiated:count 0
scalar oneclienthost.client.ipv4.arp arpReplySent:count 0
scalar oneclienthost.client.ipv4.arp arpReplySent:sum(packetBytes) 0
scalar oneclienthost.client.ipv4.arp arpRequestSent:count 0
scalar oneclienthost.client.ipv4.arp arpRequestSent:sum(packetBytes) 0
scalar oneclienthost.client.udp packetReceived:count 30
scalar oneclienthost.client.udp packetReceived:sum(packetBytes) 808
scalar oneclienthost.client.udp packetSent:count 30
scalar oneclienthost.client.udp packetSent:sum(packetBytes) 23168
scalar oneclienthost.client.udp passedUpPk:count 30
scalar oneclienthost.client.udp droppedPkWrongPort:count 0
scalar oneclienthost.client.udp droppedPkBadChecksum:count 0
scalar oneclienthost.client.quic maxDataFrameLostCount_cid=1_sid=0:last 0
scalar oneclienthost.client.quic generatedMaxDataFrameCount_cid=1_sid=0:last 0
scalar oneclienthost.client.quic rcvBlockFrameCount_cid=1_sid=0:last 0
scalar oneclienthost.client.quic rcvMaxFrameCount_cid=1_sid=0:last 0
scalar oneclienthost.client.quic generatedBlockFrameCount_cid=1_sid=0:last 0
scalar oneclienthost.client.quic maxDataFrameLostCount_cid=1:last 0
scalar oneclienthost.client.quic generatedMaxDataFrameCount_cid=1:last 0
scalar oneclienthost.client.quic rcvBlockFrameCount_cid=1:last 0
scalar oneclienthost.client.quic rcvMaxFrameCount_cid=1:last 0
scalar oneclienthost.client.quic generatedBlockFrameCount_cid=1:last 0
scalar oneclienthost.client.quic maxDataFrameLostCount_cid=0_sid=0:last 0
scalar oneclienthost.client.quic generatedMaxDataFrameCount_cid=0_sid=0:last 0
scalar oneclienthost.client.quic rcvBlockFrameCount_cid=0_sid=0:last 0
scalar oneclienthost.client.quic rcvMaxFrameCount_cid=0_sid=0:last 0
scalar oneclienthost.client.quic generatedBlockFrameCount_cid=0_sid=0:last 0
scalar oneclienthost.client.quic maxDataFrameLostCount_cid=0:last 0
scalar oneclienthost.client.quic generatedMaxDataFrameCount_cid=0:last 0
scalar oneclienthost.client.quic rcvBlockFrameCount_cid=0:last 0
scalar oneclienthost.client.quic rcvMaxFrameCount_cid=0:last 0
scalar oneclienthost.client.quic generatedBlockFrameCount_cid=0:last 0
scalar oneclienthost.client.quic packetReceived:count 30
scalar oneclienthost.client.quic packetReceived:sum(packetBytes) 568
scalar oneclienthost.client.quic packetSent:count 30
scalar oneclienthost.client.quic packetSent:sum(packetBytes) 22928
scalar oneclienthost.client.app[0].generator[0] sentPkt:count 10
scalar oneclienthost.client.app[0].generator[0] sentPkt:sum(packetBytes) 10000
scalar oneclienthost.client.app[1].generator[0] sentPkt:count 10
scalar oneclienthost.client.app[1].generator[0] sentPkt:sum(packetBytes) 10000
scalar oneclienthost.server.lo[0].lo rcvdPkFromHl:count 0
scalar oneclienthost.server.lo[0].lo rcvdPkFromHl:sum(packetBytes) 0
scalar oneclienthost.server.lo[0].lo passedUpPk:count 0
scalar oneclienthost.server.lo[0].lo passedUpPk:sum(packetBytes) 0
scalar oneclienthost.server.lo[0] packetDropInterfaceDown:count 0
scalar oneclienthost.server.lo[0] packetDropInterfaceDown:sum(packetBytes) 0
scalar oneclienthost.server.lo[0] packetDropNoCarrier:count 0
scalar oneclienthost.server.lo[0] packetDropNoCarrier:sum(packetBytes) 0
scalar oneclienthost.server.ppp[0].queue queueLength:last 0
scalar oneclienthost.server.ppp[0].queue queueLength:max 1
scalar oneclienthost.server.ppp[0].queue queueLength:timeavg 2.7467719435814142e-07
scalar oneclienthost.server.ppp[0].queue queueBitLength:last 0
scalar oneclienthost.server.ppp[0].queue queueBitLength:max 464
scalar oneclienthost.server.ppp[0].queue queueBitLength:timeavg 0.00011037314461294004
scalar oneclienthost.server.ppp[0].queue outgoingPackets:count 30
scalar oneclienthost.server.ppp[0].queue outgoingPacketLengths:sum 11264
scalar oneclienthost.server.ppp[0].queue incomingPackets:count 30
scalar oneclienthost.server.ppp[0].queue incomingPacketLengths:sum 11264
scalar oneclienthost.server.ppp[0].queue droppedPacketsQueueOverflow:count 0
scalar oneclienthost.server.ppp[0].queue droppedPacketLengthsQueueOverflow:sum 0
scalar oneclienthost.server.ppp[0].ppp transmissionState:timeavg 2.1163223831974903e-06
scalar oneclienthost.server.ppp[0].ppp rxPkOk:count 30
scalar oneclienthost.server.ppp[0].ppp rxPkOk:sum(packetBytes) 23978
scalar oneclienthost.server.ppp[0].ppp txPk:count 30
scalar oneclienthost.server.ppp[0].ppp txPk:sum(packetBytes) 1618
scalar oneclienthost.server.ppp[0].ppp rcvdPkFromHl:count 30
scalar oneclienthost.server.ppp[0].ppp rcvdPkFromHl:sum(packetBytes) 1408
scalar oneclienthost.server.ppp[0].ppp passedUpPk:count 30
scalar oneclienthost.server.ppp[0].ppp passedUpPk:sum(packetBytes) 23768
scalar oneclienthost.server.ppp[0].ppp packetDropIncorrectlyReceived:count 0
scalar oneclienthost.server.ppp[0].ppp packetDropIncorrectlyReceived:sum(packetBytes) 0
scalar oneclienthost.server.ppp[0].ppp packetDropInterfaceDown:count 0
scalar oneclienthost.server.ppp[0].ppp packetDropInterfaceDown:sum(packetBytes) 0
scalar oneclienthost.server.ppp[0] packetDropInterfaceDown:count 0
scalar oneclienthost.server.ppp[0] packetDropInterfaceDown:sum(packetBytes) 0
scalar oneclienthost.server.ppp[0] packetDropNoCarrier:count 0
scalar oneclienthost.server.ppp[0] packetDropNoCarrier:sum(packetBytes) 0
scalar oneclienthost.server.ipv4.ip packetDropAddressResolutionFailed:count 0
scalar oneclienthost.server.ipv4.ip packetDropAddressResolutionFailed:sum(packetBytes) 0
scalar oneclienthost.server.ipv4.ip packetDropHopLimitReached:count 0
scalar oneclienthost.server.ipv4.ip packetDropHopLimitReached:sum(packetBytes) 0
scalar oneclienthost.server.ipv4.ip packetDropForwardingDisabled:count 0
scalar oneclienthost.server.ipv4.ip packetDropForwardingDisabled:sum(packetBytes) 0
scalar oneclienthost.server.ipv4.ip packetDropLifetimeExpired:count 0
scalar oneclienthost.server.ipv4.ip packetDropLifetimeExpired:sum(packetBytes) 0
scalar oneclienthost.server.ipv4.ip packetDropNoInterfaceFound:count 0
scalar oneclienthost.server.ipv4.ip packetDropNoInterfaceFound:sum(packetBytes) 0
scalar oneclienthost.server.ipv4.ip packetDropNoRouteFound:count 0
scalar oneclienthost.server.ipv4.ip packetDropNoRouteFound:sum(packetBytes) 0
scalar oneclienthost.server.ipv4.ip packetDropUndefined:count 0
scalar oneclienthost.server.ipv4.ip packetDropUndefined:sum(packetBytes) 0
scalar oneclienthost.server.ipv4.arp arpResolutionFailed:count 0
scalar oneclienthost.server.ipv4.arp arpResolutionCompleted:count 0
scalar oneclienthost.server.ipv4.arp arpResolutionInitiated:count 0
scalar oneclienthost.server.ipv4.arp arpReplySent:count 0
scalar oneclienthost.server.ipv4.arp arpReplySent:sum(packetBytes) 0
scalar oneclienthost.server.ipv4.arp arpRequestSent:count 0
scalar oneclienthost.server.ipv4.arp arpRequestSent:sum(packetBytes) 0
scalar oneclienthost.server.udp packetReceived:count 30
scalar oneclienthost.server.udp packetReceived:sum(packetBytes) 23168
scalar oneclienthost.server.udp packetSent:count 30
scalar oneclienthost.server.udp packetSent:sum(packetBytes) 808
scalar oneclienthost.server.udp passedUpPk:count 30
scalar oneclienthost.server.udp droppedPkWrongPort:count 0
scalar oneclienthost.server.udp droppedPkBadChecksum:count 0
scalar oneclienthost.server.quic maxDataFrameLostCount_cid=1_sid=0:last 0
scalar oneclienthost.server.quic generatedMaxDataFrameCount_cid=1_sid=0:last 0
scalar oneclienthost.server.quic rcvBlockFrameCount_cid=1_sid=0:last 0
scalar oneclienthost.server.quic rcvMaxFrameCount_cid=1_sid=0:last 0
scalar oneclienthost.server.quic generatedBlockFrameCount_cid=1_sid=0:last 0
scalar oneclienthost.server.quic maxDataFrameLostCount_cid=1:last 0
scalar oneclienthost.server.quic generatedMaxDataFrameCount_cid=1:last 0
scalar oneclienthost.server.quic rcvBlockFrameCount_cid=1:last 0
scalar oneclienthost.server.quic rcvMaxFrameCount_cid=1:last 0
scalar oneclienthost.server.quic generatedBlockFrameCount_cid=1:last 0
scalar oneclienthost.server.quic maxDataFrameLostCount_cid=0_sid=0:last 0
scalar oneclienthost.server.quic generatedMaxDataFrameCount_cid=0_sid=0:last 0
scalar oneclienthost.server.quic rcvBlockFrameCount_cid=0_sid=0:last 0
scalar oneclienthost.server.quic rcvMaxFrameCount_cid=0_sid=0:last 0
scalar oneclienthost.server.quic generatedBlockFrameCount_cid=0_sid=0:last 0
scalar oneclienthost.server.quic maxDataFrameLostCount_cid=0:last 0
scalar oneclienthost.server.quic generatedMaxDataFrameCount_cid=0:last 0
scalar oneclienthost.server.quic rcvBlockFrameCount_cid=0:last 0
scalar oneclienthost.server.quic rcvMaxFrameCount_cid=0:last 0
scalar oneclienthost.server.quic generatedBlockFrameCount_cid=0:last 0
scalar oneclienthost.server.quic packetReceived:count 30
scalar oneclienthost.server.quic packetReceived:sum(packetBytes) 22928
scalar oneclienthost.server.quic packetSent:count 30
scalar oneclienthost.server.quic packetSent:sum(packetBytes) 568
scalar oneclienthost.router1.ppp[0].queue queueingTime:histogram:count 30
scalar oneclienthost.router1.ppp[0].queue queueingTime:histogram:sumweights 30
scalar oneclienthost.router1.ppp[0].queue queueingTime:histogram:mean 1.0666666666666667e-09
scalar oneclienthost.router1.ppp[0].queue queueingTime:histogram:stddev 4.059330107239399e-09
scalar oneclienthost.router1.ppp[0].queue queueingTime:histogram:min 0
scalar oneclienthost.router1.ppp[0].queue queueingTime:histogram:max 1.6000000000000001e-08
scalar oneclienthost.router1.ppp[0].queue queueingTime:histogram:numbins 100
scalar oneclienthost.router1.ppp[0].queue queueingTime:histogram:rangemin 0
scalar oneclienthost.router1.ppp[0].queue queueingTime:histogram:rangemax 2.0000000000000007e-08
scalar oneclienthost.router1.ppp[0].queue queueingTime:histogram:underflows 0
scalar oneclienthost.router1.ppp[0].queue queueingTime:histogram:overflows 0
scalar oneclienthost.router1.ppp[0].queue outgoingPacketLengths:histogram:count 30
scalar oneclienthost.router1.ppp[0].queue outgoingPacketLengths:histogram:sumweights 30
scalar oneclienthost.router1.ppp[0].queue outgoingPacketLengths:histogram:mean 375.46666666666664
scalar oneclienthost.router1.ppp[0].queue outgoingPacketLengths:histogram:stddev 27.467514773202474
scalar oneclienthost.router1.ppp[0].queue outgoingPacketLengths:histogram:min 336
scalar oneclienthost.router1.ppp[0].queue outgoingPacketLengths:histogram:max 464
scalar oneclienthost.router1.ppp[0].queue outgoingPacketLengths:histogram:numbins 96
scalar oneclienthost.router1.ppp[0].queue outgoingPacketLengths:histogram:rangemin 304
scalar oneclienthost.router1.ppp[0].queue outgoingPacketLengths:histogram:rangemax 496
scalar oneclienthost.router1.ppp[0].queue outgoingPacketLengths:histogram:underflows 0
scalar oneclienthost.router1.ppp[0].queue outgoingPacketLengths:histogram:overflows 0
scalar oneclienthost.router1.ppp[0].queue flowQueueingTime:histogram:count 0
scalar oneclienthost.router1.ppp[0].queue flowQueueingTime:histogram:sumweights 0
scalar oneclienthost.router1.ppp[0].queue flowQueueingTime:histogram:mean -nan
scalar oneclienthost.router1.ppp[0].queue flowQueueingTime:histogram:stddev nan
scalar oneclienthost.router1.ppp[0].queue flowQueueingTime:histogram:min nan
scalar oneclienthost.router1.ppp[0].queue flowQueueingTime:histogram:max nan
scalar oneclienthost.router1.ppp[0].queue flowQueueingTime:histogram:numbins 1
scalar oneclienthost.router1.ppp[0].queue flowQueueingTime:histogram:rangemin 0
scalar oneclienthost.router1.ppp[0].queue flowQueueingTime:histogram:rangemax 1
scalar oneclienthost.router1.ppp[0].queue flowQueueingTime:histogram:underflows 0
scalar oneclienthost.router1.ppp[0].queue flowQueueingTime:histogram:overflows 0
scalar oneclienthost.router1.ppp[0].queue incomingPacketLengths:histogram:count 30
scalar oneclienthost.router1.ppp[0].queue incomingPacketLengths:histogram:sumweights 30
scalar oneclienthost.router1.ppp[0].queue incomingPacketLengths:histogram:mean 375.46666666666664
scalar oneclienthost.router1.ppp[0].queue incomingPacketLengths:histogram:stddev 27.467514773202474
scalar oneclienthost.router1.ppp[0].queue incomingPacketLengths:histogram:min 336
scalar oneclienthost.router1.ppp[0].queue incomingPacketLengths:histogram:max 464
scalar oneclienthost.router1.ppp[0].queue incomingPacketLengths:histogram:numbins 96
scalar oneclienthost.router1.ppp[0].queue incomingPacketLengths:histogram:rangemin 304
scalar oneclienthost.router1.ppp[0].queue incomingPacketLengths:histogram:rangemax 496
scalar oneclienthost.router1.ppp[0].queue incomingPacketLengths:histogram:underflows 0
scalar oneclienthost.router1.ppp[0].queue incomingPacketLengths:histogram:overflows 0
scalar oneclienthost.router1.ppp[1].queue queueingTime:histogram:count 30
scalar oneclienthost.router1.ppp[1].queue queueingTime:histogram:sumweights 30
scalar oneclienthost.router1.ppp[1].queue queueingTime:histogram:mean 0
scalar oneclienthost.router1.ppp[1].queue queueingTime:histogram:stddev 0
scalar oneclienthost.router1.ppp[1].queue queueingTime:histogram:min 0
scalar oneclienthost.router1.ppp[1].queue queueingTime:histogram:max 0
scalar oneclienthost.router1.ppp[1].queue queueingTime:histogram:numbins 50
scalar oneclienthost.router1.ppp[1].queue queueingTime:histogram:rangemin -0.5
scalar oneclienthost.router1.ppp[1].queue queueingTime:histogram:rangemax 0.5
scalar oneclienthost.router1.ppp[1].queue queueingTime:histogram:underflows 0
scalar oneclienthost.router1.ppp[1].queue queueingTime:histogram:overflows 0
scalar oneclienthost.router1.ppp[1].queue outgoingPacketLengths:histogram:count 30
scalar oneclienthost.router1.ppp[1].queue outgoingPacketLengths:histogram:sumweights 30
scalar oneclienthost.router1.ppp[1].queue outgoingPacketLengths:histogram:mean 6338.1333333333332
scalar oneclienthost.router1.ppp[1].queue outgoingPacketLengths:histogram:stddev 3675.9431511619864
scalar oneclienthost.router1.ppp[1].queue outgoingPacketLengths:histogram:min 352
scalar oneclienthost.router1.ppp[1].queue outgoingPacketLengths:histogram:max 9824
scalar oneclienthost.router1.ppp[1].queue outgoingPacketLengths:histogram:numbins 61
scalar oneclienthost.router1.ppp[1].queue outgoingPacketLengths:histogram:rangemin 0
scalar oneclienthost.router1.ppp[1].queue outgoingPacketLengths:histogram:rangemax 12200
scalar oneclienthost.router1.ppp[1].queue outgoingPacketLengths:histogram:underflows 0
scalar oneclienthost.router1.ppp[1].queue outgoingPacketLengths:histogram:overflows 0
scalar oneclienthost.router1.ppp[1].queue flowQueueingTime:histogram:count 0
scalar oneclienthost.router1.ppp[1].queue flowQueueingTime:histogram:sumweights 0
scalar oneclienthost.router1.ppp[1].queue flowQueueingTime:histogram:mean -nan
scalar oneclienthost.router1.ppp[1].queue flowQueueingTime:histogram:stddev nan
scalar oneclienthost.router1.ppp[1].queue flowQueueingTime:histogram:min nan
scalar oneclienthost.router1.ppp[1].queue flowQueueingTime:histogram:max nan
scalar oneclienthost.router1.ppp[1].queue flowQueueingTime:histogram:numbins 1
scalar oneclienthost.router1.ppp[1].queue flowQueueingTime:histogram:rangemin 0
scalar oneclienthost.router1.ppp[1].queue flowQueueingTime:histogram:rangemax 1
scalar oneclienthost.router1.ppp[1].queue flowQueueingTime:histogram:underflows 0
scalar oneclienthost.router1.ppp[1].queue flowQueueingTime:histogram:overflows 0
scalar oneclienthost.router1.ppp[1].queue incomingPacketLengths:histogram:count 30
scalar oneclienthost.router1.ppp[1].queue incomingPacketLengths:histogram:sumweights 30
scalar oneclienthost.router1.ppp[1].queue incomingPacketLengths:histogram:mean 6338.1333333333332
scalar oneclienthost.router1.ppp[1].queue incomingPacketLengths:histogram:stddev 3675.9431511619864
scalar oneclienthost.router1.ppp[1].queue incomingPacketLengths:histogram:min 352
scalar oneclienthost.router1.ppp[1].queue incomingPacketLengths:histogram:max 9824
scalar oneclienthost.router1.ppp[1].queue incomingPacketLengths:histogram:numbins 61
scalar oneclienthost.router1.ppp[1].queue incomingPacketLengths:histogram:rangemin 0
scalar oneclienthost.router1.ppp[1].queue incomingPacketLengths:histogram:rangemax 12200
scalar oneclienthost.router1.ppp[1].queue incomingPacketLengths:histogram:underflows 0
scalar oneclienthost.router1.ppp[1].queue incomingPacketLengths:histogram:overflows 0
scalar oneclienthost.router2.ppp[0].queue queueingTime:histogram:count 30
scalar oneclienthost.router2.ppp[0].queue queueingTime:histogram:sumweights 30
scalar oneclienthost.router2.ppp[0].queue queueingTime:histogram:mean 1.0666666666666667e-09
scalar oneclienthost.router2.ppp[0].queue queueingTime:histogram:stddev 4.059330107239399e-09
scalar oneclienthost.router2.ppp[0].queue queueingTime:histogram:min 0
scalar oneclienthost.router2.ppp[0].queue queueingTime:histogram:max 1.6000000000000001e-08
scalar oneclienthost.router2.ppp[0].queue queueingTime:histogram:numbins 100
scalar oneclienthost.router2.ppp[0].queue queueingTime:histogram:rangemin 0
scalar oneclienthost.router2.ppp[0].queue queueingTime:histogram:rangemax 2.0000000000000007e-08
scalar oneclienthost.router2.ppp[0].queue queueingTime:histogram:underflows 0
scalar oneclienthost.router2.ppp[0].queue queueingTime:histogram:overflows 0
scalar oneclienthost.router2.ppp[0].queue outgoingPacketLengths:histogram:count 30
scalar oneclienthost.router2.ppp[0].queue outgoingPacketLengths:histogram:sumweights 30
scalar oneclienthost.router2.ppp[0].queue outgoingPacketLengths:histogram:mean 375.46666666666664
scalar oneclienthost.router2.ppp[0].queue outgoingPacketLengths:histogram:stddev 27.467514773202474
scalar oneclienthost.router2.ppp[0].queue outgoingPacketLengths:histogram:min 336
scalar oneclienthost.router2.ppp[0].queue outgoingPacketLengths:histogram:max 464
scalar oneclienthost.router2.ppp[0].queue outgoingPacketLengths:histogram:numbins 96
scalar oneclienthost.router2.ppp[0].queue outgoingPacketLengths:histogram:rangemin 304
scalar oneclienthost.router2.ppp[0].queue outgoingPacketLengths:histogram:rangemax 496
scalar oneclienthost.router2.ppp[0].queue outgoingPacketLengths:histogram:underflows 0
scalar oneclienthost.router2.ppp[0].queue outgoingPacketLengths:histogram:overflows 0
scalar oneclienthost.router2.ppp[0].queue flowQueueingTime:histogram:count 0
scalar oneclienthost.router2.ppp[0].queue flowQueueingTime:histogram:sumweights 0
scalar oneclienthost.router2.ppp[0].queue flowQueueingTime:histogram:mean -nan
scalar oneclienthost.router2.ppp[0].queue flowQueueingTime:histogram:stddev nan
scalar oneclienthost.router2.ppp[0].queue flowQueueingTime:histogram:min nan
scalar oneclienthost.router2.ppp[0].queue flowQueueingTime:histogram:max nan
scalar oneclienthost.router2.ppp[0].queue flowQueueingTime:histogram:numbins 1
scalar oneclienthost.router2.ppp[0].queue flowQueueingTime:histogram:rangemin 0
scalar oneclienthost.router2.ppp[0].queue flowQueueingTime:histogram:rangemax 1
scalar oneclienthost.router2.ppp[0].queue flowQueueingTime:histogram:underflows 0
scalar oneclienthost.router2.ppp[0].queue flowQueueingTime:histogram:overflows 0
scalar oneclienthost.router2.ppp[0].queue incomingPacketLengths:histogram:count 30
scalar oneclienthost.router2.ppp[0].queue incomingPacketLengths:histogram:sumweights 30
scalar oneclienthost.router2.ppp[0].queue incomingPacketLengths:histogram:mean 375.46666666666664
scalar oneclienthost.router2.ppp[0].queue incomingPacketLengths:histogram:stddev 27.467514773202474
scalar oneclienthost.router2.ppp[0].queue incomingPacketLengths:histogram:min 336
scalar oneclienthost.router2.ppp[0].queue incomingPacketLengths:histogram:max 464
scalar oneclienthost.router2.ppp[0].queue incomingPacketLengths:histogram:numbins 96
scalar oneclienthost.router2.ppp[0].queue incomingPacketLengths:histogram:rangemin 304
scalar oneclienthost.router2.ppp[0].queue incomingPacketLengths:histogram:rangemax 496
scalar oneclienthost.router2.ppp[0].queue incomingPacketLengths:histogram:underflows 0
scalar oneclienthost.router2.ppp[0].queue incomingPacketLengths:histogram:overflows 0
scalar oneclienthost.router2.ppp[1].queue queueingTime:histogram:count 30
scalar oneclienthost.router2.ppp[1].queue queueingTime:histogram:sumweights 30
scalar oneclienthost.router2.ppp[1].queue queueingTime:histogram:mean 0
scalar oneclienthost.router2.ppp[1].queue queueingTime:histogram:stddev 0
scalar oneclienthost.router2.ppp[1].queue queueingTime:histogram:min 0
scalar oneclienthost.router2.ppp[1].queue queueingTime:histogram:max 0
scalar oneclienthost.router2.ppp[1].queue queueingTime:histogram:numbins 50
scalar oneclienthost.router2.ppp[1].queue queueingTime:histogram:rangemin -0.5
scalar oneclienthost.router2.ppp[1].queue queueingTime:histogram:rangemax 0.5
scalar oneclienthost.router2.ppp[1].queue queueingTime:histogram:underflows 0
scalar oneclienthost.router2.ppp[1].queue queueingTime:histogram:overflows 0
scalar oneclienthost.router2.ppp[1].queue outgoingPacketLengths:histogram:count 30
scalar oneclienthost.router2.ppp[1].queue outgoingPacketLengths:histogram:sumweights 30
scalar oneclienthost.router2.ppp[1].queue outgoingPacketLengths:histogram:mean 6338.1333333333332
scalar oneclienthost.router2.ppp[1].queue outgoingPacketLengths:histogram:stddev 3675.9431511619864
scalar oneclienthost.router2.ppp[1].queue outgoingPacketLengths:histogram:min 352
scalar oneclienthost.router2.ppp[1].queue outgoingPacketLengths:histogram:max 9824
scalar oneclienthost.router2.ppp[1].queue outgoingPacketLengths:histogram:numbins 61
scalar oneclienthost.router2.ppp[1].queue outgoingPacketLengths:histogram:rangemin 0
scalar oneclienthost.router2.ppp[1].queue outgoingPacketLengths:histogram:rangemax 12200
scalar oneclienthost.router2.ppp[1].queue outgoingPacketLengths:histogram:underflows 0
scalar oneclienthost.router2.ppp[1].queue outgoingPacketLengths:histogram:overflows 0
scalar oneclienthost.router2.ppp[1].queue flowQueueingTime:histogram:count 0
scalar oneclienthost.router2.ppp[1].queue flowQueueingTime:histogram:sumweights 0
scalar oneclienthost.router2.ppp[1].queue flowQueueingTime:histogram:mean -nan
scalar oneclienthost.router2.ppp[1].queue flowQueueingTime:histogram:stddev nan
scalar oneclienthost.router2.ppp[1].queue flowQueueingTime:histogram:min nan
scalar oneclienthost.router2.ppp[1].queue flowQueueingTime:histogram:max nan
scalar oneclienthost.router2.ppp[1].queue flowQueueingTime:histogram:numbins 1
scalar oneclienthost.router2.ppp[1].queue flowQueueingTime:histogram:rangemin 0
scalar oneclienthost.router2.ppp[1].queue flowQueueingTime:histogram:rangemax 1
scalar oneclienthost.router2.ppp[1].queue flowQueueingTime:histogram:underflows 0
scalar oneclienthost.router2.ppp[1].queue flowQueueingTime:histogram:overflows 0
scalar oneclienthost.router2.ppp[1].queue incomingPacketLengths:histogram:count 30
scalar oneclienthost.router2.ppp[1].queue incomingPacketLengths:histogram:sumweights 30
scalar oneclienthost.router2.ppp[1].queue incomingPacketLengths:histogram:mean 6338.1333333333332
scalar oneclienthost.router2.ppp[1].queue incomingPacketLengths:histogram:stddev 3675.9431511619864
scalar oneclienthost.router2.ppp[1].queue incomingPacketLengths:histogram:min 352
scalar oneclienthost.router2.ppp[1].queue incomingPacketLengths:histogram:max 9824
scalar oneclienthost.router2.ppp[1].queue incomingPacketLengths:histogram:numbins 61
scalar oneclienthost.router2.ppp[1].queue incomingPacketLengths:histogram:rangemin 0
scalar oneclienthost.router2.ppp[1].queue incomingPacketLengths:histogram:rangemax 12200
scalar oneclienthost.router2.ppp[1].queue incomingPacketLengths:histogram:underflows 0
scalar oneclienthost.router2.ppp[1].queue incomingPacketLengths:histogram:overflows 0
scalar oneclienthost.client.ppp[0].queue queueingTime:histogram:count 30
scalar oneclienthost.client.ppp[0].queue queueingTime:histogram:sumweights 30
scalar oneclienthost.client.ppp[0].queue queueingTime:histogram:mean 0
scalar oneclienthost.client.ppp[0].queue queueingTime:histogram:stddev 0
scalar oneclienthost.client.ppp[0].queue queueingTime:histogram:min 0
scalar oneclienthost.client.ppp[0].queue queueingTime:histogram:max 0
scalar oneclienthost.client.ppp[0].queue queueingTime:histogram:numbins 50
scalar oneclienthost.client.ppp[0].queue queueingTime:histogram:rangemin -0.5
scalar oneclienthost.client.ppp[0].queue queueingTime:histogram:rangemax 0.5
scalar oneclienthost.client.ppp[0].queue queueingTime:histogram:underflows 0
scalar oneclienthost.client.ppp[0].queue queueingTime:histogram:overflows 0
scalar oneclienthost.client.ppp[0].queue outgoingPacketLengths:histogram:count 30
scalar oneclienthost.client.ppp[0].queue outgoingPacketLengths:histogram:sumweights 30
scalar oneclienthost.client.ppp[0].queue outgoingPacketLengths:histogram:mean 6338.1333333333332
scalar oneclienthost.client.ppp[0].queue outgoingPacketLengths:histogram:stddev 3675.9431511619864
scalar oneclienthost.client.ppp[0].queue outgoingPacketLengths:histogram:min 352
scalar oneclienthost.client.ppp[0].queue outgoingPacketLengths:histogram:max 9824
scalar oneclienthost.client.ppp[0].queue outgoingPacketLengths:histogram:numbins 61
scalar oneclienthost.client.ppp[0].queue outgoingPacketLengths:histogram:rangemin 0
scalar oneclienthost.client.ppp[0].queue outgoingPacketLengths:histogram:rangemax 12200
scalar oneclienthost.client.ppp[0].queue outgoingPacketLengths:histogram:underflows 0
scalar oneclienthost.client.ppp[0].queue outgoingPacketLengths:histogram:overflows 0
scalar oneclienthost.client.ppp[0].queue flowQueueingTime:histogram:count 0
scalar oneclienthost.client.ppp[0].queue flowQueueingTime:histogram:sumweights 0
scalar oneclienthost.client.ppp[0].queue flowQueueingTime:histogram:mean -nan
scalar oneclienthost.client.ppp[0].queue flowQueueingTime:histogram:stddev nan
scalar oneclienthost.client.ppp[0].queue flowQueueingTime:histogram:min nan
scalar oneclienthost.client.ppp[0].queue flowQueueingTime:histogram:max nan
scalar oneclienthost.client.ppp[0].queue flowQueueingTime:histogram:numbins 1
scalar oneclienthost.client.ppp[0].queue flowQueueingTime:histogram:rangemin 0
scalar oneclienthost.client.ppp[0].queue flowQueueingTime:histogram:rangemax 1
scalar oneclienthost.client.ppp[0].queue flowQueueingTime:histogram:underflows 0
scalar oneclienthost.client.ppp[0].queue flowQueueingTime:histogram:overflows 0
scalar oneclienthost.client.ppp[0].queue incomingPacketLengths:histogram:count 30
scalar oneclienthost.client.ppp[0].queue incomingPacketLengths:histogram:sumweights 30
scalar oneclienthost.client.ppp[0].queue incomingPacketLengths:histogram:mean 6338.1333333333332
scalar oneclienthost.client.ppp[0].queue incomingPacketLengths:histogram:stddev 3675.9431511619864
scalar oneclienthost.client.ppp[0].queue incomingPacketLengths:histogram:min 352
scalar oneclienthost.client.ppp[0].queue incomingPacketLengths:histogram:max 9824
scalar oneclienthost.client.ppp[0].queue incomingPacketLengths:histogram:numbins 61
scalar oneclienthost.client.ppp[0].queue incomingPacketLengths:histogram:rangemin 0
scalar oneclienthost.client.ppp[0].queue incomingPacketLengths:histogram:rangemax 12200
scalar oneclienthost.client.ppp[0].queue incomingPacketLengths:histogram:underflows 0
scalar oneclienthost.client.ppp[0].queue incomingPacketLengths:histogram:overflows 0
scalar oneclienthost.server.ppp[0].queue queueingTime:histogram:count 30
scalar oneclienthost.server.ppp[0].queue queueingTime:histogram:sumweights 30
scalar oneclienthost.server.ppp[0].queue queueingTime:histogram:mean 5.5999999999999999e-08
scalar oneclienthost.server.ppp[0].queue queueingTime:histogram:stddev 1.4528165273251009e-07
scalar oneclienthost.server.ppp[0].queue queueingTime:histogram:min 0
scalar oneclienthost.server.ppp[0].queue queueingTime:histogram:max 4.32e-07
scalar oneclienthost.server.ppp[0].queue queueingTime:histogram:numbins 54
scalar oneclienthost.server.ppp[0].queue queueingTime:histogram:rangemin 0
scalar oneclienthost.server.ppp[0].queue queueingTime:histogram:rangemax 5.4000000000000012e-07
scalar oneclienthost.server.ppp[0].queue queueingTime:histogram:underflows 0
scalar oneclienthost.server.ppp[0].queue queueingTime:histogram:overflows 0
scalar oneclienthost.server.ppp[0].queue outgoingPacketLengths:histogram:count 30
scalar oneclienthost.server.ppp[0].queue outgoingPacketLengths:histogram:sumweights 30
scalar oneclienthost.server.ppp[0].queue outgoingPacketLengths:histogram:mean 375.46666666666664
scalar oneclienthost.server.ppp[0].queue outgoingPacketLengths:histogram:stddev 27.467514773202474
scalar oneclienthost.server.ppp[0].queue outgoingPacketLengths:histogram:min 336
scalar oneclienthost.server.ppp[0].queue outgoingPacketLengths:histogram:max 464
scalar oneclienthost.server.ppp[0].queue outgoingPacketLengths:histogram:numbins 96
scalar oneclienthost.server.ppp[0].queue outgoingPacketLengths:histogram:rangemin 304
scalar oneclienthost.server.ppp[0].queue outgoingPacketLengths:histogram:rangemax 496
scalar oneclienthost.server.ppp[0].queue outgoingPacketLengths:histogram:underflows 0
scalar oneclienthost.server.ppp[0].queue outgoingPacketLengths:histogram:overflows 0
scalar oneclienthost.server.ppp[0].queue flowQueueingTime:histogram:count 0
scalar oneclienthost.server.ppp[0].queue flowQueueingTime:histogram:sumweights 0
scalar oneclienthost.server.ppp[0].queue flowQueueingTime:histogram:mean -nan
scalar oneclienthost.server.ppp[0].queue flowQueueingTime:histogram:stddev nan
scalar oneclienthost.server.ppp[0].queue flowQueueingTime:histogram:min nan
scalar oneclienthost.server.ppp[0].queue flowQueueingTime:histogram:max nan
scalar oneclienthost.server.ppp[0].queue flowQueueingTime:histogram:numbins 1
scalar oneclienthost.server.ppp[0].queue flowQueueingTime:histogram:rangemin 0
scalar oneclienthost.server.ppp[0].queue flowQueueingTime:histogram:rangemax 1
scalar oneclienthost.server.ppp[0].queue flowQueueingTime:histogram:underflows 0
scalar oneclienthost.server.ppp[0].queue flowQueueingTime:histogram:overflows 0
scalar oneclienthost.server.ppp[0].queue incomingPacketLengths:histogram:count 30
scalar oneclienthost.server.ppp[0].queue incomingPacketLengths:histogram:sumweights 30
scalar oneclienthost.server.ppp[0].queue incomingPacketLengths:histogram:mean 375.46666666666664
scalar oneclienthost.server.ppp[0].queue incomingPacketLengths:histogram:stddev 27.467514773202474
scalar oneclienthost.server.ppp[0].queue incomingPacketLengths:histogram:min 336
scalar oneclienthost.server.ppp[0].queue incomingPacketLengths:histogram:max 464
scalar oneclienthost.server.ppp[0].queue incomingPacketLengths:histogram:numbins 96
scalar oneclienthost.server.ppp[0].queue incomingPacketLengths:histogram:rangemin 304
scalar oneclienthost.server.ppp[0].queue incomingPacketLengths:histogram:rangemax 496
scalar oneclienthost.server.ppp[0].queue incomingPacketLengths:histogram:underflows 0
scalar oneclienthost.server.ppp[0].queue incomingPacketLengths:histogram:overflows 0
statistic oneclienthost.router1.ppp[0].queue queueingTime:histogram
field count 30
field mean 1.0666666666666667e-09
field stddev 4.059330107239399e-09
field min 0
field max 1.6000000000000001e-08
field sum 3.2000000000000002e-08
field sqrsum 5.1200000000000004e-16
bin	-inf	0
bin	0	28
bin	2.0000000000000006e-10	0
bin	4.0000000000000012e-10	0
bin	6.000000000000002e-10	0
bin	8.0000000000000024e-10	0
bin	1.0000000000000003e-09	0
bin	1.2000000000000004e-09	0
bin	1.4000000000000003e-09	0
bin	1.6000000000000005e-09	0
bin	1.8000000000000006e-09	0
bin	2.0000000000000005e-09	0
bin	2.2000000000000007e-09	0
bin	2.4000000000000008e-09	0
bin	2.6000000000000009e-09	0
bin	2.8000000000000007e-09	0
bin	3.0000000000000008e-09	0
bin	3.2000000000000009e-09	0
bin	3.4000000000000011e-09	0
bin	3.6000000000000012e-09	0
bin	3.8000000000000009e-09	0
bin	4.0000000000000011e-09	0
bin	4.2000000000000012e-09	0
bin	4.4000000000000013e-09	0
bin	4.6000000000000015e-09	0
bin	4.8000000000000016e-09	0
bin	5.0000000000000018e-09	0
bin	5.2000000000000019e-09	0
bin	5.4000000000000012e-09	0
bin	5.6000000000000013e-09	0
bin	5.8000000000000015e-09	0
bin	6.0000000000000016e-09	0
bin	6.2000000000000018e-09	0
bin	6.4000000000000019e-09	0
bin	6.600000000000002e-09	0
bin	6.8000000000000022e-09	0
bin	7.0000000000000023e-09	0
bin	7.2000000000000024e-09	0
bin	7.4000000000000026e-09	0
bin	7.6000000000000019e-09	0
bin	7.800000000000002e-09	0
bin	8.0000000000000022e-09	0
bin	8.2000000000000023e-09	0
bin	8.4000000000000024e-09	0
bin	8.6000000000000026e-09	0
bin	8.8000000000000027e-09	0
bin	9.0000000000000028e-09	0
bin	9.200000000000003e-09	0
bin	9.4000000000000031e-09	0
bin	9.6000000000000032e-09	0
bin	9.8000000000000034e-09	0
bin	1.0000000000000004e-08	0
bin	1.0200000000000004e-08	0
bin	1.0400000000000004e-08	0
bin	1.0600000000000004e-08	0
bin	1.0800000000000002e-08	0
bin	1.1000000000000003e-08	0
bin	1.1200000000000003e-08	0
bin	1.1400000000000003e-08	0
bin	1.1600000000000003e-08	0
bin	1.1800000000000003e-08	0
bin	1.2000000000000003e-08	0
bin	1.2200000000000003e-08	0
bin	1.2400000000000004e-08	0
bin	1.2600000000000004e-08	0
bin	1.2800000000000004e-08	0
bin	1.3000000000000004e-08	0
bin	1.3200000000000004e-08	0
bin	1.3400000000000004e-08	0
bin	1.3600000000000004e-08	0
bin	1.3800000000000004e-08	0
bin	1.4000000000000005e-08	0
bin	1.4200000000000005e-08	0
bin	1.4400000000000005e-08	0
bin	1.4600000000000005e-08	0
bin	1.4800000000000005e-08	0
bin	1.5000000000000005e-08	0
bin	1.5200000000000004e-08	0
bin	1.5400000000000006e-08	0
bin	1.5600000000000004e-08	0
bin	1.5800000000000006e-08	2
bin	1.6000000000000004e-08	0
bin	1.6200000000000006e-08	0
bin	1.6400000000000005e-08	0
bin	1.6600000000000006e-08	0
bin	1.6800000000000005e-08	0
bin	1.7000000000000007e-08	0
bin	1.7200000000000005e-08	0
bin	1.7400000000000004e-08	0
bin	1.7600000000000005e-08	0
bin	1.7800000000000004e-08	0
bin	1.8000000000000006e-08	0
bin	1.8200000000000004e-08	0
bin	1.8400000000000006e-08	0
bin	1.8600000000000004e-08	0
bin	1.8800000000000006e-08	0
bin	1.9000000000000005e-08	0
bin	1.9200000000000006e-08	0
bin	1.9400000000000005e-08	0
bin	1.9600000000000007e-08	0
bin	1.9800000000000005e-08	0
bin	2.0000000000000007e-08	0
statistic oneclienthost.router1.ppp[0].queue outgoingPacketLengths:histogram
field count 30
field mean 375.46666666666664
field stddev 27.467514773202474
field min 336
field max 464
field sum 11264
field sqrsum 4251136
bin	-inf	0
bin	304	0
bin	306	0
bin	308	0
bin	310	0
bin	312	0
bin	314	0
bin	316	0
bin	318	0
bin	320	0
bin	322	0
bin	324	0
bin	326	0
bin	328	0
bin	330	0
bin	332	0
bin	334	0
bin	336	2
bin	338	0
bin	340	0
bin	342	0
bin	344	2
bin	346	0
bin	348	0
bin	350	0
bin	352	2
bin	354	0
bin	356	0
bin	358	0
bin	360	0
bin	362	0
bin	364	0
bin	366	0
bin	368	0
bin	370	0
bin	372	0
bin	374	0
bin	376	22
bin	378	0
bin	380	0
bin	382	0
bin	384	0
bin	386	0
bin	388	0
bin	390	0
bin	392	0
bin	394	0
bin	396	0
bin	398	0
bin	400	0
bin	402	0
bin	404	0
bin	406	0
bin	408	0
bin	410	0
bin	412	0
bin	414	0
bin	416	0
bin	418	0
bin	420	0
bin	422	0
bin	424	0
bin	426	0
bin	428	0
bin	430	0
bin	432	0
bin	434	0
bin	436	0
bin	438	0
bin	440	0
bin	442	0
bin	444	0
bin	446	0
bin	448	0
bin	450	0
bin	452	0
bin	454	0
bin	456	0
bin	458	0
bin	460	0
bin	462	0
bin	464	2
bin	466	0
bin	468	0
bin	470	0
bin	472	0
bin	474	0
bin	476	0
bin	478	0
bin	480	0
bin	482	0
bin	484	0
bin	486	0
bin	488	0
bin	490	0
bin	492	0
bin	494	0
bin	496	0
statistic oneclienthost.router1.ppp[0].queue flowQueueingTime:histogram
field count 0
field mean -nan
field stddev nan
field min nan
field max nan
field sum 0
field sqrsum 0
bin	-inf	0
bin	0	0
bin	1	0
statistic oneclienthost.router1.ppp[0].queue incomingPacketLengths:histogram
field count 30
field mean 375.46666666666664
field stddev 27.467514773202474
field min 336
field max 464
field sum 11264
field sqrsum 4251136
bin	-inf	0
bin	304	0
bin	306	0
bin	308	0
bin	310	0
bin	312	0
bin	314	0
bin	316	0
bin	318	0
bin	320	0
bin	322	0
bin	324	0
bin	326	0
bin	328	0
bin	330	0
bin	332	0
bin	334	0
bin	336	2
bin	338	0
bin	340	0
bin	342	0
bin	344	2
bin	346	0
bin	348	0
bin	350	0
bin	352	2
bin	354	0
bin	356	0
bin	358	0
bin	360	0
bin	362	0
bin	364	0
bin	366	0
bin	368	0
bin	370	0
bin	372	0
bin	374	0
bin	376	22
bin	378	0
bin	380	0
bin	382	0
bin	384	0
bin	386	0
bin	388	0
bin	390	0
bin	392	0
bin	394	0
bin	396	0
bin	398	0
bin	400	0
bin	402	0
bin	404	0
bin	406	0
bin	408	0
bin	410	0
bin	412	0
bin	414	0
bin	416	0
bin	418	0
bin	420	0
bin	422	0
bin	424	0
bin	426	0
bin	428	0
bin	430	0
bin	432	0
bin	434	0
bin	436	0
bin	438	0
bin	440	0
bin	442	0
bin	444	0
bin	446	0
bin	448	0
bin	450	0
bin	452	0
bin	454	0
bin	456	0
bin	458	0
bin	460	0
bin	462	0
bin	464	2
bin	466	0
bin	468	0
bin	470	0
bin	472	0
bin	474	0
bin	476	0
bin	478	0
bin	480	0
bin	482	0
bin	484	0
bin	486	0
bin	488	0
bin	490	0
bin	492	0
bin	494	0
bin	496	0
statistic oneclienthost.router1.ppp[1].queue queueingTime:histogram
field count 30
field mean 0
field stddev 0
field min 0
field max 0
field sum 0
field sqrsum 0
bin	-inf	0
bin	-0.5	0
bin	-0.47999999999999998	0
bin	-0.46000000000000002	0
bin	-0.44	0
bin	-0.41999999999999998	0
bin	-0.40000000000000002	0
bin	-0.38	0
bin	-0.35999999999999999	0
bin	-0.33999999999999997	0
bin	-0.32000000000000001	0
bin	-0.29999999999999999	0
bin	-0.28000000000000003	0
bin	-0.26000000000000001	0
bin	-0.23999999999999999	0
bin	-0.21999999999999997	0
bin	-0.20000000000000001	0
bin	-0.17999999999999999	0
bin	-0.15999999999999998	0
bin	-0.14000000000000001	0
bin	-0.12	0
bin	-0.099999999999999978	0
bin	-0.080000000000000016	0
bin	-0.059999999999999998	0
bin	-0.03999999999999998	0
bin	-0.020000000000000018	0
bin	0	30
bin	0.020000000000000018	0
bin	0.040000000000000036	0
bin	0.060000000000000053	0
bin	0.07999999999999996	0
bin	0.099999999999999978	0
bin	0.12	0
bin	0.14000000000000001	0
bin	0.16000000000000003	0
bin	0.18000000000000005	0
bin	0.20000000000000007	0
bin	0.21999999999999997	0
bin	0.23999999999999999	0
bin	0.26000000000000001	0
bin	0.28000000000000003	0
bin	0.30000000000000004	0
bin	0.32000000000000006	0
bin	0.33999999999999997	0
bin	0.35999999999999999	0
bin	0.38	0
bin	0.40000000000000002	0
bin	0.42000000000000004	0
bin	0.44000000000000006	0
bin	0.45999999999999996	0
bin	0.47999999999999998	0
bin	0.5	0
statistic oneclienthost.router1.ppp[1].queue outgoingPacketLengths:histogram
field count 30
field mean 6338.1333333333332
field stddev 3675.9431511619864
field min 352
field max 9824
field sum 190144
field sqrsum 1597022208
bin	-inf	0
bin	0	0
bin	200	8
bin	400	0
bin	600	0
bin	800	0
bin	1000	0
bin	1200	0
bin	1400	0
bin	1600	0
bin	1800	0
bin	2000	0
bin	2200	0
bin	2400	0
bin	2600	0
bin	2800	0
bin	3000	0
bin	3200	0
bin	3400	0
bin	3600	0
bin	3800	0
bin	4000	0
bin	4200	0
bin	4400	0
bin	4600	0
bin	4800	0
bin	5000	0
bin	5200	0
bin	5400	0
bin	5600	0
bin	5800	0
bin	6000	0
bin	6200	0
bin	6400	0
bin	6600	0
bin	6800	0
bin	7000	0
bin	7200	0
bin	7400	0
bin	7600	0
bin	7800	0
bin	8000	0
bin	8200	20
bin	8400	0
bin	8600	0
bin	8800	0
bin	9000	0
bin	9200	0
bin	9400	0
bin	9600	0
bin	9800	2
bin	10000	0
bin	10200	0
bin	10400	0
bin	10600	0
bin	10800	0
bin	11000	0
bin	11200	0
bin	11400	0
bin	11600	0
bin	11800	0
bin	12000	0
bin	12200	0
statistic oneclienthost.router1.ppp[1].queue flowQueueingTime:histogram
field count 0
field mean -nan
field stddev nan
field min nan
field max nan
field sum 0
field sqrsum 0
bin	-inf	0
bin	0	0
bin	1	0
statistic oneclienthost.router1.ppp[1].queue incomingPacketLengths:histogram
field count 30
field mean 6338.1333333333332
field stddev 3675.9431511619864
field min 352
field max 9824
field sum 190144
field sqrsum 1597022208
bin	-inf	0
bin	0	0
bin	200	8
bin	400	0
bin	600	0
bin	800	0
bin	1000	0
bin	1200	0
bin	1400	0
bin	1600	0
bin	1800	0
bin	2000	0
bin	2200	0
bin	2400	0
bin	2600	0
bin	2800	0
bin	3000	0
bin	3200	0
bin	3400	0
bin	3600	0
bin	3800	0
bin	4000	0
bin	4200	0
bin	4400	0
bin	4600	0
bin	4800	0
bin	5000	0
bin	5200	0
bin	5400	0
bin	5600	0
bin	5800	0
bin	6000	0
bin	6200	0
bin	6400	0
bin	6600	0
bin	6800	0
bin	7000	0
bin	7200	0
bin	7400	0
bin	7600	0
bin	7800	0
bin	8000	0
bin	8200	20
bin	8400	0
bin	8600	0
bin	8800	0
bin	9000	0
bin	9200	0
bin	9400	0
bin	9600	0
bin	9800	2
bin	10000	0
bin	10200	0
bin	10400	0
bin	10600	0
bin	10800	0
bin	11000	0
bin	11200	0
bin	11400	0
bin	11600	0
bin	11800	0
bin	12000	0
bin	12200	0
statistic oneclienthost.router2.ppp[0].queue queueingTime:histogram
field count 30
field mean 1.0666666666666667e-09
field stddev 4.059330107239399e-09
field min 0
field max 1.6000000000000001e-08
field sum 3.2000000000000002e-08
field sqrsum 5.1200000000000004e-16
bin	-inf	0
bin	0	28
bin	2.0000000000000006e-10	0
bin	4.0000000000000012e-10	0
bin	6.000000000000002e-10	0
bin	8.0000000000000024e-10	0
bin	1.0000000000000003e-09	0
bin	1.2000000000000004e-09	0
bin	1.4000000000000003e-09	0
bin	1.6000000000000005e-09	0
bin	1.8000000000000006e-09	0
bin	2.0000000000000005e-09	0
bin	2.2000000000000007e-09	0
bin	2.4000000000000008e-09	0
bin	2.6000000000000009e-09	0
bin	2.8000000000000007e-09	0
bin	3.0000000000000008e-09	0
bin	3.2000000000000009e-09	0
bin	3.4000000000000011e-09	0
bin	3.6000000000000012e-09	0
bin	3.8000000000000009e-09	0
bin	4.0000000000000011e-09	0
bin	4.2000000000000012e-09	0
bin	4.4000000000000013e-09	0
bin	4.6000000000000015e-09	0
bin	4.8000000000000016e-09	0
bin	5.0000000000000018e-09	0
bin	5.2000000000000019e-09	0
bin	5.4000000000000012e-09	0
bin	5.6000000000000013e-09	0
bin	5.8000000000000015e-09	0
bin	6.0000000000000016e-09	0
bin	6.2000000000000018e-09	0
bin	6.4000000000000019e-09	0
bin	6.600000000000002e-09	0
bin	6.8000000000000022e-09	0
bin	7.0000000000000023e-09	0
bin	7.2000000000000024e-09	0
bin	7.4000000000000026e-09	0
bin	7.6000000000000019e-09	0
bin	7.800000000000002e-09	0
bin	8.0000000000000022e-09	0
bin	8.2000000000000023e-09	0
bin	8.4000000000000024e-09	0
bin	8.6000000000000026e-09	0
bin	8.8000000000000027e-09	0
bin	9.0000000000000028e-09	0
bin	9.200000000000003e-09	0
bin	9.4000000000000031e-09	0
bin	9.6000000000000032e-09	0
bin	9.8000000000000034e-09	0
bin	1.0000000000000004e-08	0
bin	1.0200000000000004e-08	0
bin	1.0400000000000004e-08	0
bin	1.0600000000000004e-08	0
bin	1.0800000000000002e-08	0
bin	1.1000000000000003e-08	0
bin	1.1200000000000003e-08	0
bin	1.1400000000000003e-08	0
bin	1.1600000000000003e-08	0
bin	1.1800000000000003e-08	0
bin	1.2000000000000003e-08	0
bin	1.2200000000000003e-08	0
bin	1.2400000000000004e-08	0
bin	1.2600000000000004e-08	0
bin	1.2800000000000004e-08	0
bin	1.3000000000000004e-08	0
bin	1.3200000000000004e-08	0
bin	1.3400000000000004e-08	0
bin	1.3600000000000004e-08	0
bin	1.3800000000000004e-08	0
bin	1.4000000000000005e-08	0
bin	1.4200000000000005e-08	0
bin	1.4400000000000005e-08	0
bin	1.4600000000000005e-08	0
bin	1.4800000000000005e-08	0
bin	1.5000000000000005e-08	0
bin	1.5200000000000004e-08	0
bin	1.5400000000000006e-08	0
bin	1.5600000000000004e-08	0
bin	1.5800000000000006e-08	2
bin	1.6000000000000004e-08	0
bin	1.6200000000000006e-08	0
bin	1.6400000000000005e-08	0
bin	1.6600000000000006e-08	0
bin	1.6800000000000005e-08	0
bin	1.7000000000000007e-08	0
bin	1.7200000000000005e-08	0
bin	1.7400000000000004e-08	0
bin	1.7600000000000005e-08	0
bin	1.7800000000000004e-08	0
bin	1.8000000000000006e-08	0
bin	1.8200000000000004e-08	0
bin	1.8400000000000006e-08	0
bin	1.8600000000000004e-08	0
bin	1.8800000000000006e-08	0
bin	1.9000000000000005e-08	0
bin	1.9200000000000006e-08	0
bin	1.9400000000000005e-08	0
bin	1.9600000000000007e-08	0
bin	1.9800000000000005e-08	0
bin	2.0000000000000007e-08	0
statistic oneclienthost.router2.ppp[0].queue outgoingPacketLengths:histogram
field count 30
field mean 375.46666666666664
field stddev 27.467514773202474
field min 336
field max 464
field sum 11264
field sqrsum 4251136
bin	-inf	0
bin	304	0
bin	306	0
bin	308	0
bin	310	0
bin	312	0
bin	314	0
bin	316	0
bin	318	0
bin	320	0
bin	322	0
bin	324	0
bin	326	0
bin	328	0
bin	330	0
bin	332	0
bin	334	0
bin	336	2
bin	338	0
bin	340	0
bin	342	0
bin	344	2
bin	346	0
bin	348	0
bin	350	0
bin	352	2
bin	354	0
bin	356	0
bin	358	0
bin	360	0
bin	362	0
bin	364	0
bin	366	0
bin	368	0
bin	370	0
bin	372	0
bin	374	0
bin	376	22
bin	378	0
bin	380	0
bin	382	0
bin	384	0
bin	386	0
bin	388	0
bin	390	0
bin	392	0
bin	394	0
bin	396	0
bin	398	0
bin	400	0
bin	402	0
bin	404	0
bin	406	0
bin	408	0
bin	410	0
bin	412	0
bin	414	0
bin	416	0
bin	418	0
bin	420	0
bin	422	0
bin	424	0
bin	426	0
bin	428	0
bin	430	0
bin	432	0
bin	434	0
bin	436	0
bin	438	0
bin	440	0
bin	442	0
bin	444	0
bin	446	0
bin	448	0
bin	450	0
bin	452	0
bin	454	0
bin	456	0
bin	458	0
bin	460	0
bin	462	0
bin	464	2
bin	466	0
bin	468	0
bin	470	0
bin	472	0
bin	474	0
bin	476	0
bin	478	0
bin	480	0
bin	482	0
bin	484	0
bin	486	0
bin	488	0
bin	490	0
bin	492	0
bin	494	0
bin	496	0
statistic oneclienthost.router2.ppp[0].queue flowQueueingTime:histogram
field count 0
field mean -nan
field stddev nan
field min nan
field max nan
field sum 0
field sqrsum 0
bin	-inf	0
bin	0	0
bin	1	0
statistic oneclienthost.router2.ppp[0].queue incomingPacketLengths:histogram
field count 30
field mean 375.46666666666664
field stddev 27.467514773202474
field min 336
field max 464
field sum 11264
field sqrsum 4251136
bin	-inf	0
bin	304	0
bin	306	0
bin	308	0
bin	310	0
bin	312	0
bin	314	0
bin	316	0
bin	318	0
bin	320	0
bin	322	0
bin	324	0
bin	326	0
bin	328	0
bin	330	0
bin	332	0
bin	334	0
bin	336	2
bin	338	0
bin	340	0
bin	342	0
bin	344	2
bin	346	0
bin	348	0
bin	350	0
bin	352	2
bin	354	0
bin	356	0
bin	358	0
bin	360	0
bin	362	0
bin	364	0
bin	366	0
bin	368	0
bin	370	0
bin	372	0
bin	374	0
bin	376	22
bin	378	0
bin	380	0
bin	382	0
bin	384	0
bin	386	0
bin	388	0
bin	390	0
bin	392	0
bin	394	0
bin	396	0
bin	398	0
bin	400	0
bin	402	0
bin	404	0
bin	406	0
bin	408	0
bin	410	0
bin	412	0
bin	414	0
bin	416	0
bin	418	0
bin	420	0
bin	422	0
bin	424	0
bin	426	0
bin	428	0
bin	430	0
bin	432	0
bin	434	0
bin	436	0
bin	438	0
bin	440	0
bin	442	0
bin	444	0
bin	446	0
bin	448	0
bin	450	0
bin	452	0
bin	454	0
bin	456	0
bin	458	0
bin	460	0
bin	462	0
bin	464	2
bin	466	0
bin	468	0
bin	470	0
bin	472	0
bin	474	0
bin	476	0
bin	478	0
bin	480	0
bin	482	0
bin	484	0
bin	486	0
bin	488	0
bin	490	0
bin	492	0
bin	494	0
bin	496	0
statistic oneclienthost.router2.ppp[1].queue queueingTime:histogram
field count 30
field mean 0
field stddev 0
field min 0
field max 0
field sum 0
field sqrsum 0
bin	-inf	0
bin	-0.5	0
bin	-0.47999999999999998	0
bin	-0.46000000000000002	0
bin	-0.44	0
bin	-0.41999999999999998	0
bin	-0.40000000000000002	0
bin	-0.38	0
bin	-0.35999999999999999	0
bin	-0.33999999999999997	0
bin	-0.32000000000000001	0
bin	-0.29999999999999999	0
bin	-0.28000000000000003	0
bin	-0.26000000000000001	0
bin	-0.23999999999999999	0
bin	-0.21999999999999997	0
bin	-0.20000000000000001	0
bin	-0.17999999999999999	0
bin	-0.15999999999999998	0
bin	-0.14000000000000001	0
bin	-0.12	0
bin	-0.099999999999999978	0
bin	-0.080000000000000016	0
bin	-0.059999999999999998	0
bin	-0.03999999999999998	0
bin	-0.020000000000000018	0
bin	0	30
bin	0.020000000000000018	0
bin	0.040000000000000036	0
bin	0.060000000000000053	0
bin	0.07999999999999996	0
bin	0.099999999999999978	0
bin	0.12	0
bin	0.14000000000000001	0
bin	0.16000000000000003	0
bin	0.18000000000000005	0
bin	0.20000000000000007	0
bin	0.21999999999999997	0
bin	0.23999999999999999	0
bin	0.26000000000000001	0
bin	0.28000000000000003	0
bin	0.30000000000000004	0
bin	0.32000000000000006	0
bin	0.33999999999999997	0
bin	0.35999999999999999	0
bin	0.38	0
bin	0.40000000000000002	0
bin	0.42000000000000004	0
bin	0.44000000000000006	0
bin	0.45999999999999996	0
bin	0.47999999999999998	0
bin	0.5	0
statistic oneclienthost.router2.ppp[1].queue outgoingPacketLengths:histogram
field count 30
field mean 6338.1333333333332
field stddev 3675.9431511619864
field min 352
field max 9824
field sum 190144
field sqrsum 1597022208
bin	-inf	0
bin	0	0
bin	200	8
bin	400	0
bin	600	0
bin	800	0
bin	1000	0
bin	1200	0
bin	1400	0
bin	1600	0
bin	1800	0
bin	2000	0
bin	2200	0
bin	2400	0
bin	2600	0
bin	2800	0
bin	3000	0
bin	3200	0
bin	3400	0
bin	3600	0
bin	3800	0
bin	4000	0
bin	4200	0
bin	4400	0
bin	4600	0
bin	4800	0
bin	5000	0
bin	5200	0
bin	5400	0
bin	5600	0
bin	5800	0
bin	6000	0
bin	6200	0
bin	6400	0
bin	6600	0
bin	6800	0
bin	7000	0
bin	7200	0
bin	7400	0
bin	7600	0
bin	7800	0
bin	8000	0
bin	8200	20
bin	8400	0
bin	8600	0
bin	8800	0
bin	9000	0
bin	9200	0
bin	9400	0
bin	9600	0
bin	9800	2
bin	10000	0
bin	10200	0
bin	10400	0
bin	10600	0
bin	10800	0
bin	11000	0
bin	11200	0
bin	11400	0
bin	11600	0
bin	11800	0
bin	12000	0
bin	12200	0
statistic oneclienthost.router2.ppp[1].queue flowQueueingTime:histogram
field count 0
field mean -nan
field stddev nan
field min nan
field max nan
field sum 0
field sqrsum 0
bin	-inf	0
bin	0	0
bin	1	0
statistic oneclienthost.router2.ppp[1].queue incomingPacketLengths:histogram
field count 30
field mean 6338.1333333333332
field stddev 3675.9431511619864
field min 352
field max 9824
field sum 190144
field sqrsum 1597022208
bin	-inf	0
bin	0	0
bin	200	8
bin	400	0
bin	600	0
bin	800	0
bin	1000	0
bin	1200	0
bin	1400	0
bin	1600	0
bin	1800	0
bin	2000	0
bin	2200	0
bin	2400	0
bin	2600	0
bin	2800	0
bin	3000	0
bin	3200	0
bin	3400	0
bin	3600	0
bin	3800	0
bin	4000	0
bin	4200	0
bin	4400	0
bin	4600	0
bin	4800	0
bin	5000	0
bin	5200	0
bin	5400	0
bin	5600	0
bin	5800	0
bin	6000	0
bin	6200	0
bin	6400	0
bin	6600	0
bin	6800	0
bin	7000	0
bin	7200	0
bin	7400	0
bin	7600	0
bin	7800	0
bin	8000	0
bin	8200	20
bin	8400	0
bin	8600	0
bin	8800	0
bin	9000	0
bin	9200	0
bin	9400	0
bin	9600	0
bin	9800	2
bin	10000	0
bin	10200	0
bin	10400	0
bin	10600	0
bin	10800	0
bin	11000	0
bin	11200	0
bin	11400	0
bin	11600	0
bin	11800	0
bin	12000	0
bin	12200	0
statistic oneclienthost.client.ppp[0].queue queueingTime:histogram
field count 30
field mean 0
field stddev 0
field min 0
field max 0
field sum 0
field sqrsum 0
bin	-inf	0
bin	-0.5	0
bin	-0.47999999999999998	0
bin	-0.46000000000000002	0
bin	-0.44	0
bin	-0.41999999999999998	0
bin	-0.40000000000000002	0
bin	-0.38	0
bin	-0.35999999999999999	0
bin	-0.33999999999999997	0
bin	-0.32000000000000001	0
bin	-0.29999999999999999	0
bin	-0.28000000000000003	0
bin	-0.26000000000000001	0
bin	-0.23999999999999999	0
bin	-0.21999999999999997	0
bin	-0.20000000000000001	0
bin	-0.17999999999999999	0
bin	-0.15999999999999998	0
bin	-0.14000000000000001	0
bin	-0.12	0
bin	-0.099999999999999978	0
bin	-0.080000000000000016	0
bin	-0.059999999999999998	0
bin	-0.03999999999999998	0
bin	-0.020000000000000018	0
bin	0	30
bin	0.020000000000000018	0
bin	0.040000000000000036	0
bin	0.060000000000000053	0
bin	0.07999999999999996	0
bin	0.099999999999999978	0
bin	0.12	0
bin	0.14000000000000001	0
bin	0.16000000000000003	0
bin	0.18000000000000005	0
bin	0.20000000000000007	0
bin	0.21999999999999997	0
bin	0.23999999999999999	0
bin	0.26000000000000001	0
bin	0.28000000000000003	0
bin	0.30000000000000004	0
bin	0.32000000000000006	0
bin	0.33999999999999997	0
bin	0.35999999999999999	0
bin	0.38	0
bin	0.40000000000000002	0
bin	0.42000000000000004	0
bin	0.44000000000000006	0
bin	0.45999999999999996	0
bin	0.47999999999999998	0
bin	0.5	0
statistic oneclienthost.client.ppp[0].queue outgoingPacketLengths:histogram
field count 30
field mean 6338.1333333333332
field stddev 3675.9431511619864
field min 352
field max 9824
field sum 190144
field sqrsum 1597022208
bin	-inf	0
bin	0	0
bin	200	8
bin	400	0
bin	600	0
bin	800	0
bin	1000	0
bin	1200	0
bin	1400	0
bin	1600	0
bin	1800	0
bin	2000	0
bin	2200	0
bin	2400	0
bin	2600	0
bin	2800	0
bin	3000	0
bin	3200	0
bin	3400	0
bin	3600	0
bin	3800	0
bin	4000	0
bin	4200	0
bin	4400	0
bin	4600	0
bin	4800	0
bin	5000	0
bin	5200	0
bin	5400	0
bin	5600	0
bin	5800	0
bin	6000	0
bin	6200	0
bin	6400	0
bin	6600	0
bin	6800	0
bin	7000	0
bin	7200	0
bin	7400	0
bin	7600	0
bin	7800	0
bin	8000	0
bin	8200	20
bin	8400	0
bin	8600	0
bin	8800	0
bin	9000	0
bin	9200	0
bin	9400	0
bin	9600	0
bin	9800	2
bin	10000	0
bin	10200	0
bin	10400	0
bin	10600	0
bin	10800	0
bin	11000	0
bin	11200	0
bin	11400	0
bin	11600	0
bin	11800	0
bin	12000	0
bin	12200	0
statistic oneclienthost.client.ppp[0].queue flowQueueingTime:histogram
field count 0
field mean -nan
field stddev nan
field min nan
field max nan
field sum 0
field sqrsum 0
bin	-inf	0
bin	0	0
bin	1	0
statistic oneclienthost.client.ppp[0].queue incomingPacketLengths:histogram
field count 30
field mean 6338.1333333333332
field stddev 3675.9431511619864
field min 352
field max 9824
field sum 190144
field sqrsum 1597022208
bin	-inf	0
bin	0	0
bin	200	8
bin	400	0
bin	600	0
bin	800	0
bin	1000	0
bin	1200	0
bin	1400	0
bin	1600	0
bin	1800	0
bin	2000	0
bin	2200	0
bin	2400	0
bin	2600	0
bin	2800	0
bin	3000	0
bin	3200	0
bin	3400	0
bin	3600	0
bin	3800	0
bin	4000	0
bin	4200	0
bin	4400	0
bin	4600	0
bin	4800	0
bin	5000	0
bin	5200	0
bin	5400	0
bin	5600	0
bin	5800	0
bin	6000	0
bin	6200	0
bin	6400	0
bin	6600	0
bin	6800	0
bin	7000	0
bin	7200	0
bin	7400	0
bin	7600	0
bin	7800	0
bin	8000	0
bin	8200	20
bin	8400	0
bin	8600	0
bin	8800	0
bin	9000	0
bin	9200	0
bin	9400	0
bin	9600	0
bin	9800	2
bin	10000	0
bin	10200	0
bin	10400	0
bin	10600	0
bin	10800	0
bin	11000	0
bin	11200	0
bin	11400	0
bin	11600	0
bin	11800	0
bin	12000	0
bin	12200	0
statistic oneclienthost.server.ppp[0].queue queueingTime:histogram
field count 30
field mean 5.5999999999999999e-08
field stddev 1.4528165273251009e-07
field min 0
field max 4.32e-07
field sum 1.68e-06
field sqrsum 7.0617600000000004e-13
bin	-inf	0
bin	0	26
bin	1.0000000000000002e-08	0
bin	2.0000000000000004e-08	0
bin	3.0000000000000004e-08	0
bin	4.0000000000000007e-08	0
bin	5.0000000000000011e-08	0
bin	6.0000000000000008e-08	0
bin	7.0000000000000018e-08	0
bin	8.0000000000000015e-08	0
bin	9.0000000000000012e-08	0
bin	1.0000000000000002e-07	0
bin	1.1000000000000002e-07	0
bin	1.2000000000000002e-07	0
bin	1.3000000000000003e-07	0
bin	1.4000000000000004e-07	0
bin	1.5000000000000002e-07	0
bin	1.6000000000000003e-07	0
bin	1.7000000000000004e-07	0
bin	1.8000000000000002e-07	0
bin	1.9000000000000003e-07	0
bin	2.0000000000000004e-07	0
bin	2.1000000000000003e-07	0
bin	2.2000000000000004e-07	0
bin	2.3000000000000005e-07	0
bin	2.4000000000000003e-07	0
bin	2.5000000000000004e-07	0
bin	2.6000000000000005e-07	0
bin	2.7000000000000006e-07	0
bin	2.8000000000000007e-07	0
bin	2.9000000000000003e-07	0
bin	3.0000000000000004e-07	0
bin	3.1000000000000005e-07	0
bin	3.2000000000000006e-07	0
bin	3.3000000000000007e-07	0
bin	3.4000000000000008e-07	0
bin	3.5000000000000009e-07	0
bin	3.6000000000000005e-07	0
bin	3.7000000000000006e-07	0
bin	3.8000000000000007e-07	0
bin	3.9000000000000008e-07	0
bin	4.0000000000000009e-07	2
bin	4.100000000000001e-07	0
bin	4.2000000000000006e-07	0
bin	4.3000000000000007e-07	2
bin	4.4000000000000008e-07	0
bin	4.5000000000000009e-07	0
bin	4.600000000000001e-07	0
bin	4.7000000000000011e-07	0
bin	4.8000000000000006e-07	0
bin	4.9000000000000007e-07	0
bin	5.0000000000000008e-07	0
bin	5.1000000000000009e-07	0
bin	5.200000000000001e-07	0
bin	5.3000000000000011e-07	0
bin	5.4000000000000012e-07	0
statistic oneclienthost.server.ppp[0].queue outgoingPacketLengths:histogram
field count 30
field mean 375.46666666666664
field stddev 27.467514773202474
field min 336
field max 464
field sum 11264
field sqrsum 4251136
bin	-inf	0
bin	304	0
bin	306	0
bin	308	0
bin	310	0
bin	312	0
bin	314	0
bin	316	0
bin	318	0
bin	320	0
bin	322	0
bin	324	0
bin	326	0
bin	328	0
bin	330	0
bin	332	0
bin	334	0
bin	336	2
bin	338	0
bin	340	0
bin	342	0
bin	344	2
bin	346	0
bin	348	0
bin	350	0
bin	352	2
bin	354	0
bin	356	0
bin	358	0
bin	360	0
bin	362	0
bin	364	0
bin	366	0
bin	368	0
bin	370	0
bin	372	0
bin	374	0
bin	376	22
bin	378	0
bin	380	0
bin	382	0
bin	384	0
bin	386	0
bin	388	0
bin	390	0
bin	392	0
bin	394	0
bin	396	0
bin	398	0
bin	400	0
bin	402	0
bin	404	0
bin	406	0
bin	408	0
bin	410	0
bin	412	0
bin	414	0
bin	416	0
bin	418	0
bin	420	0
bin	422	0
bin	424	0
bin	426	0
bin	428	0
bin	430	0
bin	432	0
bin	434	0
bin	436	0
bin	438	0
bin	440	0
bin	442	0
bin	444	0
bin	446	0
bin	448	0
bin	450	0
bin	452	0
bin	454	0
bin	456	0
bin	458	0
bin	460	0
bin	462	0
bin	464	2
bin	466	0
bin	468	0
bin	470	0
bin	472	0
bin	474	0
bin	476	0
bin	478	0
bin	480	0
bin	482	0
bin	484	0
bin	486	0
bin	488	0
bin	490	0
bin	492	0
bin	494	0
bin	496	0
statistic oneclienthost.server.ppp[0].queue flowQueueingTime:histogram
field count 0
field mean -nan
field stddev nan
field min nan
field max nan
field sum 0
field sqrsum 0
bin	-inf	0
bin	0	0
bin	1	0
statistic oneclienthost.server.ppp[0].queue incomingPacketLengths:histogram
field count 30
field mean 375.46666666666664
field stddev 27.467514773202474
field min 336
field max 464
field sum 11264
field sqrsum 4251136
bin	-inf	0
bin	304	0
bin	306	0
bin	308	0
bin	310	0
bin	312	0
bin	314	0
bin	316	0
bin	318	0
bin	320	0
bin	322	0
bin	324	0
bin	326	0
bin	328	0
bin	330	0
bin	332	0
bin	334	0
bin	336	2
bin	338	0
bin	340	0
bin	342	0
bin	344	2
bin	346	0
bin	348	0
bin	350	0
bin	352	2
bin	354	0
bin	356	0
bin	358	0
bin	360	0
bin	362	0
bin	364	0
bin	366	0
bin	368	0
bin	370	0
bin	372	0
bin	374	0
bin	376	22
bin	378	0
bin	380	0
bin	382	0
bin	384	0
bin	386	0
bin	388	0
bin	390	0
bin	392	0
bin	394	0
bin	396	0
bin	398	0
bin	400	0
bin	402	0
bin	404	0
bin	406	0
bin	408	0
bin	410	0
bin	412	0
bin	414	0
bin	416	0
bin	418	0
bin	420	0
bin	422	0
bin	424	0
bin	426	0
bin	428	0
bin	430	0
bin	432	0
bin	434	0
bin	436	0
bin	438	0
bin	440	0
bin	442	0
bin	444	0
bin	446	0
bin	448	0
bin	450	0
bin	452	0
bin	454	0
bin	456	0
bin	458	0
bin	460	0
bin	462	0
bin	464	2
bin	466	0
bin	468	0
bin	470	0
bin	472	0
bin	474	0
bin	476	0
bin	478	0
bin	480	0
bin	482	0
bin	484	0
bin	486	0
bin	488	0
bin	490	0
bin	492	0
bin	494	0
bin	496	0
scalar oneclienthost.router1.lo[0].lo rcvdPkFromHl:vector(packetBytes):count 0
scalar oneclienthost.router1.lo[0].lo rcvdPkFromHl:vector(packetBytes):sum 0
scalar oneclienthost.router1.lo[0].lo rcvdPkFromHl:vector(packetBytes):sumweights 0
scalar oneclienthost.router1.lo[0].lo rcvdPkFromHl:vector(packetBytes):mean -nan
scalar oneclienthost.router1.lo[0].lo rcvdPkFromHl:vector(packetBytes):stddev nan
scalar oneclienthost.router1.lo[0].lo rcvdPkFromHl:vector(packetBytes):min inf
scalar oneclienthost.router1.lo[0].lo rcvdPkFromHl:vector(packetBytes):max -inf
scalar oneclienthost.router1.lo[0].lo rcvdPkFromHl:vector(packetBytes):starttime nan
scalar oneclienthost.router1.lo[0].lo rcvdPkFromHl:vector(packetBytes):endtime nan
scalar oneclienthost.router1.lo[0].lo passedUpPk:vector(packetBytes):count 0
scalar oneclienthost.router1.lo[0].lo passedUpPk:vector(packetBytes):sum 0
scalar oneclienthost.router1.lo[0].lo passedUpPk:vector(packetBytes):sumweights 0
scalar oneclienthost.router1.lo[0].lo passedUpPk:vector(packetBytes):mean -nan
scalar oneclienthost.router1.lo[0].lo passedUpPk:vector(packetBytes):stddev nan
scalar oneclienthost.router1.lo[0].lo passedUpPk:vector(packetBytes):min inf
scalar oneclienthost.router1.lo[0].lo passedUpPk:vector(packetBytes):max -inf
scalar oneclienthost.router1.lo[0].lo passedUpPk:vector(packetBytes):starttime nan
scalar oneclienthost.router1.lo[0].lo passedUpPk:vector(packetBytes):endtime nan
scalar oneclienthost.router1.lo[0] packetDropInterfaceDown:vector(packetBytes):count 0
scalar oneclienthost.router1.lo[0] packetDropInterfaceDown:vector(packetBytes):sum 0
scalar oneclienthost.router1.lo[0] packetDropInterfaceDown:vector(packetBytes):sumweights 0
scalar oneclienthost.router1.lo[0] packetDropInterfaceDown:vector(packetBytes):mean -nan
scalar oneclienthost.router1.lo[0] packetDropInterfaceDown:vector(packetBytes):stddev nan
scalar oneclienthost.router1.lo[0] packetDropInterfaceDown:vector(packetBytes):min inf
scalar oneclienthost.router1.lo[0] packetDropInterfaceDown:vector(packetBytes):max -inf
scalar oneclienthost.router1.lo[0] packetDropInterfaceDown:vector(packetBytes):starttime nan
scalar oneclienthost.router1.lo[0] packetDropInterfaceDown:vector(packetBytes):endtime nan
scalar oneclienthost.router1.lo[0] packetDropNoCarrier:vector(packetBytes):count 0
scalar oneclienthost.router1.lo[0] packetDropNoCarrier:vector(packetBytes):sum 0
scalar oneclienthost.router1.lo[0] packetDropNoCarrier:vector(packetBytes):sumweights 0
scalar oneclienthost.router1.lo[0] packetDropNoCarrier:vector(packetBytes):mean -nan
scalar oneclienthost.router1.lo[0] packetDropNoCarrier:vector(packetBytes):stddev nan
scalar oneclienthost.router1.lo[0] packetDropNoCarrier:vector(packetBytes):min inf
scalar oneclienthost.router1.lo[0] packetDropNoCarrier:vector(packetBytes):max -inf
scalar oneclienthost.router1.lo[0] packetDropNoCarrier:vector(packetBytes):starttime nan
scalar oneclienthost.router1.lo[0] packetDropNoCarrier:vector(packetBytes):endtime nan
scalar oneclienthost.router1.ppp[0].queue queueLength:vector:count 37
scalar oneclienthost.router1.ppp[0].queue queueLength:vector:sum 2
scalar oneclienthost.router1.ppp[0].queue queueLength:vector:sumweights 37
scalar oneclienthost.router1.ppp[0].queue queueLength:vector:mean 0.054054054054054057
scalar oneclienthost.router1.ppp[0].queue queueLength:vector:stddev 0.22924343513512563
scalar oneclienthost.router1.ppp[0].queue queueLength:vector:min 0
scalar oneclienthost.router1.ppp[0].queue queueLength:vector:max 1
scalar oneclienthost.router1.ppp[0].queue queueLength:vector:starttime 0
scalar oneclienthost.router1.ppp[0].queue queueLength:vector:endtime 6.0050021440000014
scalar oneclienthost.router1.ppp[0].queue queueBitLength:vector:count 37
scalar oneclienthost.router1.ppp[0].queue queueBitLength:vector:sum 672
scalar oneclienthost.router1.ppp[0].queue queueBitLength:vector:sumweights 37
scalar oneclienthost.router1.ppp[0].queue queueBitLength:vector:mean 18.162162162162161
scalar oneclienthost.router1.ppp[0].queue queueBitLength:vector:stddev 77.025794205402221
scalar oneclienthost.router1.ppp[0].queue queueBitLength:vector:min 0
scalar oneclienthost.router1.ppp[0].queue queueBitLength:vector:max 336
scalar oneclienthost.router1.ppp[0].queue queueBitLength:vector:starttime 0
scalar oneclienthost.router1.ppp[0].queue queueBitLength:vector:endtime 6.0050021440000014
scalar oneclienthost.router1.ppp[0].queue queueingTime:vector:count 30
scalar oneclienthost.router1.ppp[0].queue queueingTime:vector:sum 3.2000000000000002e-08
scalar oneclienthost.router1.ppp[0].queue queueingTime:vector:sumweights 30
scalar oneclienthost.router1.ppp[0].queue queueingTime:vector:mean 1.0666666666666667e-09
scalar oneclienthost.router1.ppp[0].queue queueingTime:vector:stddev 4.059330107239399e-09
[...]
scalar oneclienthost.server.quic usedMaxQuicPacketSize_cid=1:vector:min 4442
scalar oneclienthost.server.quic usedMaxQuicPacketSize_cid=1:vector:max 4442
scalar oneclienthost.server.quic usedMaxQuicPacketSize_cid=1:vector:starttime 4.0090329280000008
scalar oneclienthost.server.quic usedMaxQuicPacketSize_cid=1:vector:endtime 4.0090329280000008
scalar oneclienthost.server.quic packetNumberReceived_cid=1:vector:count 15
scalar oneclienthost.server.quic packetNumberReceived_cid=1:vector:sum 67
scalar oneclienthost.server.quic packetNumberReceived_cid=1:vector:sumweights 15
scalar oneclienthost.server.quic packetNumberReceived_cid=1:vector:mean 4.4666666666666668
scalar oneclienthost.server.quic packetNumberReceived_cid=1:vector:stddev 3.8520248231411021
scalar oneclienthost.server.quic packetNumberReceived_cid=1:vector:min 0
scalar oneclienthost.server.quic packetNumberReceived_cid=1:vector:max 11
scalar oneclienthost.server.quic packetNumberReceived_cid=1:vector:starttime 4.0030296400000012
scalar oneclienthost.server.quic packetNumberReceived_cid=1:vector:endtime 6.0030013440000012
scalar oneclienthost.server.quic packetNumberSent_cid=1:vector:count 15
scalar oneclienthost.server.quic packetNumberSent_cid=1:vector:sum 67
scalar oneclienthost.server.quic packetNumberSent_cid=1:vector:sumweights 15
scalar oneclienthost.server.quic packetNumberSent_cid=1:vector:mean 4.4666666666666668
scalar oneclienthost.server.quic packetNumberSent_cid=1:vector:stddev 3.8520248231411021
scalar oneclienthost.server.quic packetNumberSent_cid=1:vector:min 0
scalar oneclienthost.server.quic packetNumberSent_cid=1:vector:max 11
scalar oneclienthost.server.quic packetNumberSent_cid=1:vector:starttime 4.0030296400000012
scalar oneclienthost.server.quic packetNumberSent_cid=1:vector:endtime 6.0030013440000012
scalar oneclienthost.server.quic cwnd_cid=1:vector:count 1
scalar oneclienthost.server.quic cwnd_cid=1:vector:sum 12000
scalar oneclienthost.server.quic cwnd_cid=1:vector:sumweights 1
scalar oneclienthost.server.quic cwnd_cid=1:vector:mean 12000
scalar oneclienthost.server.quic cwnd_cid=1:vector:stddev nan
scalar oneclienthost.server.quic cwnd_cid=1:vector:min 12000
scalar oneclienthost.server.quic cwnd_cid=1:vector:max 12000
scalar oneclienthost.server.quic cwnd_cid=1:vector:starttime 4.0030296400000012
scalar oneclienthost.server.quic cwnd_cid=1:vector:endtime 4.0030296400000012
scalar oneclienthost.server.quic bytesInFlight_cid=1:vector:count 7
scalar oneclienthost.server.quic bytesInFlight_cid=1:vector:sum 112
scalar oneclienthost.server.quic bytesInFlight_cid=1:vector:sumweights 7
scalar oneclienthost.server.quic bytesInFlight_cid=1:vector:mean 16
scalar oneclienthost.server.quic bytesInFlight_cid=1:vector:stddev 18.556220879622373
scalar oneclienthost.server.quic bytesInFlight_cid=1:vector:min 0
scalar oneclienthost.server.quic bytesInFlight_cid=1:vector:max 49
scalar oneclienthost.server.quic bytesInFlight_cid=1:vector:starttime 4.0030296400000012
scalar oneclienthost.server.quic bytesInFlight_cid=1:vector:endtime 4.0400358400000007
scalar oneclienthost.server.quic partialBytesAcked_cid=1:vector:count 3
scalar oneclienthost.server.quic partialBytesAcked_cid=1:vector:sum 0
scalar oneclienthost.server.quic partialBytesAcked_cid=1:vector:sumweights 3
scalar oneclienthost.server.quic partialBytesAcked_cid=1:vector:mean 0
scalar oneclienthost.server.quic partialBytesAcked_cid=1:vector:stddev 0
scalar oneclienthost.server.quic partialBytesAcked_cid=1:vector:min 0
scalar oneclienthost.server.quic partialBytesAcked_cid=1:vector:max 0
scalar oneclienthost.server.quic partialBytesAcked_cid=1:vector:starttime 4.0030296400000012
scalar oneclienthost.server.quic partialBytesAcked_cid=1:vector:endtime 4.0400358400000007
scalar oneclienthost.server.quic availableRwnd_cid=1:vector:count 0
scalar oneclienthost.server.quic availableRwnd_cid=1:vector:sum 0
scalar oneclienthost.server.quic availableRwnd_cid=1:vector:sumweights 0
scalar oneclienthost.server.quic availableRwnd_cid=1:vector:mean -nan
scalar oneclienthost.server.quic availableRwnd_cid=1:vector:stddev nan
scalar oneclienthost.server.quic availableRwnd_cid=1:vector:min inf
scalar oneclienthost.server.quic availableRwnd_cid=1:vector:max -inf
scalar oneclienthost.server.quic availableRwnd_cid=1:vector:starttime nan
scalar oneclienthost.server.quic availableRwnd_cid=1:vector:endtime nan
scalar oneclienthost.server.quic blockFrameOffset_cid=1:vector:count 0
scalar oneclienthost.server.quic blockFrameOffset_cid=1:vector:sum 0
scalar oneclienthost.server.quic blockFrameOffset_cid=1:vector:sumweights 0
scalar oneclienthost.server.quic blockFrameOffset_cid=1:vector:mean -nan
scalar oneclienthost.server.quic blockFrameOffset_cid=1:vector:stddev nan
scalar oneclienthost.server.quic blockFrameOffset_cid=1:vector:min inf
scalar oneclienthost.server.quic blockFrameOffset_cid=1:vector:max -inf
scalar oneclienthost.server.quic blockFrameOffset_cid=1:vector:starttime nan
scalar oneclienthost.server.quic blockFrameOffset_cid=1:vector:endtime nan
scalar oneclienthost.server.quic maxDataFrameOffset_cid=1:vector:count 0
scalar oneclienthost.server.quic maxDataFrameOffset_cid=1:vector:sum 0
scalar oneclienthost.server.quic maxDataFrameOffset_cid=1:vector:sumweights 0
scalar oneclienthost.server.quic maxDataFrameOffset_cid=1:vector:mean -nan
scalar oneclienthost.server.quic maxDataFrameOffset_cid=1:vector:stddev nan
scalar oneclienthost.server.quic maxDataFrameOffset_cid=1:vector:min inf
scalar oneclienthost.server.quic maxDataFrameOffset_cid=1:vector:max -inf
scalar oneclienthost.server.quic maxDataFrameOffset_cid=1:vector:starttime nan
scalar oneclienthost.server.quic maxDataFrameOffset_cid=1:vector:endtime nan
scalar oneclienthost.server.quic consumedData_cid=1:vector:count 10
scalar oneclienthost.server.quic consumedData_cid=1:vector:sum 55000
scalar oneclienthost.server.quic consumedData_cid=1:vector:sumweights 10
scalar oneclienthost.server.quic consumedData_cid=1:vector:mean 5500
scalar oneclienthost.server.quic consumedData_cid=1:vector:stddev 3027.6503540974913
scalar oneclienthost.server.quic consumedData_cid=1:vector:min 1000
scalar oneclienthost.server.quic consumedData_cid=1:vector:max 10000
scalar oneclienthost.server.quic consumedData_cid=1:vector:starttime 5.0030252720000012
scalar oneclienthost.server.quic consumedData_cid=1:vector:endtime 5.9030252960000018
scalar oneclienthost.client.quic sendBufferUnsentAppData_cid=1_sid=0:vector:count 20
scalar oneclienthost.client.quic sendBufferUnsentAppData_cid=1_sid=0:vector:sum 10000
scalar oneclienthost.client.quic sendBufferUnsentAppData_cid=1_sid=0:vector:sumweights 20
scalar oneclienthost.client.quic sendBufferUnsentAppData_cid=1_sid=0:vector:mean 500
scalar oneclienthost.client.quic sendBufferUnsentAppData_cid=1_sid=0:vector:stddev 512.98917604257701
scalar oneclienthost.client.quic sendBufferUnsentAppData_cid=1_sid=0:vector:min 0
scalar oneclienthost.client.quic sendBufferUnsentAppData_cid=1_sid=0:vector:max 1000
scalar oneclienthost.client.quic sendBufferUnsentAppData_cid=1_sid=0:vector:starttime 5
scalar oneclienthost.client.quic sendBufferUnsentAppData_cid=1_sid=0:vector:endtime 5.9000000000000004
scalar oneclienthost.client.quic streamRcvAppData_cid=1_sid=0:vector:count 1
scalar oneclienthost.client.quic streamRcvAppData_cid=1_sid=0:vector:sum 0
scalar oneclienthost.client.quic streamRcvAppData_cid=1_sid=0:vector:sumweights 1
scalar oneclienthost.client.quic streamRcvAppData_cid=1_sid=0:vector:mean 0
scalar oneclienthost.client.quic streamRcvAppData_cid=1_sid=0:vector:stddev nan
scalar oneclienthost.client.quic streamRcvAppData_cid=1_sid=0:vector:min 0
scalar oneclienthost.client.quic streamRcvAppData_cid=1_sid=0:vector:max 0
scalar oneclienthost.client.quic streamRcvAppData_cid=1_sid=0:vector:starttime 5
scalar oneclienthost.client.quic streamRcvAppData_cid=1_sid=0:vector:endtime 5
scalar oneclienthost.client.quic streamRcvAppData_cid=1_sid=0:vector(sum):count 1
scalar oneclienthost.client.quic streamRcvAppData_cid=1_sid=0:vector(sum):sum 0
scalar oneclienthost.client.quic streamRcvAppData_cid=1_sid=0:vector(sum):sumweights 1
scalar oneclienthost.client.quic streamRcvAppData_cid=1_sid=0:vector(sum):mean 0
scalar oneclienthost.client.quic streamRcvAppData_cid=1_sid=0:vector(sum):stddev nan
scalar oneclienthost.client.quic streamRcvAppData_cid=1_sid=0:vector(sum):min 0
scalar oneclienthost.client.quic streamRcvAppData_cid=1_sid=0:vector(sum):max 0
scalar oneclienthost.client.quic streamRcvAppData_cid=1_sid=0:vector(sum):starttime 5
scalar oneclienthost.client.quic streamRcvAppData_cid=1_sid=0:vector(sum):endtime 5
scalar oneclienthost.client.quic availableRwnd_cid=1_sid=0:vector:count 10
scalar oneclienthost.client.quic availableRwnd_cid=1_sid=0:vector:sum 59945000
scalar oneclienthost.client.quic availableRwnd_cid=1_sid=0:vector:sumweights 10
scalar oneclienthost.client.quic availableRwnd_cid=1_sid=0:vector:mean 5994500
scalar oneclienthost.client.quic availableRwnd_cid=1_sid=0:vector:stddev 3027.6503540974913
scalar oneclienthost.client.quic availableRwnd_cid=1_sid=0:vector:min 5990000
scalar oneclienthost.client.quic availableRwnd_cid=1_sid=0:vector:max 5999000
scalar oneclienthost.client.quic availableRwnd_cid=1_sid=0:vector:starttime 5
scalar oneclienthost.client.quic availableRwnd_cid=1_sid=0:vector:endtime 5.9000000000000004
scalar oneclienthost.client.quic blockFrameOffset_cid=1_sid=0:vector:count 0
scalar oneclienthost.client.quic blockFrameOffset_cid=1_sid=0:vector:sum 0
scalar oneclienthost.client.quic blockFrameOffset_cid=1_sid=0:vector:sumweights 0
scalar oneclienthost.client.quic blockFrameOffset_cid=1_sid=0:vector:mean -nan
scalar oneclienthost.client.quic blockFrameOffset_cid=1_sid=0:vector:stddev nan
scalar oneclienthost.client.quic blockFrameOffset_cid=1_sid=0:vector:min inf
scalar oneclienthost.client.quic blockFrameOffset_cid=1_sid=0:vector:max -inf
scalar oneclienthost.client.quic blockFrameOffset_cid=1_sid=0:vector:starttime nan
scalar oneclienthost.client.quic blockFrameOffset_cid=1_sid=0:vector:endtime nan
scalar oneclienthost.client.quic maxDataFrameOffset_cid=1_sid=0:vector:count 0
scalar oneclienthost.client.quic maxDataFrameOffset_cid=1_sid=0:vector:sum 0
scalar oneclienthost.client.quic maxDataFrameOffset_cid=1_sid=0:vector:sumweights 0
scalar oneclienthost.client.quic maxDataFrameOffset_cid=1_sid=0:vector:mean -nan
scalar oneclienthost.client.quic maxDataFrameOffset_cid=1_sid=0:vector:stddev nan
scalar oneclienthost.client.quic maxDataFrameOffset_cid=1_sid=0:vector:min inf
scalar oneclienthost.client.quic maxDataFrameOffset_cid=1_sid=0:vector:max -inf
scalar oneclienthost.client.quic maxDataFrameOffset_cid=1_sid=0:vector:starttime nan
scalar oneclienthost.client.quic maxDataFrameOffset_cid=1_sid=0:vector:endtime nan
scalar oneclienthost.client.quic consumedData_cid=1_sid=0:vector:count 0
scalar oneclienthost.client.quic consumedData_cid=1_sid=0:vector:sum 0
scalar oneclienthost.client.quic consumedData_cid=1_sid=0:vector:sumweights 0
scalar oneclienthost.client.quic consumedData_cid=1_sid=0:vector:mean -nan
scalar oneclienthost.client.quic consumedData_cid=1_sid=0:vector:stddev nan
scalar oneclienthost.client.quic consumedData_cid=1_sid=0:vector:min inf
scalar oneclienthost.client.quic consumedData_cid=1_sid=0:vector:max -inf
scalar oneclienthost.client.quic consumedData_cid=1_sid=0:vector:starttime nan
scalar oneclienthost.client.quic consumedData_cid=1_sid=0:vector:endtime nan
scalar oneclienthost.client.quic streamRcvFrameStartOffset_cid=1_sid=0:vector:count 0
scalar oneclienthost.client.quic streamRcvFrameStartOffset_cid=1_sid=0:vector:sum 0
scalar oneclienthost.client.quic streamRcvFrameStartOffset_cid=1_sid=0:vector:sumweights 0
scalar oneclienthost.client.quic streamRcvFrameStartOffset_cid=1_sid=0:vector:mean -nan
scalar oneclienthost.client.quic streamRcvFrameStartOffset_cid=1_sid=0:vector:stddev nan
scalar oneclienthost.client.quic streamRcvFrameStartOffset_cid=1_sid=0:vector:min inf
scalar oneclienthost.client.quic streamRcvFrameStartOffset_cid=1_sid=0:vector:max -inf
scalar oneclienthost.client.quic streamRcvFrameStartOffset_cid=1_sid=0:vector:starttime nan
scalar oneclienthost.client.quic streamRcvFrameStartOffset_cid=1_sid=0:vector:endtime nan
scalar oneclienthost.client.quic streamRcvFrameEndOffset_cid=1_sid=0:vector:count 0
scalar oneclienthost.client.quic streamRcvFrameEndOffset_cid=1_sid=0:vector:sum 0
scalar oneclienthost.client.quic streamRcvFrameEndOffset_cid=1_sid=0:vector:sumweights 0
scalar oneclienthost.client.quic streamRcvFrameEndOffset_cid=1_sid=0:vector:mean -nan
scalar oneclienthost.client.quic streamRcvFrameEndOffset_cid=1_sid=0:vector:stddev nan
scalar oneclienthost.client.quic streamRcvFrameEndOffset_cid=1_sid=0:vector:min inf
scalar oneclienthost.client.quic streamRcvFrameEndOffset_cid=1_sid=0:vector:max -inf
scalar oneclienthost.client.quic streamRcvFrameEndOffset_cid=1_sid=0:vector:starttime nan
scalar oneclienthost.client.quic streamRcvFrameEndOffset_cid=1_sid=0:vector:endtime nan
scalar oneclienthost.server.quic sendBufferUnsentAppData_cid=1_sid=0:vector:count 0
scalar oneclienthost.server.quic sendBufferUnsentAppData_cid=1_sid=0:vector:sum 0
scalar oneclienthost.server.quic sendBufferUnsentAppData_cid=1_sid=0:vector:sumweights 0
scalar oneclienthost.server.quic sendBufferUnsentAppData_cid=1_sid=0:vector:mean -nan
scalar oneclienthost.server.quic sendBufferUnsentAppData_cid=1_sid=0:vector:stddev nan
scalar oneclienthost.server.quic sendBufferUnsentAppData_cid=1_sid=0:vector:min inf
scalar oneclienthost.server.quic sendBufferUnsentAppData_cid=1_sid=0:vector:max -inf
scalar oneclienthost.server.quic sendBufferUnsentAppData_cid=1_sid=0:vector:starttime nan
scalar oneclienthost.server.quic sendBufferUnsentAppData_cid=1_sid=0:vector:endtime nan
scalar oneclienthost.server.quic streamRcvAppData_cid=1_sid=0:vector:count 11
scalar oneclienthost.server.quic streamRcvAppData_cid=1_sid=0:vector:sum 10000
scalar oneclienthost.server.quic streamRcvAppData_cid=1_sid=0:vector:sumweights 11
scalar oneclienthost.server.quic streamRcvAppData_cid=1_sid=0:vector:mean 909.09090909090912
scalar oneclienthost.server.quic streamRcvAppData_cid=1_sid=0:vector:stddev 301.51134457776351
scalar oneclienthost.server.quic streamRcvAppData_cid=1_sid=0:vector:min 0
scalar oneclienthost.server.quic streamRcvAppData_cid=1_sid=0:vector:max 1000
scalar oneclienthost.server.quic streamRcvAppData_cid=1_sid=0:vector:starttime 5.0030252720000012
scalar oneclienthost.server.quic streamRcvAppData_cid=1_sid=0:vector:endtime 5.9030252960000018
scalar oneclienthost.server.quic streamRcvAppData_cid=1_sid=0:vector(sum):count 11
scalar oneclienthost.server.quic streamRcvAppData_cid=1_sid=0:vector(sum):sum 55000
scalar oneclienthost.server.quic streamRcvAppData_cid=1_sid=0:vector(sum):sumweights 11
scalar oneclienthost.server.quic streamRcvAppData_cid=1_sid=0:vector(sum):mean 5000
scalar oneclienthost.server.quic streamRcvAppData_cid=1_sid=0:vector(sum):stddev 3316.6247903553999
scalar oneclienthost.server.quic streamRcvAppData_cid=1_sid=0:vector(sum):min 0
scalar oneclienthost.server.quic streamRcvAppData_cid=1_sid=0:vector(sum):max 10000
scalar oneclienthost.server.quic streamRcvAppData_cid=1_sid=0:vector(sum):starttime 5.0030252720000012
scalar oneclienthost.server.quic streamRcvAppData_cid=1_sid=0:vector(sum):endtime 5.9030252960000018
scalar oneclienthost.server.quic availableRwnd_cid=1_sid=0:vector:count 0
scalar oneclienthost.server.quic availableRwnd_cid=1_sid=0:vector:sum 0
scalar oneclienthost.server.quic availableRwnd_cid=1_sid=0:vector:sumweights 0
scalar oneclienthost.server.quic availableRwnd_cid=1_sid=0:vector:mean -nan
scalar oneclienthost.server.quic availableRwnd_cid=1_sid=0:vector:stddev nan
scalar oneclienthost.server.quic availableRwnd_cid=1_sid=0:vector:min inf
scalar oneclienthost.server.quic availableRwnd_cid=1_sid=0:vector:max -inf
scalar oneclienthost.server.quic availableRwnd_cid=1_sid=0:vector:starttime nan
scalar oneclienthost.server.quic availableRwnd_cid=1_sid=0:vector:endtime nan
scalar oneclienthost.server.quic blockFrameOffset_cid=1_sid=0:vector:count 0
scalar oneclienthost.server.quic blockFrameOffset_cid=1_sid=0:vector:sum 0
scalar oneclienthost.server.quic blockFrameOffset_cid=1_sid=0:vector:sumweights 0
scalar oneclienthost.server.quic blockFrameOffset_cid=1_sid=0:vector:mean -nan
scalar oneclienthost.server.quic blockFrameOffset_cid=1_sid=0:vector:stddev nan
scalar oneclienthost.server.quic blockFrameOffset_cid=1_sid=0:vector:min inf
scalar oneclienthost.server.quic blockFrameOffset_cid=1_sid=0:vector:max -inf
scalar oneclienthost.server.quic blockFrameOffset_cid=1_sid=0:vector:starttime nan
scalar oneclienthost.server.quic blockFrameOffset_cid=1_sid=0:vector:endtime nan
scalar oneclienthost.server.quic maxDataFrameOffset_cid=1_sid=0:vector:count 0
scalar oneclienthost.server.quic maxDataFrameOffset_cid=1_sid=0:vector:sum 0
scalar oneclienthost.server.quic maxDataFrameOffset_cid=1_sid=0:vector:sumweights 0
scalar oneclienthost.server.quic maxDataFrameOffset_cid=1_sid=0:vector:mean -nan
scalar oneclienthost.server.quic maxDataFrameOffset_cid=1_sid=0:vector:stddev nan
scalar oneclienthost.server.quic maxDataFrameOffset_cid=1_sid=0:vector:min inf
scalar oneclienthost.server.quic maxDataFrameOffset_cid=1_sid=0:vector:max -inf
scalar oneclienthost.server.quic maxDataFrameOffset_cid=1_sid=0:vector:starttime nan
scalar oneclienthost.server.quic maxDataFrameOffset_cid=1_sid=0:vector:endtime nan
scalar oneclienthost.server.quic consumedData_cid=1_sid=0:vector:count 10
scalar oneclienthost.server.quic consumedData_cid=1_sid=0:vector:sum 55000
scalar oneclienthost.server.quic consumedData_cid=1_sid=0:vector:sumweights 10
scalar oneclienthost.server.quic consumedData_cid=1_sid=0:vector:mean 5500
scalar oneclienthost.server.quic consumedData_cid=1_sid=0:vector:stddev 3027.6503540974913
scalar oneclienthost.server.quic consumedData_cid=1_sid=0:vector:min 1000
scalar oneclienthost.server.quic consumedData_cid=1_sid=0:vector:max 10000
scalar oneclienthost.server.quic consumedData_cid=1_sid=0:vector:starttime 5.0030252720000012
scalar oneclienthost.server.quic consumedData_cid=1_sid=0:vector:endtime 5.9030252960000018
scalar oneclienthost.server.quic streamRcvFrameStartOffset_cid=1_sid=0:vector:count 10
scalar oneclienthost.server.quic streamRcvFrameStartOffset_cid=1_sid=0:vector:sum 45000
scalar oneclienthost.server.quic streamRcvFrameStartOffset_cid=1_sid=0:vector:sumweights 10
scalar oneclienthost.server.quic streamRcvFrameStartOffset_cid=1_sid=0:vector:mean 4500
scalar oneclienthost.server.quic streamRcvFrameStartOffset_cid=1_sid=0:vector:stddev 3027.6503540974913
scalar oneclienthost.server.quic streamRcvFrameStartOffset_cid=1_sid=0:vector:min 0
scalar oneclienthost.server.quic streamRcvFrameStartOffset_cid=1_sid=0:vector:max 9000
scalar oneclienthost.server.quic streamRcvFrameStartOffset_cid=1_sid=0:vector:starttime 5.0030252720000012
scalar oneclienthost.server.quic streamRcvFrameStartOffset_cid=1_sid=0:vector:endtime 5.9030252960000018
scalar oneclienthost.server.quic streamRcvFrameEndOffset_cid=1_sid=0:vector:count 10
scalar oneclienthost.server.quic streamRcvFrameEndOffset_cid=1_sid=0:vector:sum 55000
scalar oneclienthost.server.quic streamRcvFrameEndOffset_cid=1_sid=0:vector:sumweights 10
scalar oneclienthost.server.quic streamRcvFrameEndOffset_cid=1_sid=0:vector:mean 5500
scalar oneclienthost.server.quic streamRcvFrameEndOffset_cid=1_sid=0:vector:stddev 3027.6503540974913
scalar oneclienthost.server.quic streamRcvFrameEndOffset_cid=1_sid=0:vector:min 1000
scalar oneclienthost.server.quic streamRcvFrameEndOffset_cid=1_sid=0:vector:max 10000
scalar oneclienthost.server.quic streamRcvFrameEndOffset_cid=1_sid=0:vector:starttime 5.0030252720000012
scalar oneclienthost.server.quic streamRcvFrameEndOffset_cid=1_sid=0:vector:endtime 5.9030252960000018

