version 3
run Asymmetric-0-20240115-11:18:45-14281
attr configname Asymmetric
attr datetime 20240115-11:18:45
attr datetimef 20240115-111845
attr experiment Asymmetric
attr inifile omnetpp.ini
attr iterationvars ""
attr iterationvarsd ""
attr iterationvarsf ""
attr measurement ""
attr network VlanExample
attr processid 14281
attr repetition 0
attr replication #0
attr resultdir results
attr runnumber 0
attr seedset 0
config **.param-recording false
config **.vector-recording false
config image-path /home/levy/workspace/inet/images
config output-scalar-file results/omnetpp.ini-Asymmetric-#0.sca
config sim-time-limit 10ms
config sim-time-limit 10ms
config description "VLAN 42 between host1 and switch2 and VLAN 81 between host2 and switch1"
config extends AbstractVlan
config *.host1.bridging.vlanPolicy.typename VlanPolicyLayer
config *.host1.bridging.vlanPolicy.outboundMapper.mappedVlanIds "{\"eth0\" : {\"-1\" : 42}}"
config *.host1.bridging.vlanPolicy.inboundFilter.acceptedVlanIds "{\"eth0\" : [-1]}"
config *.host1.bridging.vlanPolicy.outboundFilter.acceptedVlanIds "{\"eth0\" : [42]}"
config *.host2.bridging.vlanPolicy.typename VlanPolicyLayer
config *.host2.bridging.vlanPolicy.outboundMapper.mappedVlanIds "{\"eth0\" : {\"-1\" : 81}}"
config *.host2.bridging.vlanPolicy.inboundFilter.acceptedVlanIds "{\"eth0\" : [-1]}"
config *.host2.bridging.vlanPolicy.outboundFilter.acceptedVlanIds "{\"eth0\" : [81]}"
config *.switch*.bridging.vlanPolicy.typename VlanPolicyLayer
config *.switch1.bridging.vlanPolicy.inboundFilter.acceptedVlanIds "{\"eth0\" : [42], \"eth1\" : [81]}"
config *.switch1.bridging.vlanPolicy.outboundFilter.acceptedVlanIds "{\"eth0\" : [-1], \"eth1\" : [42]}"
config *.switch1.bridging.vlanPolicy.outboundMapper.mappedVlanIds "{\"eth0\" : {\"81\" : -1}}"
config *.switch2.bridging.vlanPolicy.inboundFilter.acceptedVlanIds "{\"eth0\" : [81], \"eth1\" : [42]}"
config *.switch2.bridging.vlanPolicy.outboundFilter.acceptedVlanIds "{\"eth0\" : [-1], \"eth1\" : [81]}"
config *.switch2.bridging.vlanPolicy.outboundMapper.mappedVlanIds "{\"eth0\" : {\"42\" : -1}}"
config description "Base config for VLANs"
config *.*.bridging.typename BridgingLayer
config *.*.bridging.macTableModule "\"\""
config *.switch*.bridging.directionReverser.reverser.forwardPcp false
config *.host*.bridging.directionReverser.typename ""
config *.host*.bridging.interfaceRelay.typename ""
config *.*.ieee8021q.typename Ieee8021qProtocol
config network VlanExample
config **.fcsMode "\"computed\""
config **.crcMode "\"computed\""
config *.*.llc.typename ""
config *.*.ethernet.typename EthernetLayer
config *.*.eth[*].typename LayeredEthernetInterface
config *.*.eth[*].bitrate 100Mbps
config *.host1.numApps 1
config *.host1.app[*].typename TcpSessionApp
config *.host1.app[*].connectAddress "\"host2\""
config *.host1.app[*].connectPort 1000
config *.host1.app[*].sendBytes 1MiB
config *.host1.app[*].tOpen 0s
config *.host1.app[*].tSend 0s
config *.host2.numApps 1
config *.host2.app[*].typename TcpEchoApp
config *.host2.app[0].localAddress "\"\""
config *.host2.app[0].localPort 1000
config *.*.numPcapRecorders 1
config *.host*.pcapRecorder[*].moduleNamePatterns "\"eth[0]\""
config *.host1.pcapRecorder[*].pcapFile "\"results/host1.pcap\""
config *.host2.pcapRecorder[*].pcapFile "\"results/host2.pcap\""
config *.switch*.pcapRecorder[*].moduleNamePatterns "\"eth[1]\""
config *.switch1.pcapRecorder[*].pcapFile "\"results/switch1.pcap\""
config *.switch2.pcapRecorder[*].pcapFile "\"results/switch2.pcap\""

scalar VlanExample.host1.bridging.vlanPolicy.outboundMapper outgoingPackets:count 342
attr recordingmode count
attr source "merge(packetPushedOut, packetPulledOut)"
attr title "outgoing packets, count"
attr unit pk
scalar VlanExample.host1.bridging.vlanPolicy.outboundMapper outgoingPacketLengths:sum 894080
attr interpolationmode none
attr recordingmode sum
attr source "packetLength(merge(packetPushedOut, packetPulledOut))"
attr title "outgoing packet lengths, sum"
attr unit b
statistic VlanExample.host1.bridging.vlanPolicy.outboundMapper outgoingPacketLengths:histogram
field count 342
field mean 2614.269005848
field stddev 2142.0560184259
field min 224
field max 4608
field sum 894080
field sqrsum 3902011392
attr interpolationmode none
attr recordingmode histogram
attr source "packetLength(merge(packetPushedOut, packetPulledOut))"
attr title "outgoing packet lengths"
attr unit b
bin	-inf	0
bin	0	0
bin	100	0
bin	200	1
bin	300	158
bin	400	0
bin	500	0
bin	600	0
bin	700	0
bin	800	0
bin	900	0
bin	1000	0
bin	1100	0
bin	1200	0
bin	1300	0
bin	1400	0
bin	1500	0
bin	1600	0
bin	1700	0
bin	1800	0
bin	1900	0
bin	2000	0
bin	2100	0
bin	2200	0
bin	2300	0
bin	2400	0
bin	2500	0
bin	2600	0
bin	2700	0
bin	2800	0
bin	2900	0
bin	3000	0
bin	3100	0
bin	3200	0
bin	3300	0
bin	3400	0
bin	3500	0
bin	3600	0
bin	3700	0
bin	3800	0
bin	3900	0
bin	4000	0
bin	4100	0
bin	4200	0
bin	4300	0
bin	4400	0
bin	4500	0
bin	4600	183
bin	4700	0
bin	4800	0
bin	4900	0
bin	5000	0
bin	5100	0
bin	5200	0
bin	5300	0
bin	5400	0
bin	5500	0
bin	5600	0
bin	5700	0
bin	5800	0
scalar VlanExample.host1.bridging.vlanPolicy.outboundMapper flowOutgoingPacketLengths:sum 0
attr interpolationmode none
attr recordingmode sum
attr source "packetLength(demuxFlow(merge(packetPushedOut, packetPulledOut)))"
attr title "flow specific outgoing packet lengths, sum"
attr unit b
statistic VlanExample.host1.bridging.vlanPolicy.outboundMapper flowOutgoingPacketLengths:histogram
field count 0
field mean -nan
field stddev nan
field min nan
field max nan
field sum 0
field sqrsum 0
attr interpolationmode none
attr recordingmode histogram
attr source "packetLength(demuxFlow(merge(packetPushedOut, packetPulledOut)))"
attr title "flow specific outgoing packet lengths"
attr unit b
bin	-inf	0
bin	0	0
bin	1	0
scalar VlanExample.host1.bridging.vlanPolicy.outboundMapper incomingPackets:count 342
attr recordingmode count
attr source "merge(packetPushedIn, packetPulledIn)"
attr title "incoming packets, count"
attr unit pk
scalar VlanExample.host1.bridging.vlanPolicy.outboundMapper incomingPacketLengths:sum 894080
attr interpolationmode none
attr recordingmode sum
attr source "packetLength(merge(packetPushedIn, packetPulledIn))"
attr title "incoming packet lengths, sum"
attr unit b
statistic VlanExample.host1.bridging.vlanPolicy.outboundMapper incomingPacketLengths:histogram
field count 342
field mean 2614.269005848
field stddev 2142.0560184259
field min 224
field max 4608
field sum 894080
field sqrsum 3902011392
attr interpolationmode none
attr recordingmode histogram
attr source "packetLength(merge(packetPushedIn, packetPulledIn))"
attr title "incoming packet lengths"
attr unit b
bin	-inf	0
bin	0	0
bin	100	0
bin	200	1
bin	300	158
bin	400	0
bin	500	0
bin	600	0
bin	700	0
bin	800	0
bin	900	0
bin	1000	0
bin	1100	0
bin	1200	0
bin	1300	0
bin	1400	0
bin	1500	0
bin	1600	0
bin	1700	0
bin	1800	0
bin	1900	0
bin	2000	0
bin	2100	0
bin	2200	0
bin	2300	0
bin	2400	0
bin	2500	0
bin	2600	0
bin	2700	0
bin	2800	0
bin	2900	0
bin	3000	0
bin	3100	0
bin	3200	0
bin	3300	0
bin	3400	0
bin	3500	0
bin	3600	0
bin	3700	0
bin	3800	0
bin	3900	0
bin	4000	0
bin	4100	0
bin	4200	0
bin	4300	0
bin	4400	0
bin	4500	0
bin	4600	183
bin	4700	0
bin	4800	0
bin	4900	0
bin	5000	0
bin	5100	0
bin	5200	0
bin	5300	0
bin	5400	0
bin	5500	0
bin	5600	0
bin	5700	0
bin	5800	0
scalar VlanExample.host1.bridging.vlanPolicy.outboundMapper flowIncomingPacketLengths:sum 0
attr interpolationmode none
attr recordingmode sum
attr source "packetLength(demuxFlow(merge(packetPushedIn, packetPulledIn)))"
attr title "flow specific incoming packet lengths, sum"
attr unit b
statistic VlanExample.host1.bridging.vlanPolicy.outboundMapper flowIncomingPacketLengths:histogram
field count 0
field mean -nan
field stddev nan
field min nan
field max nan
field sum 0
field sqrsum 0
attr interpolationmode none
attr recordingmode histogram
attr source "packetLength(demuxFlow(merge(packetPushedIn, packetPulledIn)))"
attr title "flow specific incoming packet lengths"
attr unit b
bin	-inf	0
bin	0	0
bin	1	0
scalar VlanExample.host1.bridging.vlanPolicy.outboundFilter outgoingPackets:count 342
attr recordingmode count
attr source "merge(packetPushedOut, packetPulledOut)"
attr title "outgoing packets, count"
attr unit pk
scalar VlanExample.host1.bridging.vlanPolicy.outboundFilter outgoingPacketLengths:sum 894080
attr interpolationmode none
attr recordingmode sum
attr source "packetLength(merge(packetPushedOut, packetPulledOut))"
attr title "outgoing packet lengths, sum"
attr unit b
statistic VlanExample.host1.bridging.vlanPolicy.outboundFilter outgoingPacketLengths:histogram
field count 342
field mean 2614.269005848
field stddev 2142.0560184259
field min 224
field max 4608
field sum 894080
field sqrsum 3902011392
attr interpolationmode none
attr recordingmode histogram
attr source "packetLength(merge(packetPushedOut, packetPulledOut))"
attr title "outgoing packet lengths"
attr unit b
bin	-inf	0
bin	0	0
bin	100	0
bin	200	1
bin	300	158
bin	400	0
bin	500	0
bin	600	0
bin	700	0
bin	800	0
bin	900	0
bin	1000	0
bin	1100	0
bin	1200	0
bin	1300	0
bin	1400	0
bin	1500	0
bin	1600	0
bin	1700	0
bin	1800	0
bin	1900	0
bin	2000	0
bin	2100	0
bin	2200	0
bin	2300	0
bin	2400	0
bin	2500	0
bin	2600	0
bin	2700	0
bin	2800	0
bin	2900	0
bin	3000	0
bin	3100	0
bin	3200	0
bin	3300	0
bin	3400	0
bin	3500	0
bin	3600	0
bin	3700	0
bin	3800	0
bin	3900	0
bin	4000	0
bin	4100	0
bin	4200	0
bin	4300	0
bin	4400	0
bin	4500	0
bin	4600	183
bin	4700	0
bin	4800	0
bin	4900	0
bin	5000	0
bin	5100	0
bin	5200	0
bin	5300	0
bin	5400	0
bin	5500	0
bin	5600	0
bin	5700	0
bin	5800	0
scalar VlanExample.host1.bridging.vlanPolicy.outboundFilter flowOutgoingPacketLengths:sum 0
attr interpolationmode none
attr recordingmode sum
attr source "packetLength(demuxFlow(merge(packetPushedOut, packetPulledOut)))"
attr title "flow specific outgoing packet lengths, sum"
attr unit b
statistic VlanExample.host1.bridging.vlanPolicy.outboundFilter flowOutgoingPacketLengths:histogram
field count 0
field mean -nan
field stddev nan
field min nan
field max nan
field sum 0
field sqrsum 0
attr interpolationmode none
attr recordingmode histogram
attr source "packetLength(demuxFlow(merge(packetPushedOut, packetPulledOut)))"
attr title "flow specific outgoing packet lengths"
attr unit b
bin	-inf	0
bin	0	0
bin	1	0
scalar VlanExample.host1.bridging.vlanPolicy.outboundFilter incomingPackets:count 342
attr recordingmode count
attr source "merge(packetPushedIn, packetPulledIn)"
attr title "incoming packets, count"
attr unit pk
scalar VlanExample.host1.bridging.vlanPolicy.outboundFilter incomingPacketLengths:sum 894080
attr interpolationmode none
attr recordingmode sum
attr source "packetLength(merge(packetPushedIn, packetPulledIn))"
attr title "incoming packet lengths, sum"
attr unit b
statistic VlanExample.host1.bridging.vlanPolicy.outboundFilter incomingPacketLengths:histogram
field count 342
field mean 2614.269005848
field stddev 2142.0560184259
field min 224
field max 4608
field sum 894080
field sqrsum 3902011392
attr interpolationmode none
attr recordingmode histogram
attr source "packetLength(merge(packetPushedIn, packetPulledIn))"
attr title "incoming packet lengths"
attr unit b
bin	-inf	0
bin	0	0
bin	100	0
bin	200	1
bin	300	158
bin	400	0
bin	500	0
bin	600	0
bin	700	0
bin	800	0
bin	900	0
bin	1000	0
bin	1100	0
bin	1200	0
bin	1300	0
bin	1400	0
bin	1500	0
bin	1600	0
bin	1700	0
bin	1800	0
bin	1900	0
bin	2000	0
bin	2100	0
bin	2200	0
bin	2300	0
bin	2400	0
bin	2500	0
bin	2600	0
bin	2700	0
bin	2800	0
bin	2900	0
bin	3000	0
bin	3100	0
bin	3200	0
bin	3300	0
bin	3400	0
bin	3500	0
bin	3600	0
bin	3700	0
bin	3800	0
bin	3900	0
bin	4000	0
bin	4100	0
bin	4200	0
bin	4300	0
bin	4400	0
bin	4500	0
bin	4600	183
bin	4700	0
bin	4800	0
bin	4900	0
bin	5000	0
bin	5100	0
bin	5200	0
bin	5300	0
bin	5400	0
bin	5500	0
bin	5600	0
bin	5700	0
bin	5800	0
scalar VlanExample.host1.bridging.vlanPolicy.outboundFilter flowIncomingPacketLengths:sum 0
attr interpolationmode none
attr recordingmode sum
attr source "packetLength(demuxFlow(merge(packetPushedIn, packetPulledIn)))"
attr title "flow specific incoming packet lengths, sum"
attr unit b
statistic VlanExample.host1.bridging.vlanPolicy.outboundFilter flowIncomingPacketLengths:histogram
field count 0
field mean -nan
field stddev nan
field min nan
field max nan
field sum 0
field sqrsum 0
attr interpolationmode none
attr recordingmode histogram
attr source "packetLength(demuxFlow(merge(packetPushedIn, packetPulledIn)))"
attr title "flow specific incoming packet lengths"
attr unit b
bin	-inf	0
bin	0	0
bin	1	0
scalar VlanExample.host1.bridging.vlanPolicy.outboundFilter droppedPackets:count 0
attr recordingmode count
attr source packetDropped
attr title "dropped packets, count"
attr unit pk
scalar VlanExample.host1.bridging.vlanPolicy.outboundFilter droppedPacketLengths:sum 0
attr interpolationmode none
attr recordingmode sum
attr source packetLength(packetDropped)
attr title "dropped packet lengths, sum"
attr unit b
statistic VlanExample.host1.bridging.vlanPolicy.outboundFilter droppedPacketLengths:histogram
field count 0
field mean -nan
field stddev nan
field min nan
field max nan
field sum 0
field sqrsum 0
attr interpolationmode none
attr recordingmode histogram
attr source packetLength(packetDropped)
attr title "dropped packet lengths"
attr unit b
bin	-inf	0
bin	0	0
bin	1	0
scalar VlanExample.host1.bridging.vlanPolicy.outboundFilter flowDroppedPacketLengths:sum 0
attr interpolationmode none
attr recordingmode sum
attr source packetLength(demuxFlow(packetDropped))
attr title "flow specific dropped packet lengths, sum"
attr unit b
statistic VlanExample.host1.bridging.vlanPolicy.outboundFilter flowDroppedPacketLengths:histogram
field count 0
field mean -nan
field stddev nan
field min nan
field max nan
field sum 0
field sqrsum 0
attr interpolationmode none
attr recordingmode histogram
attr source packetLength(demuxFlow(packetDropped))
attr title "flow specific dropped packet lengths"
attr unit b
bin	-inf	0
bin	0	0
bin	1	0
scalar VlanExample.host1.bridging.vlanPolicy.inboundFilter outgoingPackets:count 327
attr recordingmode count
attr source "merge(packetPushedOut, packetPulledOut)"
attr title "outgoing packets, count"
attr unit pk
scalar VlanExample.host1.bridging.vlanPolicy.inboundFilter outgoingPacketLengths:sum 781776
attr interpolationmode none
attr recordingmode sum
attr source "packetLength(merge(packetPushedOut, packetPulledOut))"
attr title "outgoing packet lengths, sum"
attr unit b
statistic VlanExample.host1.bridging.vlanPolicy.inboundFilter outgoingPacketLengths:histogram
field count 327
field mean 2390.752293578
field stddev 2121.0139973851
field min 368
field max 4608
field sum 781776
field sqrsum 3335609088
attr interpolationmode none
attr recordingmode histogram
attr source "packetLength(merge(packetPushedOut, packetPulledOut))"
attr title "outgoing packet lengths"
attr unit b
bin	-inf	0
bin	0	0
bin	100	0
bin	200	0
bin	300	171
bin	400	0
bin	500	0
bin	600	0
bin	700	0
bin	800	0
bin	900	0
bin	1000	0
bin	1100	0
bin	1200	0
bin	1300	0
bin	1400	0
bin	1500	0
bin	1600	0
bin	1700	0
bin	1800	0
bin	1900	0
bin	2000	0
bin	2100	0
bin	2200	0
bin	2300	0
bin	2400	0
bin	2500	0
bin	2600	0
bin	2700	0
bin	2800	0
bin	2900	0
bin	3000	0
bin	3100	0
bin	3200	0
bin	3300	0
bin	3400	0
bin	3500	0
bin	3600	0
bin	3700	0
bin	3800	0
bin	3900	0
bin	4000	0
bin	4100	0
bin	4200	0
bin	4300	0
bin	4400	0
bin	4500	0
bin	4600	156
bin	4700	0
bin	4800	0
bin	4900	0
bin	5000	0
bin	5100	0
bin	5200	0
bin	5300	0
bin	5400	0
bin	5500	0
bin	5600	0
bin	5700	0
scalar VlanExample.host1.bridging.vlanPolicy.inboundFilter flowOutgoingPacketLengths:sum 0
attr interpolationmode none
attr recordingmode sum
attr source "packetLength(demuxFlow(merge(packetPushedOut, packetPulledOut)))"
attr title "flow specific outgoing packet lengths, sum"
attr unit b
statistic VlanExample.host1.bridging.vlanPolicy.inboundFilter flowOutgoingPacketLengths:histogram
field count 0
field mean -nan
field stddev nan
field min nan
field max nan
field sum 0
field sqrsum 0
attr interpolationmode none
attr recordingmode histogram
attr source "packetLength(demuxFlow(merge(packetPushedOut, packetPulledOut)))"
attr title "flow specific outgoing packet lengths"
attr unit b
bin	-inf	0
bin	0	0
bin	1	0
scalar VlanExample.host1.bridging.vlanPolicy.inboundFilter incomingPackets:count 327
attr recordingmode count
attr source "merge(packetPushedIn, packetPulledIn)"
attr title "incoming packets, count"
attr unit pk
scalar VlanExample.host1.bridging.vlanPolicy.inboundFilter incomingPacketLengths:sum 781776
attr interpolationmode none
attr recordingmode sum
attr source "packetLength(merge(packetPushedIn, packetPulledIn))"
attr title "incoming packet lengths, sum"
attr unit b
statistic VlanExample.host1.bridging.vlanPolicy.inboundFilter incomingPacketLengths:histogram
field count 327
field mean 2390.752293578
field stddev 2121.0139973851
field min 368
field max 4608
field sum 781776
field sqrsum 3335609088
attr interpolationmode none
attr recordingmode histogram
attr source "packetLength(merge(packetPushedIn, packetPulledIn))"
attr title "incoming packet lengths"
attr unit b
bin	-inf	0
bin	0	0
bin	100	0
bin	200	0
bin	300	171
bin	400	0
bin	500	0
bin	600	0
bin	700	0
bin	800	0
bin	900	0
bin	1000	0
bin	1100	0
bin	1200	0
bin	1300	0
bin	1400	0
bin	1500	0
bin	1600	0
bin	1700	0
bin	1800	0
bin	1900	0
bin	2000	0
bin	2100	0
bin	2200	0
bin	2300	0
bin	2400	0
bin	2500	0
bin	2600	0
bin	2700	0
bin	2800	0
bin	2900	0
bin	3000	0
bin	3100	0
bin	3200	0
bin	3300	0
bin	3400	0
bin	3500	0
bin	3600	0
bin	3700	0
bin	3800	0
bin	3900	0
bin	4000	0
bin	4100	0
bin	4200	0
bin	4300	0
bin	4400	0
bin	4500	0
bin	4600	156
bin	4700	0
bin	4800	0
bin	4900	0
bin	5000	0
bin	5100	0
bin	5200	0
bin	5300	0
bin	5400	0
bin	5500	0
bin	5600	0
bin	5700	0
scalar VlanExample.host1.bridging.vlanPolicy.inboundFilter flowIncomingPacketLengths:sum 0
attr interpolationmode none
attr recordingmode sum
attr source "packetLength(demuxFlow(merge(packetPushedIn, packetPulledIn)))"
attr title "flow specific incoming packet lengths, sum"
attr unit b
statistic VlanExample.host1.bridging.vlanPolicy.inboundFilter flowIncomingPacketLengths:histogram
field count 0
field mean -nan
field stddev nan
field min nan
field max nan
field sum 0
field sqrsum 0
attr interpolationmode none
attr recordingmode histogram
attr source "packetLength(demuxFlow(merge(packetPushedIn, packetPulledIn)))"
attr title "flow specific incoming packet lengths"
attr unit b
bin	-inf	0
bin	0	0
bin	1	0
scalar VlanExample.host1.bridging.vlanPolicy.inboundFilter droppedPackets:count 0
attr recordingmode count
attr source packetDropped
attr title "dropped packets, count"
attr unit pk
scalar VlanExample.host1.bridging.vlanPolicy.inboundFilter droppedPacketLengths:sum 0
attr interpolationmode none
attr recordingmode sum
attr source packetLength(packetDropped)
attr title "dropped packet lengths, sum"
attr unit b
statistic VlanExample.host1.bridging.vlanPolicy.inboundFilter droppedPacketLengths:histogram
field count 0
field mean -nan
field stddev nan
field min nan
field max nan
field sum 0
field sqrsum 0
attr interpolationmode none
attr recordingmode histogram
attr source packetLength(packetDropped)
attr title "dropped packet lengths"
attr unit b
bin	-inf	0
bin	0	0
bin	1	0
scalar VlanExample.host1.bridging.vlanPolicy.inboundFilter flowDroppedPacketLengths:sum 0
attr interpolationmode none
attr recordingmode sum
attr source packetLength(demuxFlow(packetDropped))
attr title "flow specific dropped packet lengths, sum"
attr unit b
statistic VlanExample.host1.bridging.vlanPolicy.inboundFilter flowDroppedPacketLengths:histogram
field count 0
field mean -nan
field stddev nan
field min nan
field max nan
field sum 0
field sqrsum 0
attr interpolationmode none
attr recordingmode histogram
attr source packetLength(demuxFlow(packetDropped))
attr title "flow specific dropped packet lengths"
attr unit b
bin	-inf	0
bin	0	0
bin	1	0
scalar VlanExample.host1.ethernet.macHeaderInserter outgoingPackets:count 342
attr recordingmode count
attr source "merge(packetPushedOut, packetPulledOut)"
attr title "outgoing packets, count"
attr unit pk
scalar VlanExample.host1.ethernet.macHeaderInserter outgoingPacketLengths:sum 943328
attr interpolationmode none
attr recordingmode sum
attr source "packetLength(merge(packetPushedOut, packetPulledOut))"
attr title "outgoing packet lengths, sum"
attr unit b
statistic VlanExample.host1.ethernet.macHeaderInserter outgoingPacketLengths:histogram
field count 342
field mean 2758.269005848
field stddev 2142.0560184259
field min 368
field max 4752
field sum 943328
field sqrsum 4166598144
attr interpolationmode none
attr recordingmode histogram
attr source "packetLength(merge(packetPushedOut, packetPulledOut))"
attr title "outgoing packet lengths"
attr unit b
bin	-inf	0
bin	0	0
bin	100	0
bin	200	0
bin	300	1
bin	400	158
bin	500	0
bin	600	0
bin	700	0
bin	800	0
bin	900	0
bin	1000	0
bin	1100	0
bin	1200	0
bin	1300	0
bin	1400	0
bin	1500	0
bin	1600	0
bin	1700	0
bin	1800	0
bin	1900	0
bin	2000	0
bin	2100	0
bin	2200	0
bin	2300	0
bin	2400	0
bin	2500	0
bin	2600	0
bin	2700	0
bin	2800	0
bin	2900	0
bin	3000	0
bin	3100	0
bin	3200	0
bin	3300	0
bin	3400	0
bin	3500	0
bin	3600	0
bin	3700	0
bin	3800	0
bin	3900	0
bin	4000	0
bin	4100	0
bin	4200	0
bin	4300	0
bin	4400	0
bin	4500	0
bin	4600	0
bin	4700	183
bin	4800	0
bin	4900	0
bin	5000	0
bin	5100	0
bin	5200	0
bin	5300	0
bin	5400	0
bin	5500	0
bin	5600	0
bin	5700	0
bin	5800	0
bin	5900	0
scalar VlanExample.host1.ethernet.macHeaderInserter flowOutgoingPacketLengths:sum 0
attr interpolationmode none
attr recordingmode sum
attr source "packetLength(demuxFlow(merge(packetPushedOut, packetPulledOut)))"
attr title "flow specific outgoing packet lengths, sum"
attr unit b
statistic VlanExample.host1.ethernet.macHeaderInserter flowOutgoingPacketLengths:histogram
field count 0
field mean -nan
field stddev nan
field min nan
field max nan
field sum 0
field sqrsum 0
attr interpolationmode none
attr recordingmode histogram
attr source "packetLength(demuxFlow(merge(packetPushedOut, packetPulledOut)))"
attr title "flow specific outgoing packet lengths"
attr unit b
bin	-inf	0
bin	0	0
bin	1	0
scalar VlanExample.host1.ethernet.macHeaderInserter incomingPackets:count 342
attr recordingmode count
attr source "merge(packetPushedIn, packetPulledIn)"
attr title "incoming packets, count"
attr unit pk
scalar VlanExample.host1.ethernet.macHeaderInserter incomingPacketLengths:sum 905024
attr interpolationmode none
attr recordingmode sum
attr source "packetLength(merge(packetPushedIn, packetPulledIn))"
attr title "incoming packet lengths, sum"
attr unit b
statistic VlanExample.host1.ethernet.macHeaderInserter incomingPacketLengths:histogram
field count 342
field mean 2646.269005848
field stddev 2142.0560184259
field min 256
field max 4640
field sum 905024
field sqrsum 3959582720
attr interpolationmode none
attr recordingmode histogram
attr source "packetLength(merge(packetPushedIn, packetPulledIn))"
attr title "incoming packet lengths"
attr unit b
bin	-inf	0
bin	0	0
bin	100	0
bin	200	1
bin	300	158
bin	400	0
bin	500	0
bin	600	0
bin	700	0
bin	800	0
bin	900	0
bin	1000	0
bin	1100	0
bin	1200	0
bin	1300	0
bin	1400	0
bin	1500	0
bin	1600	0
bin	1700	0
bin	1800	0
bin	1900	0
bin	2000	0
bin	2100	0
bin	2200	0
bin	2300	0
bin	2400	0
bin	2500	0
bin	2600	0
bin	2700	0
bin	2800	0
bin	2900	0
bin	3000	0
bin	3100	0
bin	3200	0
bin	3300	0
bin	3400	0
bin	3500	0
bin	3600	0
bin	3700	0
bin	3800	0
bin	3900	0
bin	4000	0
bin	4100	0
bin	4200	0
bin	4300	0
bin	4400	0
bin	4500	0
bin	4600	183
bin	4700	0
bin	4800	0
bin	4900	0
bin	5000	0
bin	5100	0
bin	5200	0
bin	5300	0
bin	5400	0
bin	5500	0
bin	5600	0
bin	5700	0
bin	5800	0
scalar VlanExample.host1.ethernet.macHeaderInserter flowIncomingPacketLengths:sum 0
attr interpolationmode none
attr recordingmode sum
attr source "packetLength(demuxFlow(merge(packetPushedIn, packetPulledIn)))"
attr title "flow specific incoming packet lengths, sum"
attr unit b
statistic VlanExample.host1.ethernet.macHeaderInserter flowIncomingPacketLengths:histogram
field count 0
field mean -nan
field stddev nan
field min nan
field max nan
field sum 0
field sqrsum 0
attr interpolationmode none
attr recordingmode histogram
attr source "packetLength(demuxFlow(merge(packetPushedIn, packetPulledIn)))"
attr title "flow specific incoming packet lengths"
attr unit b
bin	-inf	0
bin	0	0
bin	1	0
scalar VlanExample.host1.ethernet.paddingInserter outgoingPackets:count 342
attr recordingmode count
attr source "merge(packetPushedOut, packetPulledOut)"
attr title "outgoing packets, count"
attr unit pk
scalar VlanExample.host1.ethernet.paddingInserter outgoingPacketLengths:sum 945952
attr interpolationmode none
attr recordingmode sum
attr source "packetLength(merge(packetPushedOut, packetPulledOut))"
attr title "outgoing packet lengths, sum"
attr unit b
statistic VlanExample.host1.ethernet.paddingInserter outgoingPacketLengths:histogram
field count 342
field mean 2765.9415204678
field stddev 2133.8059115403
field min 480
field max 4752
field sum 945952
field sqrsum 4169064448
attr interpolationmode none
attr recordingmode histogram
attr source "packetLength(merge(packetPushedOut, packetPulledOut))"
attr title "outgoing packet lengths"
attr unit b
bin	-inf	0
bin	0	0
bin	100	0
bin	200	0
bin	300	0
bin	400	159
bin	500	0
bin	600	0
bin	700	0
bin	800	0
bin	900	0
bin	1000	0
bin	1100	0
bin	1200	0
bin	1300	0
bin	1400	0
bin	1500	0
bin	1600	0
bin	1700	0
bin	1800	0
bin	1900	0
bin	2000	0
bin	2100	0
bin	2200	0
bin	2300	0
bin	2400	0
bin	2500	0
bin	2600	0
bin	2700	0
bin	2800	0
bin	2900	0
bin	3000	0
bin	3100	0
bin	3200	0
bin	3300	0
bin	3400	0
bin	3500	0
bin	3600	0
bin	3700	0
bin	3800	0
bin	3900	0
bin	4000	0
bin	4100	0
bin	4200	0
bin	4300	0
bin	4400	0
bin	4500	0
bin	4600	0
bin	4700	183
bin	4800	0
bin	4900	0
bin	5000	0
bin	5100	0
bin	5200	0
bin	5300	0
bin	5400	0
bin	5500	0
bin	5600	0
bin	5700	0
bin	5800	0
bin	5900	0
scalar VlanExample.host1.ethernet.paddingInserter flowOutgoingPacketLengths:sum 0
attr interpolationmode none
attr recordingmode sum
attr source "packetLength(demuxFlow(merge(packetPushedOut, packetPulledOut)))"
attr title "flow specific outgoing packet lengths, sum"
attr unit b
statistic VlanExample.host1.ethernet.paddingInserter flowOutgoingPacketLengths:histogram
field count 0
field mean -nan
field stddev nan
field min nan
field max nan
field sum 0
field sqrsum 0
attr interpolationmode none
attr recordingmode histogram
attr source "packetLength(demuxFlow(merge(packetPushedOut, packetPulledOut)))"
attr title "flow specific outgoing packet lengths"
attr unit b
bin	-inf	0
bin	0	0
bin	1	0
scalar VlanExample.host1.ethernet.paddingInserter incomingPackets:count 342
attr recordingmode count
attr source "merge(packetPushedIn, packetPulledIn)"
attr title "incoming packets, count"
attr unit pk
scalar VlanExample.host1.ethernet.paddingInserter incomingPacketLengths:sum 943328
attr interpolationmode none
attr recordingmode sum
attr source "packetLength(merge(packetPushedIn, packetPulledIn))"
attr title "incoming packet lengths, sum"
attr unit b
statistic VlanExample.host1.ethernet.paddingInserter incomingPacketLengths:histogram
field count 342
field mean 2758.269005848
field stddev 2142.0560184259
field min 368
field max 4752
field sum 943328
field sqrsum 4166598144
attr interpolationmode none
attr recordingmode histogram
attr source "packetLength(merge(packetPushedIn, packetPulledIn))"
attr title "incoming packet lengths"
attr unit b
bin	-inf	0
bin	0	0
bin	100	0
bin	200	0
bin	300	1
bin	400	158
bin	500	0
bin	600	0
bin	700	0
bin	800	0
bin	900	0
bin	1000	0
bin	1100	0
bin	1200	0
bin	1300	0
bin	1400	0
bin	1500	0
bin	1600	0
bin	1700	0
bin	1800	0
bin	1900	0
bin	2000	0
bin	2100	0
bin	2200	0
bin	2300	0
bin	2400	0
bin	2500	0
bin	2600	0
bin	2700	0
bin	2800	0
bin	2900	0
bin	3000	0
bin	3100	0
bin	3200	0
bin	3300	0
bin	3400	0
bin	3500	0
bin	3600	0
bin	3700	0
bin	3800	0
bin	3900	0
bin	4000	0
bin	4100	0
bin	4200	0
bin	4300	0
bin	4400	0
bin	4500	0
bin	4600	0
bin	4700	183
bin	4800	0
bin	4900	0
bin	5000	0
bin	5100	0
bin	5200	0
bin	5300	0
bin	5400	0
bin	5500	0
bin	5600	0
bin	5700	0
bin	5800	0
bin	5900	0
scalar VlanExample.host1.ethernet.paddingInserter flowIncomingPacketLengths:sum 0
attr interpolationmode none
attr recordingmode sum
attr source "packetLength(demuxFlow(merge(packetPushedIn, packetPulledIn)))"
attr title "flow specific incoming packet lengths, sum"
attr unit b
statistic VlanExample.host1.ethernet.paddingInserter flowIncomingPacketLengths:histogram
field count 0
field mean -nan
field stddev nan
field min nan
field max nan
field sum 0
field sqrsum 0
attr interpolationmode none
attr recordingmode histogram
attr source "packetLength(demuxFlow(merge(packetPushedIn, packetPulledIn)))"
attr title "flow specific incoming packet lengths"
attr unit b
bin	-inf	0
bin	0	0
bin	1	0
scalar VlanExample.host1.ethernet.fcsInserter outgoingPackets:count 342
attr recordingmode count
attr source "merge(packetPushedOut, packetPulledOut)"
attr title "outgoing packets, count"
attr unit pk
scalar VlanExample.host1.ethernet.fcsInserter outgoingPacketLengths:sum 956896
attr interpolationmode none
attr recordingmode sum
attr source "packetLength(merge(packetPushedOut, packetPulledOut))"
attr title "outgoing packet lengths, sum"
attr unit b
statistic VlanExample.host1.ethernet.fcsInserter outgoingPacketLengths:histogram
field count 342
field mean 2797.9415204678
field stddev 2133.8059115403
field min 512
field max 4784
field sum 956896
field sqrsum 4229955584
attr interpolationmode none
attr recordingmode histogram
attr source "packetLength(merge(packetPushedOut, packetPulledOut))"
attr title "outgoing packet lengths"
attr unit b
bin	-inf	0
bin	0	0
bin	100	0
bin	200	0
bin	300	0
bin	400	0
bin	500	159
bin	600	0
bin	700	0
bin	800	0
bin	900	0
bin	1000	0
bin	1100	0
bin	1200	0
bin	1300	0
bin	1400	0
bin	1500	0
bin	1600	0
bin	1700	0
bin	1800	0
bin	1900	0
bin	2000	0
bin	2100	0
bin	2200	0
bin	2300	0
bin	2400	0
bin	2500	0
bin	2600	0
bin	2700	0
bin	2800	0
bin	2900	0
bin	3000	0
bin	3100	0
bin	3200	0
bin	3300	0
bin	3400	0
bin	3500	0
bin	3600	0
bin	3700	0
bin	3800	0
bin	3900	0
bin	4000	0
bin	4100	0
bin	4200	0
bin	4300	0
bin	4400	0
bin	4500	0
bin	4600	0
bin	4700	183
bin	4800	0
bin	4900	0
bin	5000	0
bin	5100	0
bin	5200	0
bin	5300	0
bin	5400	0
bin	5500	0
bin	5600	0
bin	5700	0
bin	5800	0
bin	5900	0
scalar VlanExample.host1.ethernet.fcsInserter flowOutgoingPacketLengths:sum 0
attr interpolationmode none
attr recordingmode sum
attr source "packetLength(demuxFlow(merge(packetPushedOut, packetPulledOut)))"
attr title "flow specific outgoing packet lengths, sum"
attr unit b
statistic VlanExample.host1.ethernet.fcsInserter flowOutgoingPacketLengths:histogram
field count 0
field mean -nan
field stddev nan
field min nan
field max nan
field sum 0
field sqrsum 0
attr interpolationmode none
attr recordingmode histogram
attr source "packetLength(demuxFlow(merge(packetPushedOut, packetPulledOut)))"
attr title "flow specific outgoing packet lengths"
attr unit b
bin	-inf	0
bin	0	0
bin	1	0
scalar VlanExample.host1.ethernet.fcsInserter incomingPackets:count 342
attr recordingmode count
attr source "merge(packetPushedIn, packetPulledIn)"
attr title "incoming packets, count"
attr unit pk
scalar VlanExample.host1.ethernet.fcsInserter incomingPacketLengths:sum 945952
attr interpolationmode none
attr recordingmode sum
attr source "packetLength(merge(packetPushedIn, packetPulledIn))"
attr title "incoming packet lengths, sum"
attr unit b
statistic VlanExample.host1.ethernet.fcsInserter incomingPacketLengths:histogram
field count 342
field mean 2765.9415204678
field stddev 2133.8059115403
field min 480
field max 4752
field sum 945952
field sqrsum 4169064448
attr interpolationmode none
attr recordingmode histogram
attr source "packetLength(merge(packetPushedIn, packetPulledIn))"
attr title "incoming packet lengths"
attr unit b
bin	-inf	0
bin	0	0
bin	100	0
bin	200	0
bin	300	0
bin	400	159
bin	500	0
bin	600	0
bin	700	0
bin	800	0
bin	900	0
bin	1000	0
bin	1100	0
bin	1200	0
bin	1300	0
bin	1400	0
bin	1500	0
bin	1600	0
bin	1700	0
bin	1800	0
bin	1900	0
bin	2000	0
bin	2100	0
bin	2200	0
bin	2300	0
bin	2400	0
bin	2500	0
bin	2600	0
bin	2700	0
bin	2800	0
bin	2900	0
bin	3000	0
bin	3100	0
bin	3200	0
bin	3300	0
bin	3400	0
bin	3500	0
bin	3600	0
bin	3700	0
bin	3800	0
bin	3900	0
bin	4000	0
bin	4100	0
bin	4200	0
bin	4300	0
bin	4400	0
bin	4500	0
bin	4600	0
bin	4700	183
bin	4800	0
bin	4900	0
bin	5000	0
bin	5100	0
bin	5200	0
bin	5300	0
bin	5400	0
bin	5500	0
bin	5600	0
bin	5700	0
bin	5800	0
bin	5900	0
scalar VlanExample.host1.ethernet.fcsInserter flowIncomingPacketLengths:sum 0
attr interpolationmode none
attr recordingmode sum
attr source "packetLength(demuxFlow(merge(packetPushedIn, packetPulledIn)))"
attr title "flow specific incoming packet lengths, sum"
attr unit b
statistic VlanExample.host1.ethernet.fcsInserter flowIncomingPacketLengths:histogram
field count 0
field mean -nan
field stddev nan
field min nan
field max nan
field sum 0
field sqrsum 0
attr interpolationmode none
attr recordingmode histogram
attr source "packetLength(demuxFlow(merge(packetPushedIn, packetPulledIn)))"
attr title "flow specific incoming packet lengths"
attr unit b
bin	-inf	0
bin	0	0
bin	1	0
scalar VlanExample.host1.ethernet.macHeaderChecker outgoingPackets:count 327
attr recordingmode count
attr source "merge(packetPushedOut, packetPulledOut)"
attr title "outgoing packets, count"
attr unit pk
scalar VlanExample.host1.ethernet.macHeaderChecker outgoingPacketLengths:sum 781776
attr interpolationmode none
attr recordingmode sum
attr source "packetLength(merge(packetPushedOut, packetPulledOut))"
attr title "outgoing packet lengths, sum"
attr unit b
statistic VlanExample.host1.ethernet.macHeaderChecker outgoingPacketLengths:histogram
field count 327
field mean 2390.752293578
field stddev 2121.0139973851
field min 368
field max 4608
field sum 781776
field sqrsum 3335609088
attr interpolationmode none
attr recordingmode histogram
attr source "packetLength(merge(packetPushedOut, packetPulledOut))"
attr title "outgoing packet lengths"
attr unit b
bin	-inf	0
bin	0	0
bin	100	0
bin	200	0
bin	300	171
bin	400	0
bin	500	0
bin	600	0
bin	700	0
bin	800	0
bin	900	0
bin	1000	0
bin	1100	0
bin	1200	0
bin	1300	0
bin	1400	0
bin	1500	0
bin	1600	0
bin	1700	0
bin	1800	0
bin	1900	0
bin	2000	0
bin	2100	0
bin	2200	0
bin	2300	0
bin	2400	0
bin	2500	0
bin	2600	0
bin	2700	0
bin	2800	0
bin	2900	0
bin	3000	0
bin	3100	0
bin	3200	0
bin	3300	0
bin	3400	0
bin	3500	0
bin	3600	0
bin	3700	0
bin	3800	0
bin	3900	0
bin	4000	0
bin	4100	0
bin	4200	0
bin	4300	0
bin	4400	0
bin	4500	0
bin	4600	156
bin	4700	0
bin	4800	0
bin	4900	0
bin	5000	0
bin	5100	0
bin	5200	0
bin	5300	0
bin	5400	0
bin	5500	0
bin	5600	0
bin	5700	0
scalar VlanExample.host1.ethernet.macHeaderChecker flowOutgoingPacketLengths:sum 0
attr interpolationmode none
attr recordingmode sum
attr source "packetLength(demuxFlow(merge(packetPushedOut, packetPulledOut)))"
attr title "flow specific outgoing packet lengths, sum"
attr unit b
statistic VlanExample.host1.ethernet.macHeaderChecker flowOutgoingPacketLengths:histogram
field count 0
field mean -nan
field stddev nan
field min nan
field max nan
field sum 0
field sqrsum 0
attr interpolationmode none
attr recordingmode histogram
attr source "packetLength(demuxFlow(merge(packetPushedOut, packetPulledOut)))"
attr title "flow specific outgoing packet lengths"
attr unit b
bin	-inf	0
bin	0	0
bin	1	0
scalar VlanExample.host1.ethernet.macHeaderChecker incomingPackets:count 327
attr recordingmode count
attr source "merge(packetPushedIn, packetPulledIn)"
attr title "incoming packets, count"
attr unit pk
scalar VlanExample.host1.ethernet.macHeaderChecker incomingPacketLengths:sum 818400
attr interpolationmode none
attr recordingmode sum
attr source "packetLength(merge(packetPushedIn, packetPulledIn))"
attr title "incoming packet lengths, sum"
attr unit b
statistic VlanExample.host1.ethernet.macHeaderChecker incomingPacketLengths:histogram
field count 327
field mean 2502.752293578
field stddev 2121.0139973851
field min 480
field max 4720
field sum 818400
field sqrsum 3514828800
attr interpolationmode none
attr recordingmode histogram
attr source "packetLength(merge(packetPushedIn, packetPulledIn))"
attr title "incoming packet lengths"
attr unit b
bin	-inf	0
bin	0	0
bin	100	0
bin	200	0
bin	300	0
bin	400	171
bin	500	0
bin	600	0
bin	700	0
bin	800	0
bin	900	0
bin	1000	0
bin	1100	0
bin	1200	0
bin	1300	0
bin	1400	0
bin	1500	0
bin	1600	0
bin	1700	0
bin	1800	0
bin	1900	0
bin	2000	0
bin	2100	0
bin	2200	0
bin	2300	0
bin	2400	0
bin	2500	0
bin	2600	0
bin	2700	0
bin	2800	0
bin	2900	0
bin	3000	0
bin	3100	0
bin	3200	0
bin	3300	0
bin	3400	0
bin	3500	0
bin	3600	0
bin	3700	0
bin	3800	0
bin	3900	0
bin	4000	0
bin	4100	0
bin	4200	0
bin	4300	0
bin	4400	0
bin	4500	0
bin	4600	0
bin	4700	156
bin	4800	0
bin	4900	0
bin	5000	0
bin	5100	0
bin	5200	0
bin	5300	0
bin	5400	0
bin	5500	0
bin	5600	0
bin	5700	0
bin	5800	0
scalar VlanExample.host1.ethernet.macHeaderChecker flowIncomingPacketLengths:sum 0
attr interpolationmode none
attr recordingmode sum
attr source "packetLength(demuxFlow(merge(packetPushedIn, packetPulledIn)))"
attr title "flow specific incoming packet lengths, sum"
attr unit b
statistic VlanExample.host1.ethernet.macHeaderChecker flowIncomingPacketLengths:histogram
field count 0
field mean -nan
field stddev nan
field min nan
field max nan
field sum 0
field sqrsum 0
attr interpolationmode none
attr recordingmode histogram
attr source "packetLength(demuxFlow(merge(packetPushedIn, packetPulledIn)))"
attr title "flow specific incoming packet lengths"
attr unit b
bin	-inf	0
bin	0	0
bin	1	0
scalar VlanExample.host1.ethernet.macHeaderChecker droppedPackets:count 0
attr recordingmode count
attr source packetDropped
attr title "dropped packets, count"
attr unit pk
scalar VlanExample.host1.ethernet.macHeaderChecker droppedPacketLengths:sum 0
attr interpolationmode none
attr recordingmode sum
attr source packetLength(packetDropped)
attr title "dropped packet lengths, sum"
attr unit b
statistic VlanExample.host1.ethernet.macHeaderChecker droppedPacketLengths:histogram
field count 0
field mean -nan
field stddev nan
field min nan
field max nan
field sum 0
field sqrsum 0
attr interpolationmode none
attr recordingmode histogram
attr source packetLength(packetDropped)
attr title "dropped packet lengths"
attr unit b
bin	-inf	0
bin	0	0
bin	1	0
scalar VlanExample.host1.ethernet.macHeaderChecker flowDroppedPacketLengths:sum 0
attr interpolationmode none
attr recordingmode sum
attr source packetLength(demuxFlow(packetDropped))
attr title "flow specific dropped packet lengths, sum"
attr unit b
statistic VlanExample.host1.ethernet.macHeaderChecker flowDroppedPacketLengths:histogram
field count 0
field mean -nan
field stddev nan
field min nan
field max nan
field sum 0
field sqrsum 0
attr interpolationmode none
attr recordingmode histogram
attr source packetLength(demuxFlow(packetDropped))
attr title "flow specific dropped packet lengths"
attr unit b
bin	-inf	0
bin	0	0
bin	1	0
scalar VlanExample.host1.ethernet.fcsChecker outgoingPackets:count 327
attr recordingmode count
attr source "merge(packetPushedOut, packetPulledOut)"
attr title "outgoing packets, count"
attr unit pk
scalar VlanExample.host1.ethernet.fcsChecker outgoingPacketLengths:sum 818400
attr interpolationmode none
attr recordingmode sum
attr source "packetLength(merge(packetPushedOut, packetPulledOut))"
attr title "outgoing packet lengths, sum"
attr unit b
statistic VlanExample.host1.ethernet.fcsChecker outgoingPacketLengths:histogram
field count 327
field mean 2502.752293578
field stddev 2121.0139973851
field min 480
field max 4720
field sum 818400
field sqrsum 3514828800
attr interpolationmode none
attr recordingmode histogram
attr source "packetLength(merge(packetPushedOut, packetPulledOut))"
attr title "outgoing packet lengths"
attr unit b
bin	-inf	0
bin	0	0
bin	100	0
bin	200	0
bin	300	0
bin	400	171
bin	500	0
bin	600	0
bin	700	0
bin	800	0
bin	900	0
bin	1000	0
bin	1100	0
bin	1200	0
bin	1300	0
bin	1400	0
bin	1500	0
bin	1600	0
bin	1700	0
bin	1800	0
bin	1900	0
bin	2000	0
bin	2100	0
bin	2200	0
bin	2300	0
bin	2400	0
bin	2500	0
bin	2600	0
bin	2700	0
bin	2800	0
bin	2900	0
bin	3000	0
bin	3100	0
bin	3200	0
bin	3300	0
bin	3400	0
bin	3500	0
bin	3600	0
bin	3700	0
bin	3800	0
bin	3900	0
bin	4000	0
bin	4100	0
bin	4200	0
bin	4300	0
bin	4400	0
bin	4500	0
bin	4600	0
bin	4700	156
bin	4800	0
bin	4900	0
bin	5000	0
bin	5100	0
bin	5200	0
bin	5300	0
bin	5400	0
bin	5500	0
bin	5600	0
bin	5700	0
bin	5800	0
scalar VlanExample.host1.ethernet.fcsChecker flowOutgoingPacketLengths:sum 0
attr interpolationmode none
attr recordingmode sum
attr source "packetLength(demuxFlow(merge(packetPushedOut, packetPulledOut)))"
attr title "flow specific outgoing packet lengths, sum"
attr unit b
statistic VlanExample.host1.ethernet.fcsChecker flowOutgoingPacketLengths:histogram
field count 0
field mean -nan
field stddev nan
field min nan
field max nan
field sum 0
field sqrsum 0
attr interpolationmode none
attr recordingmode histogram
attr source "packetLength(demuxFlow(merge(packetPushedOut, packetPulledOut)))"
attr title "flow specific outgoing packet lengths"
attr unit b
bin	-inf	0
bin	0	0
bin	1	0
scalar VlanExample.host1.ethernet.fcsChecker incomingPackets:count 327
attr recordingmode count
attr source "merge(packetPushedIn, packetPulledIn)"
attr title "incoming packets, count"
attr unit pk
scalar VlanExample.host1.ethernet.fcsChecker incomingPacketLengths:sum 828864
attr interpolationmode none
attr recordingmode sum
attr source "packetLength(merge(packetPushedIn, packetPulledIn))"
attr title "incoming packet lengths, sum"
attr unit b
statistic VlanExample.host1.ethernet.fcsChecker incomingPacketLengths:histogram
field count 327
field mean 2534.752293578
field stddev 2121.0139973851
field min 512
field max 4752
field sum 828864
field sqrsum 3567541248
attr interpolationmode none
attr recordingmode histogram
attr source "packetLength(merge(packetPushedIn, packetPulledIn))"
attr title "incoming packet lengths"
attr unit b
bin	-inf	0
bin	0	0
bin	100	0
bin	200	0
bin	300	0
bin	400	0
bin	500	171
bin	600	0
bin	700	0
bin	800	0
bin	900	0
bin	1000	0
bin	1100	0
bin	1200	0
bin	1300	0
bin	1400	0
bin	1500	0
bin	1600	0
bin	1700	0
bin	1800	0
bin	1900	0
bin	2000	0
bin	2100	0
bin	2200	0
bin	2300	0
bin	2400	0
bin	2500	0
bin	2600	0
bin	2700	0
bin	2800	0
bin	2900	0
bin	3000	0
bin	3100	0
bin	3200	0
bin	3300	0
bin	3400	0
bin	3500	0
bin	3600	0
bin	3700	0
bin	3800	0
bin	3900	0
bin	4000	0
bin	4100	0
bin	4200	0
bin	4300	0
bin	4400	0
bin	4500	0
bin	4600	0
bin	4700	156
bin	4800	0
bin	4900	0
bin	5000	0
bin	5100	0
bin	5200	0
bin	5300	0
bin	5400	0
bin	5500	0
bin	5600	0
bin	5700	0
bin	5800	0
bin	5900	0
scalar VlanExample.host1.ethernet.fcsChecker flowIncomingPacketLengths:sum 0
attr interpolationmode none
attr recordingmode sum
attr source "packetLength(demuxFlow(merge(packetPushedIn, packetPulledIn)))"
attr title "flow specific incoming packet lengths, sum"
attr unit b
statistic VlanExample.host1.ethernet.fcsChecker flowIncomingPacketLengths:histogram
field count 0
field mean -nan
field stddev nan
field min nan
field max nan
field sum 0
field sqrsum 0
attr interpolationmode none
attr recordingmode histogram
attr source "packetLength(demuxFlow(merge(packetPushedIn, packetPulledIn)))"
attr title "flow specific incoming packet lengths"
attr unit b
bin	-inf	0
bin	0	0
bin	1	0
scalar VlanExample.host1.ethernet.fcsChecker droppedPackets:count 0
attr recordingmode count
attr source packetDropped
attr title "dropped packets, count"
attr unit pk
scalar VlanExample.host1.ethernet.fcsChecker droppedPacketLengths:sum 0
attr interpolationmode none
attr recordingmode sum
attr source packetLength(packetDropped)
attr title "dropped packet lengths, sum"
attr unit b
statistic VlanExample.host1.ethernet.fcsChecker droppedPacketLengths:histogram
field count 0
field mean -nan
field stddev nan
field min nan
field max nan
field sum 0
field sqrsum 0
attr interpolationmode none
attr recordingmode histogram
attr source packetLength(packetDropped)
attr title "dropped packet lengths"
attr unit b
bin	-inf	0
bin	0	0
bin	1	0
scalar VlanExample.host1.ethernet.fcsChecker flowDroppedPacketLengths:sum 0
attr interpolationmode none
attr recordingmode sum
attr source packetLength(demuxFlow(packetDropped))
attr title "flow specific dropped packet lengths, sum"
attr unit b
statistic VlanExample.host1.ethernet.fcsChecker flowDroppedPacketLengths:histogram
field count 0
field mean -nan
field stddev nan
field min nan
field max nan
field sum 0
field sqrsum 0
attr interpolationmode none
attr recordingmode histogram
attr source packetLength(demuxFlow(packetDropped))
attr title "flow specific dropped packet lengths"
attr unit b
bin	-inf	0
bin	0	0
bin	1	0
scalar VlanExample.host1.ieee8021q.qTagHeaderInserter outgoingPackets:count 342
attr recordingmode count
attr source "merge(packetPushedOut, packetPulledOut)"
attr title "outgoing packets, count"
attr unit pk
scalar VlanExample.host1.ieee8021q.qTagHeaderInserter outgoingPacketLengths:sum 905024
attr interpolationmode none
attr recordingmode sum
attr source "packetLength(merge(packetPushedOut, packetPulledOut))"
attr title "outgoing packet lengths, sum"
attr unit b
statistic VlanExample.host1.ieee8021q.qTagHeaderInserter outgoingPacketLengths:histogram
field count 342
field mean 2646.269005848
field stddev 2142.0560184259
field min 256
field max 4640
field sum 905024
field sqrsum 3959582720
attr interpolationmode none
attr recordingmode histogram
attr source "packetLength(merge(packetPushedOut, packetPulledOut))"
attr title "outgoing packet lengths"
attr unit b
bin	-inf	0
bin	0	0
bin	100	0
bin	200	1
bin	300	158
bin	400	0
bin	500	0
bin	600	0
bin	700	0
bin	800	0
bin	900	0
bin	1000	0
bin	1100	0
bin	1200	0
bin	1300	0
bin	1400	0
bin	1500	0
bin	1600	0
bin	1700	0
bin	1800	0
bin	1900	0
bin	2000	0
bin	2100	0
bin	2200	0
bin	2300	0
bin	2400	0
bin	2500	0
bin	2600	0
bin	2700	0
bin	2800	0
bin	2900	0
bin	3000	0
bin	3100	0
bin	3200	0
bin	3300	0
bin	3400	0
bin	3500	0
bin	3600	0
bin	3700	0
bin	3800	0
bin	3900	0
bin	4000	0
bin	4100	0
bin	4200	0
bin	4300	0
bin	4400	0
bin	4500	0
bin	4600	183
bin	4700	0
bin	4800	0
bin	4900	0
bin	5000	0
bin	5100	0
bin	5200	0
bin	5300	0
bin	5400	0
bin	5500	0
bin	5600	0
bin	5700	0
bin	5800	0
scalar VlanExample.host1.ieee8021q.qTagHeaderInserter flowOutgoingPacketLengths:sum 0
attr interpolationmode none
attr recordingmode sum
attr source "packetLength(demuxFlow(merge(packetPushedOut, packetPulledOut)))"
attr title "flow specific outgoing packet lengths, sum"
attr unit b
statistic VlanExample.host1.ieee8021q.qTagHeaderInserter flowOutgoingPacketLengths:histogram
field count 0
field mean -nan
field stddev nan
field min nan
field max nan
field sum 0
field sqrsum 0
attr interpolationmode none
attr recordingmode histogram
attr source "packetLength(demuxFlow(merge(packetPushedOut, packetPulledOut)))"
attr title "flow specific outgoing packet lengths"
attr unit b
bin	-inf	0
bin	0	0
bin	1	0
scalar VlanExample.host1.ieee8021q.qTagHeaderInserter incomingPackets:count 342
attr recordingmode count
attr source "merge(packetPushedIn, packetPulledIn)"
attr title "incoming packets, count"
attr unit pk
scalar VlanExample.host1.ieee8021q.qTagHeaderInserter incomingPacketLengths:sum 894080
attr interpolationmode none
attr recordingmode sum
attr source "packetLength(merge(packetPushedIn, packetPulledIn))"
attr title "incoming packet lengths, sum"
attr unit b
statistic VlanExample.host1.ieee8021q.qTagHeaderInserter incomingPacketLengths:histogram
field count 342
field mean 2614.269005848
field stddev 2142.0560184259
field min 224
field max 4608
field sum 894080
field sqrsum 3902011392
attr interpolationmode none
attr recordingmode histogram
attr source "packetLength(merge(packetPushedIn, packetPulledIn))"
attr title "incoming packet lengths"
attr unit b
bin	-inf	0
bin	0	0
bin	100	0
bin	200	1
bin	300	158
bin	400	0
bin	500	0
bin	600	0
bin	700	0
bin	800	0
bin	900	0
bin	1000	0
bin	1100	0
bin	1200	0
bin	1300	0
bin	1400	0
bin	1500	0
bin	1600	0
bin	1700	0
bin	1800	0
bin	1900	0
bin	2000	0
bin	2100	0
bin	2200	0
bin	2300	0
bin	2400	0
bin	2500	0
bin	2600	0
bin	2700	0
bin	2800	0
bin	2900	0
bin	3000	0
bin	3100	0
bin	3200	0
bin	3300	0
bin	3400	0
bin	3500	0
bin	3600	0
bin	3700	0
bin	3800	0
bin	3900	0
bin	4000	0
bin	4100	0
bin	4200	0
bin	4300	0
bin	4400	0
bin	4500	0
bin	4600	183
bin	4700	0
bin	4800	0
bin	4900	0
bin	5000	0
bin	5100	0
bin	5200	0
bin	5300	0
bin	5400	0
bin	5500	0
bin	5600	0
bin	5700	0
bin	5800	0
scalar VlanExample.host1.ieee8021q.qTagHeaderInserter flowIncomingPacketLengths:sum 0
attr interpolationmode none
attr recordingmode sum
attr source "packetLength(demuxFlow(merge(packetPushedIn, packetPulledIn)))"
attr title "flow specific incoming packet lengths, sum"
attr unit b
statistic VlanExample.host1.ieee8021q.qTagHeaderInserter flowIncomingPacketLengths:histogram
field count 0
field mean -nan
field stddev nan
field min nan
field max nan
field sum 0
field sqrsum 0
attr interpolationmode none
attr recordingmode histogram
attr source "packetLength(demuxFlow(merge(packetPushedIn, packetPulledIn)))"
attr title "flow specific incoming packet lengths"
attr unit b
bin	-inf	0
bin	0	0
bin	1	0
scalar VlanExample.host1.ieee8021q.qTagHeaderChecker outgoingPackets:count 0
attr recordingmode count
attr source "merge(packetPushedOut, packetPulledOut)"
attr title "outgoing packets, count"
attr unit pk
scalar VlanExample.host1.ieee8021q.qTagHeaderChecker outgoingPacketLengths:sum 0
attr interpolationmode none
attr recordingmode sum
attr source "packetLength(merge(packetPushedOut, packetPulledOut))"
attr title "outgoing packet lengths, sum"
attr unit b
statistic VlanExample.host1.ieee8021q.qTagHeaderChecker outgoingPacketLengths:histogram
field count 0
field mean -nan
field stddev nan
field min nan
field max nan
field sum 0
field sqrsum 0
attr interpolationmode none
attr recordingmode histogram
attr source "packetLength(merge(packetPushedOut, packetPulledOut))"
attr title "outgoing packet lengths"
attr unit b
bin	-inf	0
bin	0	0
bin	1	0
scalar VlanExample.host1.ieee8021q.qTagHeaderChecker flowOutgoingPacketLengths:sum 0
attr interpolationmode none
attr recordingmode sum
attr source "packetLength(demuxFlow(merge(packetPushedOut, packetPulledOut)))"
attr title "flow specific outgoing packet lengths, sum"
attr unit b
statistic VlanExample.host1.ieee8021q.qTagHeaderChecker flowOutgoingPacketLengths:histogram
field count 0
field mean -nan
field stddev nan
field min nan
field max nan
field sum 0
field sqrsum 0
attr interpolationmode none
attr recordingmode histogram
attr source "packetLength(demuxFlow(merge(packetPushedOut, packetPulledOut)))"
attr title "flow specific outgoing packet lengths"
attr unit b
bin	-inf	0
bin	0	0
bin	1	0
scalar VlanExample.host1.ieee8021q.qTagHeaderChecker incomingPackets:count 0
attr recordingmode count
attr source "merge(packetPushedIn, packetPulledIn)"
attr title "incoming packets, count"
attr unit pk
scalar VlanExample.host1.ieee8021q.qTagHeaderChecker incomingPacketLengths:sum 0
attr interpolationmode none
attr recordingmode sum
attr source "packetLength(merge(packetPushedIn, packetPulledIn))"
attr title "incoming packet lengths, sum"
attr unit b
statistic VlanExample.host1.ieee8021q.qTagHeaderChecker incomingPacketLengths:histogram
field count 0
field mean -nan
field stddev nan
field min nan
field max nan
field sum 0
field sqrsum 0
attr interpolationmode none
attr recordingmode histogram
attr source "packetLength(merge(packetPushedIn, packetPulledIn))"
attr title "incoming packet lengths"
attr unit b
bin	-inf	0
bin	0	0
bin	1	0
scalar VlanExample.host1.ieee8021q.qTagHeaderChecker flowIncomingPacketLengths:sum 0
attr interpolationmode none
attr recordingmode sum
attr source "packetLength(demuxFlow(merge(packetPushedIn, packetPulledIn)))"
attr title "flow specific incoming packet lengths, sum"
attr unit b
statistic VlanExample.host1.ieee8021q.qTagHeaderChecker flowIncomingPacketLengths:histogram
field count 0
field mean -nan
field stddev nan
field min nan
field max nan
field sum 0
field sqrsum 0
attr interpolationmode none
attr recordingmode histogram
attr source "packetLength(demuxFlow(merge(packetPushedIn, packetPulledIn)))"
attr title "flow specific incoming packet lengths"
attr unit b
bin	-inf	0
bin	0	0
bin	1	0
scalar VlanExample.host1.ieee8021q.qTagHeaderChecker droppedPackets:count 0
attr recordingmode count
attr source packetDropped
attr title "dropped packets, count"
attr unit pk
scalar VlanExample.host1.ieee8021q.qTagHeaderChecker droppedPacketLengths:sum 0
attr interpolationmode none
attr recordingmode sum
attr source packetLength(packetDropped)
attr title "dropped packet lengths, sum"
attr unit b
statistic VlanExample.host1.ieee8021q.qTagHeaderChecker droppedPacketLengths:histogram
field count 0
field mean -nan
field stddev nan
field min nan
field max nan
field sum 0
field sqrsum 0
attr interpolationmode none
attr recordingmode histogram
attr source packetLength(packetDropped)
attr title "dropped packet lengths"
attr unit b
bin	-inf	0
bin	0	0
bin	1	0
scalar VlanExample.host1.ieee8021q.qTagHeaderChecker flowDroppedPacketLengths:sum 0
attr interpolationmode none
attr recordingmode sum
attr source packetLength(demuxFlow(packetDropped))
attr title "flow specific dropped packet lengths, sum"
attr unit b
statistic VlanExample.host1.ieee8021q.qTagHeaderChecker flowDroppedPacketLengths:histogram
field count 0
field mean -nan
field stddev nan
field min nan
field max nan
field sum 0
field sqrsum 0
attr interpolationmode none
attr recordingmode histogram
attr source packetLength(demuxFlow(packetDropped))
attr title "flow specific dropped packet lengths"
attr unit b
bin	-inf	0
bin	0	0
bin	1	0
scalar VlanExample.host1.lo[0].lo rcvdPkFromHl:count 0
attr interpolationmode none
attr recordingmode count
attr source packetReceivedFromUpper
attr title "packets received from higher layer, count"
scalar VlanExample.host1.lo[0].lo rcvdPkFromHl:sum(packetBytes) 0
attr interpolationmode none
attr recordingmode sum(packetBytes)
attr source packetReceivedFromUpper
attr title "packets received from higher layer, sum(packetBytes)"
scalar VlanExample.host1.lo[0].lo passedUpPk:count 0
attr interpolationmode none
attr recordingmode count
attr source packetSentToUpper
attr title "packets passed to higher layer, count"
scalar VlanExample.host1.lo[0].lo passedUpPk:sum(packetBytes) 0
attr interpolationmode none
attr recordingmode sum(packetBytes)
attr source packetSentToUpper
attr title "packets passed to higher layer, sum(packetBytes)"
scalar VlanExample.host1.lo[0] packetDropInterfaceDown:count 0
attr interpolationmode none
attr recordingmode count
attr source packetDropReasonIsInterfaceDown(packetDropped)
attr title "packet drops: interface down, count"
scalar VlanExample.host1.lo[0] packetDropInterfaceDown:sum(packetBytes) 0
attr interpolationmode none
attr recordingmode sum(packetBytes)
attr source packetDropReasonIsInterfaceDown(packetDropped)
attr title "packet drops: interface down, sum(packetBytes)"
scalar VlanExample.host1.lo[0] packetDropNoCarrier:count 0
attr interpolationmode none
attr recordingmode count
attr source packetDropReasonIsNoCarrier(packetDropped)
attr title "packet drops: no carrier, count"
scalar VlanExample.host1.lo[0] packetDropNoCarrier:sum(packetBytes) 0
attr interpolationmode none
attr recordingmode sum(packetBytes)
attr source packetDropReasonIsNoCarrier(packetDropped)
attr title "packet drops: no carrier, sum(packetBytes)"
scalar VlanExample.host1.eth[0].macLayer.queue queueLength:last 10
attr autoWarmupFilter false
attr interpolationmode sample-hold
attr recordingmode last
attr source "warmup(atomic(constant0(packetPushEnded) + count(packetPushStarted) - count(packetPulled) - count(packetRemoved) - count(packetDropped)))"
attr title "queue length, last"
attr unit pk
scalar VlanExample.host1.eth[0].macLayer.queue queueLength:max 19
attr autoWarmupFilter false
attr interpolationmode sample-hold
attr recordingmode max
attr source "warmup(atomic(constant0(packetPushEnded) + count(packetPushStarted) - count(packetPulled) - count(packetRemoved) - count(packetDropped)))"
attr title "queue length, max"
attr unit pk
scalar VlanExample.host1.eth[0].macLayer.queue queueLength:timeavg 8.939198
attr autoWarmupFilter false
attr interpolationmode sample-hold
attr recordingmode timeavg
attr source "warmup(atomic(constant0(packetPushEnded) + count(packetPushStarted) - count(packetPulled) - count(packetRemoved) - count(packetDropped)))"
attr title "queue length, timeavg"
attr unit pk
scalar VlanExample.host1.eth[0].macLayer.queue queueBitLength:last 43568
attr autoWarmupFilter false
attr interpolationmode sample-hold
attr recordingmode last
attr source "warmup(atomic(constant0(packetPushEnded) + sum(packetLength(packetPushStarted)) - sum(packetLength(packetPulled)) - sum(packetLength(packetRemoved)) - sum(packetLength(packetDropped))))"
attr title "queue bit length, last"
attr unit b
scalar VlanExample.host1.eth[0].macLayer.queue queueBitLength:max 59968
attr autoWarmupFilter false
attr interpolationmode sample-hold
attr recordingmode max
attr source "warmup(atomic(constant0(packetPushEnded) + sum(packetLength(packetPushStarted)) - sum(packetLength(packetPulled)) - sum(packetLength(packetRemoved)) - sum(packetLength(packetDropped))))"
attr title "queue bit length, max"
attr unit b
scalar VlanExample.host1.eth[0].macLayer.queue queueBitLength:timeavg 25504.619872
attr autoWarmupFilter false
attr interpolationmode sample-hold
attr recordingmode timeavg
attr source "warmup(atomic(constant0(packetPushEnded) + sum(packetLength(packetPushStarted)) - sum(packetLength(packetPulled)) - sum(packetLength(packetRemoved)) - sum(packetLength(packetDropped))))"
attr title "queue bit length, timeavg"
attr unit b
statistic VlanExample.host1.eth[0].macLayer.queue queueingTime:histogram
field count 332
field mean 0.00026528265060241
field stddev 0.0001767760708546
field min 0
field max 0.00058322
field sum 0.08807384
field sqrsum 3.3708138648e-05
attr interpolationmode none
attr recordingmode histogram
attr source queueingTime(packetPulled)
attr title "queueing times"
attr unit s
bin	-inf	0
bin	0	30
bin	1e-05	1
bin	2e-05	5
bin	3e-05	0
bin	4e-05	19
bin	5e-05	0
bin	6e-05	6
bin	7e-05	1
bin	8e-05	15
bin	9e-05	2
bin	0.0001	1
bin	0.00011	6
bin	0.00012	15
bin	0.00013	0
bin	0.00014	2
bin	0.00015	6
bin	0.00016	0
bin	0.00017	18
bin	0.00018	0
bin	0.00019	6
bin	0.0002	1
bin	0.00021	16
bin	0.00022	2
bin	0.00023	4
bin	0.00024	2
bin	0.00025	16
bin	0.00026	0
bin	0.00027	1
bin	0.00028	5
bin	0.00029	15
bin	0.0003	2
bin	0.00031	0
bin	0.00032	5
bin	0.00033	1
bin	0.00034	16
bin	0.00035	0
bin	0.00036	5
bin	0.00037	0
bin	0.00038	17
bin	0.00039	0
bin	0.0004	0
bin	0.00041	5
bin	0.00042	16
bin	0.00043	1
bin	0.00044	0
bin	0.00045	5
bin	0.00046	14
bin	0.00047	2
bin	0.00048	1
bin	0.00049	5
bin	0.0005	1
bin	0.00051	15
bin	0.00052	0
bin	0.00053	4
bin	0.00054	0
bin	0.00055	18
bin	0.00056	0
bin	0.00057	0
bin	0.00058	4
bin	0.00059	0
bin	0.0006	0
bin	0.00061	0
bin	0.00062	0
bin	0.00063	0
bin	0.00064	0
bin	0.00065	0
bin	0.00066	0
bin	0.00067	0
bin	0.00068	0
bin	0.00069	0
bin	0.0007	0
bin	0.00071	0
bin	0.00072	0
bin	0.00073	0
scalar VlanExample.host1.eth[0].macLayer.queue outgoingPackets:count 332
attr recordingmode count
attr source packetPulled
attr title "outgoing packets, count"
attr unit pk
scalar VlanExample.host1.eth[0].macLayer.queue outgoingPacketLengths:sum 913328
attr interpolationmode none
attr recordingmode sum
attr source packetLength(packetPulled)
attr title "outgoing packet lengths, sum"
attr unit b
statistic VlanExample.host1.eth[0].macLayer.queue outgoingPacketLengths:histogram
field count 332
field mean 2750.9879518072
field stddev 2136.6880178573
field min 512
field max 4784
field sum 913328
field sqrsum 4023713536
attr interpolationmode none
attr recordingmode histogram
attr source packetLength(packetPulled)
attr title "outgoing packet lengths"
attr unit b
bin	-inf	0
bin	0	0
bin	100	0
bin	200	0
bin	300	0
bin	400	0
bin	500	158
bin	600	0
bin	700	0
bin	800	0
bin	900	0
bin	1000	0
bin	1100	0
bin	1200	0
bin	1300	0
bin	1400	0
bin	1500	0
bin	1600	0
bin	1700	0
bin	1800	0
bin	1900	0
bin	2000	0
bin	2100	0
bin	2200	0
bin	2300	0
bin	2400	0
bin	2500	0
bin	2600	0
bin	2700	0
bin	2800	0
bin	2900	0
bin	3000	0
bin	3100	0
bin	3200	0
bin	3300	0
bin	3400	0
bin	3500	0
bin	3600	0
bin	3700	0
bin	3800	0
bin	3900	0
bin	4000	0
bin	4100	0
bin	4200	0
bin	4300	0
bin	4400	0
bin	4500	0
bin	4600	0
bin	4700	174
bin	4800	0
bin	4900	0
bin	5000	0
bin	5100	0
bin	5200	0
bin	5300	0
bin	5400	0
bin	5500	0
bin	5600	0
bin	5700	0
bin	5800	0
bin	5900	0
statistic VlanExample.host1.eth[0].macLayer.queue flowQueueingTime:histogram
field count 0
field mean -nan
field stddev nan
field min nan
field max nan
field sum 0
field sqrsum 0
attr interpolationmode none
attr recordingmode histogram
attr source queueingTime(demuxFlow(packetPulled))
attr title "flow queueing times"
attr unit s
bin	-inf	0
bin	0	0
bin	1	0
scalar VlanExample.host1.eth[0].macLayer.queue incomingPackets:count 342
attr recordingmode count
attr source packetPushStarted
attr title "incoming packets, count"
attr unit pk
scalar VlanExample.host1.eth[0].macLayer.queue incomingPacketLengths:sum 956896
attr interpolationmode none
attr recordingmode sum
attr source packetLength(packetPushStarted)
attr title "incoming packet lengths, sum"
attr unit b
statistic VlanExample.host1.eth[0].macLayer.queue incomingPacketLengths:histogram
field count 342
field mean 2797.9415204678
field stddev 2133.8059115403
field min 512
field max 4784
field sum 956896
field sqrsum 4229955584
attr interpolationmode none
attr recordingmode histogram
attr source packetLength(packetPushStarted)
attr title "incoming packet lengths"
attr unit b
bin	-inf	0
bin	0	0
bin	100	0
bin	200	0
bin	300	0
bin	400	0
bin	500	159
bin	600	0
bin	700	0
bin	800	0
bin	900	0
bin	1000	0
bin	1100	0
bin	1200	0
bin	1300	0
bin	1400	0
bin	1500	0
bin	1600	0
bin	1700	0
bin	1800	0
bin	1900	0
bin	2000	0
bin	2100	0
bin	2200	0
bin	2300	0
bin	2400	0
bin	2500	0
bin	2600	0
bin	2700	0
bin	2800	0
bin	2900	0
bin	3000	0
bin	3100	0
bin	3200	0
bin	3300	0
bin	3400	0
bin	3500	0
bin	3600	0
bin	3700	0
bin	3800	0
bin	3900	0
bin	4000	0
bin	4100	0
bin	4200	0
bin	4300	0
bin	4400	0
bin	4500	0
bin	4600	0
bin	4700	183
bin	4800	0
bin	4900	0
bin	5000	0
bin	5100	0
bin	5200	0
bin	5300	0
bin	5400	0
bin	5500	0
bin	5600	0
bin	5700	0
bin	5800	0
bin	5900	0
scalar VlanExample.host1.eth[0].macLayer.queue droppedPacketsQueueOverflow:count 0
attr interpolationmode none
attr recordingmode count
attr source packetDropReasonIsQueueOverflow(packetDropped)
attr title "dropped packets: queue overflow, count"
attr unit pk
scalar VlanExample.host1.eth[0].macLayer.queue droppedPacketLengthsQueueOverflow:sum 0
attr interpolationmode none
attr recordingmode sum
attr source packetLength(packetDropReasonIsQueueOverflow(packetDropped))
attr title "dropped packet lengths: queue overflow, sum"
attr unit b
scalar VlanExample.host1.eth[0].macLayer.server incomingPackets:count 332
attr recordingmode count
attr source packetPulled
attr title "incoming packets, count"
attr unit pk
scalar VlanExample.host1.eth[0].macLayer.server incomingPacketLengths:sum 913328
attr interpolationmode none
attr recordingmode sum
attr source packetLength(packetPulled)
attr title "incoming packet lengths, sum"
attr unit b
statistic VlanExample.host1.eth[0].macLayer.server incomingPacketLengths:histogram
field count 332
field mean 2750.9879518072
field stddev 2136.6880178573
field min 512
field max 4784
field sum 913328
field sqrsum 4023713536
attr interpolationmode none
attr recordingmode histogram
attr source packetLength(packetPulled)
attr title "incoming packet lengths"
attr unit b
bin	-inf	0
bin	0	0
bin	100	0
bin	200	0
bin	300	0
bin	400	0
bin	500	158
bin	600	0
bin	700	0
bin	800	0
bin	900	0
bin	1000	0
bin	1100	0
bin	1200	0
bin	1300	0
bin	1400	0
bin	1500	0
bin	1600	0
bin	1700	0
bin	1800	0
bin	1900	0
bin	2000	0
bin	2100	0
bin	2200	0
bin	2300	0
bin	2400	0
bin	2500	0
bin	2600	0
bin	2700	0
bin	2800	0
bin	2900	0
bin	3000	0
bin	3100	0
bin	3200	0
bin	3300	0
bin	3400	0
bin	3500	0
bin	3600	0
bin	3700	0
bin	3800	0
bin	3900	0
bin	4000	0
bin	4100	0
bin	4200	0
bin	4300	0
bin	4400	0
bin	4500	0
bin	4600	0
bin	4700	174
bin	4800	0
bin	4900	0
bin	5000	0
bin	5100	0
bin	5200	0
bin	5300	0
bin	5400	0
bin	5500	0
bin	5600	0
bin	5700	0
bin	5800	0
bin	5900	0
scalar VlanExample.host1.eth[0].macLayer.server outgoingPackets:count 332
attr recordingmode count
attr source packetPushed
attr title "outgoing packets, count"
attr unit pk
scalar VlanExample.host1.eth[0].macLayer.server outgoingPacketLengths:sum 913328
attr interpolationmode none
attr recordingmode sum
attr source packetLength(packetPushed)
attr title "outgoing packet lengths, sum"
attr unit b
statistic VlanExample.host1.eth[0].macLayer.server outgoingPacketLengths:histogram
field count 332
field mean 2750.9879518072
field stddev 2136.6880178573
field min 512
field max 4784
field sum 913328
field sqrsum 4023713536
attr interpolationmode none
attr recordingmode histogram
attr source packetLength(packetPushed)
attr title "outgoing packet lengths"
attr unit b
bin	-inf	0
bin	0	0
bin	100	0
bin	200	0
bin	300	0
bin	400	0
bin	500	158
bin	600	0
bin	700	0
bin	800	0
bin	900	0
bin	1000	0
bin	1100	0
bin	1200	0
bin	1300	0
bin	1400	0
bin	1500	0
bin	1600	0
bin	1700	0
bin	1800	0
bin	1900	0
bin	2000	0
bin	2100	0
bin	2200	0
bin	2300	0
bin	2400	0
bin	2500	0
bin	2600	0
bin	2700	0
bin	2800	0
bin	2900	0
bin	3000	0
bin	3100	0
bin	3200	0
bin	3300	0
bin	3400	0
bin	3500	0
bin	3600	0
bin	3700	0
bin	3800	0
bin	3900	0
bin	4000	0
bin	4100	0
bin	4200	0
bin	4300	0
bin	4400	0
bin	4500	0
bin	4600	0
bin	4700	174
bin	4800	0
bin	4900	0
bin	5000	0
bin	5100	0
bin	5200	0
bin	5300	0
bin	5400	0
bin	5500	0
bin	5600	0
bin	5700	0
bin	5800	0
bin	5900	0
scalar VlanExample.host1.eth[0].macLayer.outboundEmitter outgoingPackets:count 332
attr recordingmode count
attr source "merge(packetPushedOut, packetPulledOut)"
attr title "outgoing packets, count"
attr unit pk
scalar VlanExample.host1.eth[0].macLayer.outboundEmitter outgoingPacketLengths:sum 913328
attr interpolationmode none
attr recordingmode sum
attr source "packetLength(merge(packetPushedOut, packetPulledOut))"
attr title "outgoing packet lengths, sum"
attr unit b
statistic VlanExample.host1.eth[0].macLayer.outboundEmitter outgoingPacketLengths:histogram
field count 332
field mean 2750.9879518072
field stddev 2136.6880178573
field min 512
field max 4784
field sum 913328
field sqrsum 4023713536
attr interpolationmode none
attr recordingmode histogram
attr source "packetLength(merge(packetPushedOut, packetPulledOut))"
attr title "outgoing packet lengths"
attr unit b
bin	-inf	0
bin	0	0
bin	100	0
bin	200	0
bin	300	0
bin	400	0
bin	500	158
bin	600	0
bin	700	0
bin	800	0
bin	900	0
bin	1000	0
bin	1100	0
bin	1200	0
bin	1300	0
bin	1400	0
bin	1500	0
bin	1600	0
bin	1700	0
bin	1800	0
bin	1900	0
bin	2000	0
bin	2100	0
bin	2200	0
bin	2300	0
bin	2400	0
bin	2500	0
bin	2600	0
bin	2700	0
bin	2800	0
bin	2900	0
bin	3000	0
bin	3100	0
bin	3200	0
bin	3300	0
bin	3400	0
bin	3500	0
bin	3600	0
bin	3700	0
bin	3800	0
bin	3900	0
bin	4000	0
bin	4100	0
bin	4200	0
bin	4300	0
bin	4400	0
bin	4500	0
bin	4600	0
bin	4700	174
bin	4800	0
bin	4900	0
bin	5000	0
bin	5100	0
bin	5200	0
bin	5300	0
bin	5400	0
bin	5500	0
bin	5600	0
bin	5700	0
bin	5800	0
bin	5900	0
scalar VlanExample.host1.eth[0].macLayer.outboundEmitter flowOutgoingPacketLengths:sum 0
attr interpolationmode none
attr recordingmode sum
attr source "packetLength(demuxFlow(merge(packetPushedOut, packetPulledOut)))"
attr title "flow specific outgoing packet lengths, sum"
attr unit b
statistic VlanExample.host1.eth[0].macLayer.outboundEmitter flowOutgoingPacketLengths:histogram
field count 0
field mean -nan
field stddev nan
field min nan
field max nan
field sum 0
field sqrsum 0
attr interpolationmode none
attr recordingmode histogram
attr source "packetLength(demuxFlow(merge(packetPushedOut, packetPulledOut)))"
attr title "flow specific outgoing packet lengths"
attr unit b
bin	-inf	0
bin	0	0
bin	1	0
scalar VlanExample.host1.eth[0].macLayer.outboundEmitter incomingPackets:count 332
attr recordingmode count
attr source "merge(packetPushedIn, packetPulledIn)"
attr title "incoming packets, count"
attr unit pk
scalar VlanExample.host1.eth[0].macLayer.outboundEmitter incomingPacketLengths:sum 913328
attr interpolationmode none
attr recordingmode sum
attr source "packetLength(merge(packetPushedIn, packetPulledIn))"
attr title "incoming packet lengths, sum"
attr unit b
statistic VlanExample.host1.eth[0].macLayer.outboundEmitter incomingPacketLengths:histogram
field count 332
field mean 2750.9879518072
field stddev 2136.6880178573
field min 512
field max 4784
field sum 913328
field sqrsum 4023713536
attr interpolationmode none
attr recordingmode histogram
attr source "packetLength(merge(packetPushedIn, packetPulledIn))"
attr title "incoming packet lengths"
attr unit b
bin	-inf	0
bin	0	0
bin	100	0
bin	200	0
bin	300	0
bin	400	0
bin	500	158
bin	600	0
bin	700	0
bin	800	0
bin	900	0
bin	1000	0
bin	1100	0
bin	1200	0
bin	1300	0
bin	1400	0
bin	1500	0
bin	1600	0
bin	1700	0
bin	1800	0
bin	1900	0
bin	2000	0
bin	2100	0
bin	2200	0
bin	2300	0
bin	2400	0
bin	2500	0
bin	2600	0
bin	2700	0
bin	2800	0
bin	2900	0
bin	3000	0
bin	3100	0
bin	3200	0
bin	3300	0
bin	3400	0
bin	3500	0
bin	3600	0
bin	3700	0
bin	3800	0
bin	3900	0
bin	4000	0
bin	4100	0
bin	4200	0
bin	4300	0
bin	4400	0
bin	4500	0
bin	4600	0
bin	4700	174
bin	4800	0
bin	4900	0
bin	5000	0
bin	5100	0
bin	5200	0
bin	5300	0
bin	5400	0
bin	5500	0
bin	5600	0
bin	5700	0
bin	5800	0
bin	5900	0
scalar VlanExample.host1.eth[0].macLayer.outboundEmitter flowIncomingPacketLengths:sum 0
attr interpolationmode none
attr recordingmode sum
attr source "packetLength(demuxFlow(merge(packetPushedIn, packetPulledIn)))"
attr title "flow specific incoming packet lengths, sum"
attr unit b
statistic VlanExample.host1.eth[0].macLayer.outboundEmitter flowIncomingPacketLengths:histogram
field count 0
field mean -nan
field stddev nan
field min nan
field max nan
field sum 0
field sqrsum 0
attr interpolationmode none
attr recordingmode histogram
attr source "packetLength(demuxFlow(merge(packetPushedIn, packetPulledIn)))"
attr title "flow specific incoming packet lengths"
attr unit b
bin	-inf	0
bin	0	0
bin	1	0
scalar VlanExample.host1.eth[0].macLayer.fcsChecker outgoingPackets:count 327
attr recordingmode count
attr source "merge(packetPushedOut, packetPulledOut)"
attr title "outgoing packets, count"
attr unit pk
scalar VlanExample.host1.eth[0].macLayer.fcsChecker outgoingPacketLengths:sum 828864
attr interpolationmode none
attr recordingmode sum
attr source "packetLength(merge(packetPushedOut, packetPulledOut))"
attr title "outgoing packet lengths, sum"
attr unit b
statistic VlanExample.host1.eth[0].macLayer.fcsChecker outgoingPacketLengths:histogram
field count 327
field mean 2534.752293578
field stddev 2121.0139973851
field min 512
field max 4752
field sum 828864
field sqrsum 3567541248
attr interpolationmode none
attr recordingmode histogram
attr source "packetLength(merge(packetPushedOut, packetPulledOut))"
attr title "outgoing packet lengths"
attr unit b
bin	-inf	0
bin	0	0
bin	100	0
bin	200	0
bin	300	0
bin	400	0
bin	500	171
bin	600	0
bin	700	0
bin	800	0
bin	900	0
bin	1000	0
bin	1100	0
bin	1200	0
bin	1300	0
bin	1400	0
bin	1500	0
bin	1600	0
bin	1700	0
bin	1800	0
bin	1900	0
bin	2000	0
bin	2100	0
bin	2200	0
bin	2300	0
bin	2400	0
bin	2500	0
bin	2600	0
bin	2700	0
bin	2800	0
bin	2900	0
bin	3000	0
bin	3100	0
bin	3200	0
bin	3300	0
bin	3400	0
bin	3500	0
bin	3600	0
bin	3700	0
bin	3800	0
bin	3900	0
bin	4000	0
bin	4100	0
bin	4200	0
bin	4300	0
bin	4400	0
bin	4500	0
bin	4600	0
bin	4700	156
bin	4800	0
bin	4900	0
bin	5000	0
bin	5100	0
bin	5200	0
bin	5300	0
bin	5400	0
bin	5500	0
bin	5600	0
bin	5700	0
bin	5800	0
bin	5900	0
scalar VlanExample.host1.eth[0].macLayer.fcsChecker flowOutgoingPacketLengths:sum 0
attr interpolationmode none
attr recordingmode sum
attr source "packetLength(demuxFlow(merge(packetPushedOut, packetPulledOut)))"
attr title "flow specific outgoing packet lengths, sum"
attr unit b
statistic VlanExample.host1.eth[0].macLayer.fcsChecker flowOutgoingPacketLengths:histogram
field count 0
field mean -nan
field stddev nan
field min nan
field max nan
field sum 0
field sqrsum 0
attr interpolationmode none
attr recordingmode histogram
attr source "packetLength(demuxFlow(merge(packetPushedOut, packetPulledOut)))"
attr title "flow specific outgoing packet lengths"
attr unit b
bin	-inf	0
bin	0	0
bin	1	0
scalar VlanExample.host1.eth[0].macLayer.fcsChecker incomingPackets:count 327
attr recordingmode count
attr source "merge(packetPushedIn, packetPulledIn)"
attr title "incoming packets, count"
attr unit pk
scalar VlanExample.host1.eth[0].macLayer.fcsChecker incomingPacketLengths:sum 828864
attr interpolationmode none
attr recordingmode sum
attr source "packetLength(merge(packetPushedIn, packetPulledIn))"
attr title "incoming packet lengths, sum"
attr unit b
statistic VlanExample.host1.eth[0].macLayer.fcsChecker incomingPacketLengths:histogram
field count 327
field mean 2534.752293578
field stddev 2121.0139973851
field min 512
field max 4752
field sum 828864
field sqrsum 3567541248
attr interpolationmode none
attr recordingmode histogram
attr source "packetLength(merge(packetPushedIn, packetPulledIn))"
attr title "incoming packet lengths"
attr unit b
bin	-inf	0
bin	0	0
bin	100	0
bin	200	0
bin	300	0
bin	400	0
bin	500	171
bin	600	0
bin	700	0
bin	800	0
bin	900	0
bin	1000	0
bin	1100	0
bin	1200	0
bin	1300	0
bin	1400	0
bin	1500	0
bin	1600	0
bin	1700	0
bin	1800	0
bin	1900	0
bin	2000	0
bin	2100	0
bin	2200	0
bin	2300	0
bin	2400	0
bin	2500	0
bin	2600	0
bin	2700	0
bin	2800	0
bin	2900	0
bin	3000	0
bin	3100	0
bin	3200	0
bin	3300	0
bin	3400	0
bin	3500	0
bin	3600	0
bin	3700	0
bin	3800	0
bin	3900	0
bin	4000	0
bin	4100	0
bin	4200	0
bin	4300	0
bin	4400	0
bin	4500	0
bin	4600	0
bin	4700	156
bin	4800	0
bin	4900	0
bin	5000	0
bin	5100	0
bin	5200	0
bin	5300	0
bin	5400	0
bin	5500	0
bin	5600	0
bin	5700	0
bin	5800	0
bin	5900	0
scalar VlanExample.host1.eth[0].macLayer.fcsChecker flowIncomingPacketLengths:sum 0
attr interpolationmode none
attr recordingmode sum
attr source "packetLength(demuxFlow(merge(packetPushedIn, packetPulledIn)))"
attr title "flow specific incoming packet lengths, sum"
attr unit b
statistic VlanExample.host1.eth[0].macLayer.fcsChecker flowIncomingPacketLengths:histogram
field count 0
field mean -nan
field stddev nan
field min nan
field max nan
field sum 0
field sqrsum 0
attr interpolationmode none
attr recordingmode histogram
attr source "packetLength(demuxFlow(merge(packetPushedIn, packetPulledIn)))"
attr title "flow specific incoming packet lengths"
attr unit b
bin	-inf	0
bin	0	0
bin	1	0
scalar VlanExample.host1.eth[0].macLayer.fcsChecker droppedPackets:count 0
attr recordingmode count
attr source packetDropped
attr title "dropped packets, count"
attr unit pk
scalar VlanExample.host1.eth[0].macLayer.fcsChecker droppedPacketLengths:sum 0
attr interpolationmode none
attr recordingmode sum
attr source packetLength(packetDropped)
attr title "dropped packet lengths, sum"
attr unit b
statistic VlanExample.host1.eth[0].macLayer.fcsChecker droppedPacketLengths:histogram
field count 0
field mean -nan
field stddev nan
field min nan
field max nan
field sum 0
field sqrsum 0
attr interpolationmode none
attr recordingmode histogram
attr source packetLength(packetDropped)
attr title "dropped packet lengths"
attr unit b
bin	-inf	0
bin	0	0
bin	1	0
scalar VlanExample.host1.eth[0].macLayer.fcsChecker flowDroppedPacketLengths:sum 0
attr interpolationmode none
attr recordingmode sum
attr source packetLength(demuxFlow(packetDropped))
attr title "flow specific dropped packet lengths, sum"
attr unit b
statistic VlanExample.host1.eth[0].macLayer.fcsChecker flowDroppedPacketLengths:histogram
field count 0
field mean -nan
field stddev nan
field min nan
field max nan
field sum 0
field sqrsum 0
attr interpolationmode none
attr recordingmode histogram
attr source packetLength(demuxFlow(packetDropped))
attr title "flow specific dropped packet lengths"
attr unit b
bin	-inf	0
bin	0	0
bin	1	0
scalar VlanExample.host1.eth[0].macLayer.inboundEmitter outgoingPackets:count 327
attr recordingmode count
attr source "merge(packetPushedOut, packetPulledOut)"
attr title "outgoing packets, count"
attr unit pk
scalar VlanExample.host1.eth[0].macLayer.inboundEmitter outgoingPacketLengths:sum 828864
attr interpolationmode none
attr recordingmode sum
attr source "packetLength(merge(packetPushedOut, packetPulledOut))"
attr title "outgoing packet lengths, sum"
attr unit b
statistic VlanExample.host1.eth[0].macLayer.inboundEmitter outgoingPacketLengths:histogram
field count 327
field mean 2534.752293578
field stddev 2121.0139973851
field min 512
field max 4752
field sum 828864
field sqrsum 3567541248
attr interpolationmode none
attr recordingmode histogram
attr source "packetLength(merge(packetPushedOut, packetPulledOut))"
attr title "outgoing packet lengths"
attr unit b
bin	-inf	0
bin	0	0
bin	100	0
bin	200	0
bin	300	0
bin	400	0
bin	500	171
bin	600	0
bin	700	0
bin	800	0
bin	900	0
bin	1000	0
bin	1100	0
bin	1200	0
bin	1300	0
bin	1400	0
bin	1500	0
bin	1600	0
bin	1700	0
bin	1800	0
bin	1900	0
bin	2000	0
bin	2100	0
bin	2200	0
bin	2300	0
bin	2400	0
bin	2500	0
bin	2600	0
bin	2700	0
bin	2800	0
bin	2900	0
bin	3000	0
bin	3100	0
bin	3200	0
bin	3300	0
bin	3400	0
bin	3500	0
bin	3600	0
bin	3700	0
bin	3800	0
bin	3900	0
bin	4000	0
bin	4100	0
bin	4200	0
bin	4300	0
bin	4400	0
bin	4500	0
bin	4600	0
bin	4700	156
bin	4800	0
bin	4900	0
bin	5000	0
bin	5100	0
bin	5200	0
bin	5300	0
bin	5400	0
bin	5500	0
bin	5600	0
bin	5700	0
bin	5800	0
bin	5900	0
scalar VlanExample.host1.eth[0].macLayer.inboundEmitter flowOutgoingPacketLengths:sum 0
attr interpolationmode none
attr recordingmode sum
attr source "packetLength(demuxFlow(merge(packetPushedOut, packetPulledOut)))"
attr title "flow specific outgoing packet lengths, sum"
attr unit b
statistic VlanExample.host1.eth[0].macLayer.inboundEmitter flowOutgoingPacketLengths:histogram
field count 0
field mean -nan
field stddev nan
field min nan
field max nan
field sum 0
field sqrsum 0
attr interpolationmode none
attr recordingmode histogram
attr source "packetLength(demuxFlow(merge(packetPushedOut, packetPulledOut)))"
attr title "flow specific outgoing packet lengths"
attr unit b
bin	-inf	0
bin	0	0
bin	1	0
scalar VlanExample.host1.eth[0].macLayer.inboundEmitter incomingPackets:count 327
attr recordingmode count
attr source "merge(packetPushedIn, packetPulledIn)"
attr title "incoming packets, count"
attr unit pk
scalar VlanExample.host1.eth[0].macLayer.inboundEmitter incomingPacketLengths:sum 828864
attr interpolationmode none
attr recordingmode sum
attr source "packetLength(merge(packetPushedIn, packetPulledIn))"
attr title "incoming packet lengths, sum"
attr unit b
statistic VlanExample.host1.eth[0].macLayer.inboundEmitter incomingPacketLengths:histogram
field count 327
field mean 2534.752293578
field stddev 2121.0139973851
field min 512
field max 4752
field sum 828864
field sqrsum 3567541248
attr interpolationmode none
attr recordingmode histogram
attr source "packetLength(merge(packetPushedIn, packetPulledIn))"
attr title "incoming packet lengths"
attr unit b
bin	-inf	0
bin	0	0
bin	100	0
bin	200	0
bin	300	0
bin	400	0
bin	500	171
bin	600	0
bin	700	0
bin	800	0
bin	900	0
bin	1000	0
bin	1100	0
bin	1200	0
bin	1300	0
bin	1400	0
bin	1500	0
bin	1600	0
bin	1700	0
bin	1800	0
bin	1900	0
bin	2000	0
bin	2100	0
bin	2200	0
bin	2300	0
bin	2400	0
bin	2500	0
bin	2600	0
bin	2700	0
bin	2800	0
bin	2900	0
bin	3000	0
bin	3100	0
bin	3200	0
bin	3300	0
bin	3400	0
bin	3500	0
bin	3600	0
bin	3700	0
bin	3800	0
bin	3900	0
bin	4000	0
bin	4100	0
bin	4200	0
bin	4300	0
bin	4400	0
bin	4500	0
bin	4600	0
bin	4700	156
bin	4800	0
bin	4900	0
bin	5000	0
bin	5100	0
bin	5200	0
bin	5300	0
bin	5400	0
bin	5500	0
bin	5600	0
bin	5700	0
bin	5800	0
bin	5900	0
scalar VlanExample.host1.eth[0].macLayer.inboundEmitter flowIncomingPacketLengths:sum 0
[...]
bin	4700	0
bin	4800	171
bin	4900	0
bin	5000	0
bin	5100	0
bin	5200	0
bin	5300	0
bin	5400	0
bin	5500	0
bin	5600	0
bin	5700	0
bin	5800	0
bin	5900	0
scalar VlanExample.host2.eth[0].phyLayer.inboundEmitter flowOutgoingPacketLengths:sum 0
attr interpolationmode none
attr recordingmode sum
attr source "packetLength(demuxFlow(merge(packetPushedOut, packetPulledOut)))"
attr title "flow specific outgoing packet lengths, sum"
attr unit b
statistic VlanExample.host2.eth[0].phyLayer.inboundEmitter flowOutgoingPacketLengths:histogram
field count 0
field mean -nan
field stddev nan
field min nan
field max nan
field sum 0
field sqrsum 0
attr interpolationmode none
attr recordingmode histogram
attr source "packetLength(demuxFlow(merge(packetPushedOut, packetPulledOut)))"
attr title "flow specific outgoing packet lengths"
attr unit b
bin	-inf	0
bin	0	0
bin	1	0
scalar VlanExample.host2.eth[0].phyLayer.inboundEmitter incomingPackets:count 329
attr recordingmode count
attr source "merge(packetPushedIn, packetPulledIn)"
attr title "incoming packets, count"
attr unit pk
scalar VlanExample.host2.eth[0].phyLayer.inboundEmitter incomingPacketLengths:sum 914544
attr interpolationmode none
attr recordingmode sum
attr source "packetLength(merge(packetPushedIn, packetPulledIn))"
attr title "incoming packet lengths, sum"
attr unit b
statistic VlanExample.host2.eth[0].phyLayer.inboundEmitter incomingPacketLengths:histogram
field count 329
field mean 2779.7689969605
field stddev 2121.5710688387
field min 576
field max 4816
field sum 914544
field sqrsum 4018569984
attr interpolationmode none
attr recordingmode histogram
attr source "packetLength(merge(packetPushedIn, packetPulledIn))"
attr title "incoming packet lengths"
attr unit b
bin	-inf	0
bin	0	0
bin	100	0
bin	200	0
bin	300	0
bin	400	0
bin	500	158
bin	600	0
bin	700	0
bin	800	0
bin	900	0
bin	1000	0
bin	1100	0
bin	1200	0
bin	1300	0
bin	1400	0
bin	1500	0
bin	1600	0
bin	1700	0
bin	1800	0
bin	1900	0
bin	2000	0
bin	2100	0
bin	2200	0
bin	2300	0
bin	2400	0
bin	2500	0
bin	2600	0
bin	2700	0
bin	2800	0
bin	2900	0
bin	3000	0
bin	3100	0
bin	3200	0
bin	3300	0
bin	3400	0
bin	3500	0
bin	3600	0
bin	3700	0
bin	3800	0
bin	3900	0
bin	4000	0
bin	4100	0
bin	4200	0
bin	4300	0
bin	4400	0
bin	4500	0
bin	4600	0
bin	4700	0
bin	4800	171
bin	4900	0
bin	5000	0
bin	5100	0
bin	5200	0
bin	5300	0
bin	5400	0
bin	5500	0
bin	5600	0
bin	5700	0
bin	5800	0
bin	5900	0
scalar VlanExample.host2.eth[0].phyLayer.inboundEmitter flowIncomingPacketLengths:sum 0
attr interpolationmode none
attr recordingmode sum
attr source "packetLength(demuxFlow(merge(packetPushedIn, packetPulledIn)))"
attr title "flow specific incoming packet lengths, sum"
attr unit b
statistic VlanExample.host2.eth[0].phyLayer.inboundEmitter flowIncomingPacketLengths:histogram
field count 0
field mean -nan
field stddev nan
field min nan
field max nan
field sum 0
field sqrsum 0
attr interpolationmode none
attr recordingmode histogram
attr source "packetLength(demuxFlow(merge(packetPushedIn, packetPulledIn)))"
attr title "flow specific incoming packet lengths"
attr unit b
bin	-inf	0
bin	0	0
bin	1	0
statistic VlanExample.host2.eth[0].phyLayer.receiver throughput:histogram
field count 4
field mean 92505513.326414
field stddev 4944983.8390838
field min 85110497.473247
field max 95306139.403506
field sum 370022053.30566
field sqrsum 3.430243857864e+16
attr interpolationmode linear
attr recordingmode histogram
attr source throughput(receptionEnded)
attr title throughput
attr unit bps
bin	-inf	0
bin	82400000	0
bin	82600000	0
bin	82800000	0
bin	83000000	0
bin	83200000	0
bin	83400000	0
bin	83600000	0
bin	83800000	0
bin	84000000	0
bin	84200000	0
bin	84400000	0
bin	84600000	0
bin	84800000	0
bin	85000000	1
bin	85200000	0
bin	85400000	0
bin	85600000	0
bin	85800000	0
bin	86000000	0
bin	86200000	0
bin	86400000	0
bin	86600000	0
bin	86800000	0
bin	87000000	0
bin	87200000	0
bin	87400000	0
bin	87600000	0
bin	87800000	0
bin	88000000	0
bin	88200000	0
bin	88400000	0
bin	88600000	0
bin	88800000	0
bin	89000000	0
bin	89200000	0
bin	89400000	0
bin	89600000	0
bin	89800000	0
bin	90000000	0
bin	90200000	0
bin	90400000	0
bin	90600000	0
bin	90800000	0
bin	91000000	0
bin	91200000	0
bin	91400000	0
bin	91600000	0
bin	91800000	0
bin	92000000	0
bin	92200000	0
bin	92400000	0
bin	92600000	0
bin	92800000	0
bin	93000000	0
bin	93200000	0
bin	93400000	0
bin	93600000	0
bin	93800000	0
bin	94000000	0
bin	94200000	0
bin	94400000	1
bin	94600000	0
bin	94800000	0
bin	95000000	1
bin	95200000	1
bin	95400000	0
bin	95600000	0
bin	95800000	0
bin	96000000	0
bin	96200000	0
bin	96400000	0
bin	96600000	0
bin	96800000	0
bin	97000000	0
bin	97200000	0
bin	97400000	0
bin	97600000	0
bin	97800000	0
bin	98000000	0
statistic VlanExample.host2.eth[0].phyLayer.receiver receptionTime:histogram
field count 329
field mean 2.7797689969605e-05
field stddev 2.1215710688387e-05
field min 5.76e-06
field max 4.816e-05
field sum 0.00914544
field sqrsum 4.018569984e-07
attr interpolationmode none
attr recordingmode histogram
attr source packetDuration(receptionEnded)
attr title "reception time"
attr unit s
bin	-inf	0
bin	0	0
bin	1e-06	0
bin	2e-06	0
bin	3e-06	0
bin	4e-06	0
bin	5e-06	158
bin	6e-06	0
bin	7e-06	0
bin	8e-06	0
bin	9e-06	0
bin	1e-05	0
bin	1.1e-05	0
bin	1.2e-05	0
bin	1.3e-05	0
bin	1.4e-05	0
bin	1.5e-05	0
bin	1.6e-05	0
bin	1.7e-05	0
bin	1.8e-05	0
bin	1.9e-05	0
bin	2e-05	0
bin	2.1e-05	0
bin	2.2e-05	0
bin	2.3e-05	0
bin	2.4e-05	0
bin	2.5e-05	0
bin	2.6e-05	0
bin	2.7e-05	0
bin	2.8e-05	0
bin	2.9e-05	0
bin	3e-05	0
bin	3.1e-05	0
bin	3.2e-05	0
bin	3.3e-05	0
bin	3.4e-05	0
bin	3.5e-05	0
bin	3.6e-05	0
bin	3.7e-05	0
bin	3.8e-05	0
bin	3.9e-05	0
bin	4e-05	0
bin	4.1e-05	0
bin	4.2e-05	0
bin	4.3e-05	0
bin	4.4e-05	0
bin	4.5e-05	0
bin	4.6e-05	0
bin	4.7e-05	0
bin	4.8e-05	171
bin	4.9e-05	0
bin	5e-05	0
bin	5.1e-05	0
bin	5.2e-05	0
bin	5.3e-05	0
bin	5.4e-05	0
bin	5.5e-05	0
bin	5.6e-05	0
bin	5.7e-05	0
bin	5.8e-05	0
bin	5.9e-05	0
statistic VlanExample.host2.eth[0].phyLayer.receiver flowReceptionTime:histogram
field count 0
field mean -nan
field stddev nan
field min nan
field max nan
field sum 0
field sqrsum 0
attr interpolationmode none
attr recordingmode histogram
attr source packetDuration(demuxFlow(receptionEnded))
attr title "flow reception time"
attr unit s
bin	-inf	0
bin	0	0
bin	1	0
scalar VlanExample.host2.eth[0] packetDropInterfaceDown:count 0
attr interpolationmode none
attr recordingmode count
attr source packetDropReasonIsInterfaceDown(packetDropped)
attr title "packet drops: interface down, count"
scalar VlanExample.host2.eth[0] packetDropInterfaceDown:sum(packetBytes) 0
attr interpolationmode none
attr recordingmode sum(packetBytes)
attr source packetDropReasonIsInterfaceDown(packetDropped)
attr title "packet drops: interface down, sum(packetBytes)"
scalar VlanExample.host2.eth[0] packetDropNoCarrier:count 0
attr interpolationmode none
attr recordingmode count
attr source packetDropReasonIsNoCarrier(packetDropped)
attr title "packet drops: no carrier, count"
scalar VlanExample.host2.eth[0] packetDropNoCarrier:sum(packetBytes) 0
attr interpolationmode none
attr recordingmode sum(packetBytes)
attr source packetDropReasonIsNoCarrier(packetDropped)
attr title "packet drops: no carrier, sum(packetBytes)"
scalar VlanExample.host2.ipv4.ip packetDropAddressResolutionFailed:count 0
attr interpolationmode none
attr recordingmode count
attr source packetDropReasonIsAddressResolutionFailed(packetDropped)
attr title "packet drop: address resolution failed, count"
scalar VlanExample.host2.ipv4.ip packetDropAddressResolutionFailed:sum(packetBytes) 0
attr interpolationmode none
attr recordingmode sum(packetBytes)
attr source packetDropReasonIsAddressResolutionFailed(packetDropped)
attr title "packet drop: address resolution failed, sum(packetBytes)"
scalar VlanExample.host2.ipv4.ip packetDropHopLimitReached:count 0
attr interpolationmode none
attr recordingmode count
attr source packetDropReasonIsHopLimitReached(packetDropped)
attr title "packet drop: hop limit reached, count"
scalar VlanExample.host2.ipv4.ip packetDropHopLimitReached:sum(packetBytes) 0
attr interpolationmode none
attr recordingmode sum(packetBytes)
attr source packetDropReasonIsHopLimitReached(packetDropped)
attr title "packet drop: hop limit reached, sum(packetBytes)"
scalar VlanExample.host2.ipv4.ip packetDropForwardingDisabled:count 0
attr interpolationmode none
attr recordingmode count
attr source packetDropReasonIsForwardingDisabled(packetDropped)
attr title "packet drop: forwarding disabled, count"
scalar VlanExample.host2.ipv4.ip packetDropForwardingDisabled:sum(packetBytes) 0
attr interpolationmode none
attr recordingmode sum(packetBytes)
attr source packetDropReasonIsForwardingDisabled(packetDropped)
attr title "packet drop: forwarding disabled, sum(packetBytes)"
scalar VlanExample.host2.ipv4.ip packetDropLifetimeExpired:count 0
attr interpolationmode none
attr recordingmode count
attr source packetDropReasonIsLifetimeExpired(packetDropped)
attr title "packet drop: lifetime expired, count"
scalar VlanExample.host2.ipv4.ip packetDropLifetimeExpired:sum(packetBytes) 0
attr interpolationmode none
attr recordingmode sum(packetBytes)
attr source packetDropReasonIsLifetimeExpired(packetDropped)
attr title "packet drop: lifetime expired, sum(packetBytes)"
scalar VlanExample.host2.ipv4.ip packetDropNoInterfaceFound:count 0
attr interpolationmode none
attr recordingmode count
attr source packetDropReasonIsNoInterfaceFound(packetDropped)
attr title "packet drop: no interface found, count"
scalar VlanExample.host2.ipv4.ip packetDropNoInterfaceFound:sum(packetBytes) 0
attr interpolationmode none
attr recordingmode sum(packetBytes)
attr source packetDropReasonIsNoInterfaceFound(packetDropped)
attr title "packet drop: no interface found, sum(packetBytes)"
scalar VlanExample.host2.ipv4.ip packetDropNoRouteFound:count 0
attr interpolationmode none
attr recordingmode count
attr source packetDropReasonIsNoRouteFound(packetDropped)
attr title "packet drop: no route found, count"
scalar VlanExample.host2.ipv4.ip packetDropNoRouteFound:sum(packetBytes) 0
attr interpolationmode none
attr recordingmode sum(packetBytes)
attr source packetDropReasonIsNoRouteFound(packetDropped)
attr title "packet drop: no route found, sum(packetBytes)"
scalar VlanExample.host2.ipv4.ip packetDropUndefined:count 0
attr interpolationmode none
attr recordingmode count
attr source packetDropReasonIsUndefined(packetDropped)
attr title "packet drop: undefined, count"
scalar VlanExample.host2.ipv4.ip packetDropUndefined:sum(packetBytes) 0
attr interpolationmode none
attr recordingmode sum(packetBytes)
attr source packetDropReasonIsUndefined(packetDropped)
attr title "packet drop: undefined, sum(packetBytes)"
scalar VlanExample.host2.ipv4.arp arpResolutionFailed:count 0
attr recordingmode count
attr title "ARP failed resolutions, count"
scalar VlanExample.host2.ipv4.arp arpResolutionCompleted:count 1
attr recordingmode count
attr title "ARP completed resolutions, count"
scalar VlanExample.host2.ipv4.arp arpResolutionInitiated:count 0
attr recordingmode count
attr title "ARP initiated resolutions, count"
scalar VlanExample.host2.ipv4.arp arpReplySent:count 1
attr recordingmode count
attr source arpReplySent
attr title "ARP replies sent, count"
scalar VlanExample.host2.ipv4.arp arpReplySent:sum(packetBytes) 28
attr recordingmode sum(packetBytes)
attr source arpReplySent
attr title "ARP replies sent, sum(packetBytes)"
scalar VlanExample.host2.ipv4.arp arpRequestSent:count 0
attr recordingmode count
attr source arpRequestSent
attr title "ARP request sent, count"
scalar VlanExample.host2.ipv4.arp arpRequestSent:sum(packetBytes) 0
attr recordingmode sum(packetBytes)
attr source arpRequestSent
attr title "ARP request sent, sum(packetBytes)"
scalar VlanExample.host2.udp packetReceived:count 0
attr interpolationmode none
attr recordingmode count
attr source packetReceived
attr title "packets received, count"
scalar VlanExample.host2.udp packetReceived:sum(packetBytes) 0
attr interpolationmode none
attr recordingmode sum(packetBytes)
attr source packetReceived
attr title "packets received, sum(packetBytes)"
scalar VlanExample.host2.udp packetSent:count 0
attr interpolationmode none
attr recordingmode count
attr source packetSent
attr title "packets sent, count"
scalar VlanExample.host2.udp packetSent:sum(packetBytes) 0
attr interpolationmode none
attr recordingmode sum(packetBytes)
attr source packetSent
attr title "packets sent, sum(packetBytes)"
scalar VlanExample.host2.udp passedUpPk:count 0
attr interpolationmode none
attr recordingmode count
attr source packetSentToUpper
attr title "packets passed up, count"
scalar VlanExample.host2.udp droppedPkWrongPort:count 0
attr interpolationmode none
attr recordingmode count
attr source packetDropReasonIsNoPortFound(packetDropped)
attr title "packets dropped (wrong port), count"
scalar VlanExample.host2.udp droppedPkBadChecksum:count 0
attr interpolationmode none
attr recordingmode count
attr source packetDropReasonIsIncorrectlyReceived(packetDropped)
attr title "packets dropped (checksum error), count"
scalar VlanExample.host2.app[0].thread_3 packetReceived:count 171
attr interpolationmode none
attr recordingmode count
attr source packetReceived
attr title "packets received, count"
scalar VlanExample.host2.app[0].thread_3 packetReceived:sum(packetBytes) 91656
attr interpolationmode none
attr recordingmode sum(packetBytes)
attr source packetReceived
attr title "packets received, sum(packetBytes)"
statistic VlanExample.host2.app[0].thread_3 endToEndDelay:histogram
field count 171
field mean 0.005062975497076
field stddev 0.0028065943878432
field min 0.00015199
field max 0.00992273
field sum 0.86576881
field sqrsum 0.0057224515210011
attr interpolationmode none
attr recordingmode histogram
attr source dataAge(packetReceived)
attr title "end-to-end delay"
attr unit s
bin	-inf	0
bin	0	1
bin	0.0002	2
bin	0.0004	3
bin	0.0006	3
bin	0.0008	4
bin	0.001	4
bin	0.0012	4
bin	0.0014	4
bin	0.0016	4
bin	0.0018	3
bin	0.002	4
bin	0.0022	4
bin	0.0024	3
bin	0.0026	2
bin	0.0028	4
bin	0.003	4
bin	0.0032	4
bin	0.0034	2
bin	0.0036	4
bin	0.0038	4
bin	0.004	4
bin	0.0042	2
bin	0.0044	4
bin	0.0046	4
bin	0.0048	4
bin	0.005	2
bin	0.0052	4
bin	0.0054	5
bin	0.0056	3
bin	0.0058	2
bin	0.006	4
bin	0.0062	4
bin	0.0064	4
bin	0.0066	3
bin	0.0068	4
bin	0.007	4
bin	0.0072	3
bin	0.0074	3
bin	0.0076	4
bin	0.0078	4
bin	0.008	3
bin	0.0082	3
bin	0.0084	4
bin	0.0086	4
bin	0.0088	3
bin	0.009	3
bin	0.0092	4
bin	0.0094	4
bin	0.0096	3
bin	0.0098	2
bin	0.01	0
bin	0.0102	0
bin	0.0104	0
bin	0.0106	0
bin	0.0108	0
bin	0.011	0
bin	0.0112	0
bin	0.0114	0
bin	0.0116	0
bin	0.0118	0
bin	0.012	0
bin	0.0122	0
bin	0.0124	0
statistic VlanExample.host2.app[0].thread_3 endToEndDelay:weightedHistogram
field count 171
field mean 0.005062975497076
field stddev 0.0028065943878432
field min 0.00015199
field max 0.00992273
field weights 733248
field weightedSum 3712.41665728
field sqrSumWeights 3144167424
field weightedSqrSum 24.537872122053
attr interpolationmode none
attr recordingmode weightedHistogram
attr source dataAge(packetReceived)
attr title "end-to-end delay, weightedHistogram"
attr unit s
bin	-inf	0
bin	0	4288
bin	0.0002	8576
bin	0.0004	12864
bin	0.0006	12864
bin	0.0008	17152
bin	0.001	17152
bin	0.0012	17152
bin	0.0014	17152
bin	0.0016	17152
bin	0.0018	12864
bin	0.002	17152
bin	0.0022	17152
bin	0.0024	12864
bin	0.0026	8576
bin	0.0028	17152
bin	0.003	17152
bin	0.0032	17152
bin	0.0034	8576
bin	0.0036	17152
bin	0.0038	17152
bin	0.004	17152
bin	0.0042	8576
bin	0.0044	17152
bin	0.0046	17152
bin	0.0048	17152
bin	0.005	8576
bin	0.0052	17152
bin	0.0054	21440
bin	0.0056	12864
bin	0.0058	8576
bin	0.006	17152
bin	0.0062	17152
bin	0.0064	17152
bin	0.0066	12864
bin	0.0068	17152
bin	0.007	17152
bin	0.0072	12864
bin	0.0074	12864
bin	0.0076	17152
bin	0.0078	17152
bin	0.008	12864
bin	0.0082	12864
bin	0.0084	17152
bin	0.0086	17152
bin	0.0088	12864
bin	0.009	12864
bin	0.0092	17152
bin	0.0094	17152
bin	0.0096	12864
bin	0.0098	8576
bin	0.01	0
bin	0.0102	0
bin	0.0104	0
bin	0.0106	0
bin	0.0108	0
bin	0.011	0
bin	0.0112	0
bin	0.0114	0
bin	0.0116	0
bin	0.0118	0
bin	0.012	0
bin	0.0122	0
bin	0.0124	0
scalar VlanExample.host2.app[0].thread_3 packetSent:count 171
attr interpolationmode none
attr recordingmode count
attr source packetSent
attr title "packets sent, count"
scalar VlanExample.host2.app[0].thread_3 packetSent:sum(packetBytes) 91656
attr interpolationmode none
attr recordingmode sum(packetBytes)
attr source packetSent
attr title "packets sent, sum(packetBytes)"
scalar VlanExample.host2.app[0] bytesRcvd 91656
scalar VlanExample.host2.app[0] bytesSent 91656
scalar VlanExample.host2.app[0] packetReceived:count 171
attr interpolationmode none
attr recordingmode count
attr source packetReceived
attr title "packets received, count"
scalar VlanExample.host2.app[0] packetReceived:sum(packetBytes) 91656
attr interpolationmode none
attr recordingmode sum(packetBytes)
attr source packetReceived
attr title "packets received, sum(packetBytes)"
statistic VlanExample.host2.app[0] endToEndDelay:histogram
field count 171
field mean 0.005062975497076
field stddev 0.0028065943878432
field min 0.00015199
field max 0.00992273
field sum 0.86576881
field sqrsum 0.0057224515210011
attr interpolationmode none
attr recordingmode histogram
attr source dataAge(packetReceived)
attr title "end-to-end delay"
attr unit s
bin	-inf	0
bin	0	1
bin	0.0002	2
bin	0.0004	3
bin	0.0006	3
bin	0.0008	4
bin	0.001	4
bin	0.0012	4
bin	0.0014	4
bin	0.0016	4
bin	0.0018	3
bin	0.002	4
bin	0.0022	4
bin	0.0024	3
bin	0.0026	2
bin	0.0028	4
bin	0.003	4
bin	0.0032	4
bin	0.0034	2
bin	0.0036	4
bin	0.0038	4
bin	0.004	4
bin	0.0042	2
bin	0.0044	4
bin	0.0046	4
bin	0.0048	4
bin	0.005	2
bin	0.0052	4
bin	0.0054	5
bin	0.0056	3
bin	0.0058	2
bin	0.006	4
bin	0.0062	4
bin	0.0064	4
bin	0.0066	3
bin	0.0068	4
bin	0.007	4
bin	0.0072	3
bin	0.0074	3
bin	0.0076	4
bin	0.0078	4
bin	0.008	3
bin	0.0082	3
bin	0.0084	4
bin	0.0086	4
bin	0.0088	3
bin	0.009	3
bin	0.0092	4
bin	0.0094	4
bin	0.0096	3
bin	0.0098	2
bin	0.01	0
bin	0.0102	0
bin	0.0104	0
bin	0.0106	0
bin	0.0108	0
bin	0.011	0
bin	0.0112	0
bin	0.0114	0
bin	0.0116	0
bin	0.0118	0
bin	0.012	0
bin	0.0122	0
bin	0.0124	0
statistic VlanExample.host2.app[0] endToEndDelay:weightedHistogram
field count 171
field mean 0.005062975497076
field stddev 0.0028065943878432
field min 0.00015199
field max 0.00992273
field weights 733248
field weightedSum 3712.41665728
field sqrSumWeights 3144167424
field weightedSqrSum 24.537872122053
attr interpolationmode none
attr recordingmode weightedHistogram
attr source dataAge(packetReceived)
attr title "end-to-end delay, weightedHistogram"
attr unit s
bin	-inf	0
bin	0	4288
bin	0.0002	8576
bin	0.0004	12864
bin	0.0006	12864
bin	0.0008	17152
bin	0.001	17152
bin	0.0012	17152
bin	0.0014	17152
bin	0.0016	17152
bin	0.0018	12864
bin	0.002	17152
bin	0.0022	17152
bin	0.0024	12864
bin	0.0026	8576
bin	0.0028	17152
bin	0.003	17152
bin	0.0032	17152
bin	0.0034	8576
bin	0.0036	17152
bin	0.0038	17152
bin	0.004	17152
bin	0.0042	8576
bin	0.0044	17152
bin	0.0046	17152
bin	0.0048	17152
bin	0.005	8576
bin	0.0052	17152
bin	0.0054	21440
bin	0.0056	12864
bin	0.0058	8576
bin	0.006	17152
bin	0.0062	17152
bin	0.0064	17152
bin	0.0066	12864
bin	0.0068	17152
bin	0.007	17152
bin	0.0072	12864
bin	0.0074	12864
bin	0.0076	17152
bin	0.0078	17152
bin	0.008	12864
bin	0.0082	12864
bin	0.0084	17152
bin	0.0086	17152
bin	0.0088	12864
bin	0.009	12864
bin	0.0092	17152
bin	0.0094	17152
bin	0.0096	12864
bin	0.0098	8576
bin	0.01	0
bin	0.0102	0
bin	0.0104	0
bin	0.0106	0
bin	0.0108	0
bin	0.011	0
bin	0.0112	0
bin	0.0114	0
bin	0.0116	0
bin	0.0118	0
bin	0.012	0
bin	0.0122	0
bin	0.0124	0
scalar VlanExample.host2.app[0] packetSent:count 171
attr interpolationmode none
attr recordingmode count
attr source packetSent
attr title "packets sent, count"
scalar VlanExample.host2.app[0] packetSent:sum(packetBytes) 91656
attr interpolationmode none
attr recordingmode sum(packetBytes)
attr source packetSent
attr title "packets sent, sum(packetBytes)"

