version 3
run MultipleConnections-0-20250108-11:37:14-14229
attr configname MultipleConnections
attr datetime 20250108-11:37:14
attr datetimef 20250108-113714
attr experiment MultipleConnections
attr inifile omnetpp.ini
attr iterationvars ""
attr iterationvarsd ""
attr iterationvarsf ""
attr measurement ""
attr network TransportConnectionVisualizationMultipleConnectionsShowcase
attr processid 14229
attr repetition 0
attr replication #0
attr resultdir results
attr runnumber 0
attr seedset 0
config **.param-recording false
config image-path /home/levy/workspace/inet/images
config output-scalar-file results/omnetpp.ini-MultipleConnections-#0.sca
config output-vector-file results/omnetpp.ini-MultipleConnections-#0.vec
config sim-time-limit 2s
config sim-time-limit 2s
config network TransportConnectionVisualizationMultipleConnectionsShowcase
config description "2. Advanced features of the visualization"
config *.host1.numApps 3
config *.host1.app[*].typename TcpSessionApp
config *.host1.app[*].connectAddress "\"server\""
config *.host1.app[*].active true
config *.host1.app[0..1].connectPort 80
config *.host1.app[0..1].sendBytes 1MiB
config *.host1.app[2].connectPort 22
config *.host1.app[2].sendBytes 100KiB
config *.host1.app[*].tClose 0s
config *.host1.app[*].tOpen 0s
config *.host1.app[*].tSend 0s
config *.host2.numApps 2
config *.host2.app[*].typename TcpSessionApp
config *.host2.app[*].connectAddress "\"server\""
config *.host2.app[*].active true
config *.host2.app[0].connectPort 80
config *.host2.app[0].sendBytes 1MiB
config *.host2.app[*].tClose 0s
config *.host2.app[*].tOpen 0s
config *.host2.app[*].tSend 0s
config *.host2.app[1].connectPort 22
config *.host2.app[1].sendBytes 100KiB
config *.server.numApps 2
config *.server.app[*].typename TcpSinkApp
config *.server.app[0].localPort 80
config *.server.app[1].localPort 22
config *.visualizer.transportConnectionVisualizer.displayTransportConnections true
config *.visualizer.transportConnectionVisualizer.destinationPortFilter "\"80\""
config *.visualizer.transportConnectionVisualizer.placementHint "\"topCenter\""

scalar TransportConnectionVisualizationMultipleConnectionsShowcase.host1.ethernet pauseSent:count 0
scalar TransportConnectionVisualizationMultipleConnectionsShowcase.host1.ethernet pauseSent:sum 0
scalar TransportConnectionVisualizationMultipleConnectionsShowcase.host1.ethernet decapPk:count 4114
scalar TransportConnectionVisualizationMultipleConnectionsShowcase.host1.ethernet decapPk:sum(packetBytes) 189244
scalar TransportConnectionVisualizationMultipleConnectionsShowcase.host1.ethernet encapPk:count 4116
scalar TransportConnectionVisualizationMultipleConnectionsShowcase.host1.ethernet encapPk:sum(packetBytes) 2364192
scalar TransportConnectionVisualizationMultipleConnectionsShowcase.host1.lo[0].lo rcvdPkFromHl:count 0
scalar TransportConnectionVisualizationMultipleConnectionsShowcase.host1.lo[0].lo rcvdPkFromHl:sum(packetBytes) 0
scalar TransportConnectionVisualizationMultipleConnectionsShowcase.host1.lo[0].lo passedUpPk:count 0
scalar TransportConnectionVisualizationMultipleConnectionsShowcase.host1.lo[0].lo passedUpPk:sum(packetBytes) 0
scalar TransportConnectionVisualizationMultipleConnectionsShowcase.host1.lo[0] packetDropInterfaceDown:count 0
scalar TransportConnectionVisualizationMultipleConnectionsShowcase.host1.lo[0] packetDropInterfaceDown:sum(packetBytes) 0
scalar TransportConnectionVisualizationMultipleConnectionsShowcase.host1.lo[0] packetDropNoCarrier:count 0
scalar TransportConnectionVisualizationMultipleConnectionsShowcase.host1.lo[0] packetDropNoCarrier:sum(packetBytes) 0
scalar TransportConnectionVisualizationMultipleConnectionsShowcase.host1.eth[0].queue queueLength:last 0
scalar TransportConnectionVisualizationMultipleConnectionsShowcase.host1.eth[0].queue queueLength:max 7
scalar TransportConnectionVisualizationMultipleConnectionsShowcase.host1.eth[0].queue queueLength:timeavg 0.00878136
scalar TransportConnectionVisualizationMultipleConnectionsShowcase.host1.eth[0].queue queueBitLength:last 0
scalar TransportConnectionVisualizationMultipleConnectionsShowcase.host1.eth[0].queue queueBitLength:max 33264
scalar TransportConnectionVisualizationMultipleConnectionsShowcase.host1.eth[0].queue queueBitLength:timeavg 41.38459008
scalar TransportConnectionVisualizationMultipleConnectionsShowcase.host1.eth[0].queue outgoingPackets:count 4116
scalar TransportConnectionVisualizationMultipleConnectionsShowcase.host1.eth[0].queue outgoingPacketLengths:sum 19506240
scalar TransportConnectionVisualizationMultipleConnectionsShowcase.host1.eth[0].queue incomingPackets:count 4116
scalar TransportConnectionVisualizationMultipleConnectionsShowcase.host1.eth[0].queue incomingPacketLengths:sum 19506240
scalar TransportConnectionVisualizationMultipleConnectionsShowcase.host1.eth[0].queue droppedPacketsQueueOverflow:count 0
scalar TransportConnectionVisualizationMultipleConnectionsShowcase.host1.eth[0].queue droppedPacketLengthsQueueOverflow:sum 0
scalar TransportConnectionVisualizationMultipleConnectionsShowcase.host1.eth[0].mac "simulated time" 2
scalar TransportConnectionVisualizationMultipleConnectionsShowcase.host1.eth[0].mac full-duplex 1
scalar TransportConnectionVisualizationMultipleConnectionsShowcase.host1.eth[0].mac "frames/sec sent" 2058
scalar TransportConnectionVisualizationMultipleConnectionsShowcase.host1.eth[0].mac "frames/sec rcvd" 2057
scalar TransportConnectionVisualizationMultipleConnectionsShowcase.host1.eth[0].mac "bits/sec sent" 9753360
scalar TransportConnectionVisualizationMultipleConnectionsShowcase.host1.eth[0].mac "bits/sec rcvd" 1053184
scalar TransportConnectionVisualizationMultipleConnectionsShowcase.host1.eth[0].mac "rx channel idle (%)" 98.815168
scalar TransportConnectionVisualizationMultipleConnectionsShowcase.host1.eth[0].mac "rx channel utilization (%)" 1.184832
scalar TransportConnectionVisualizationMultipleConnectionsShowcase.host1.eth[0].mac rxPausePkUnits:count 0
scalar TransportConnectionVisualizationMultipleConnectionsShowcase.host1.eth[0].mac rxPausePkUnits:sum 0
scalar TransportConnectionVisualizationMultipleConnectionsShowcase.host1.eth[0].mac txPausePkUnits:count 0
scalar TransportConnectionVisualizationMultipleConnectionsShowcase.host1.eth[0].mac txPausePkUnits:sum 0
scalar TransportConnectionVisualizationMultipleConnectionsShowcase.host1.eth[0].mac rxPkOk:count 4114
scalar TransportConnectionVisualizationMultipleConnectionsShowcase.host1.eth[0].mac rxPkOk:sum(packetBytes) 263296
scalar TransportConnectionVisualizationMultipleConnectionsShowcase.host1.eth[0].mac txPk:count 4116
scalar TransportConnectionVisualizationMultipleConnectionsShowcase.host1.eth[0].mac txPk:sum(packetBytes) 2438340
scalar TransportConnectionVisualizationMultipleConnectionsShowcase.host1.eth[0].mac packetReceivedFromUpper:count 4116
scalar TransportConnectionVisualizationMultipleConnectionsShowcase.host1.eth[0].mac packetReceivedFromUpper:sum(packetBytes) 2438280
scalar TransportConnectionVisualizationMultipleConnectionsShowcase.host1.eth[0].mac passedUpPk:count 4114
scalar TransportConnectionVisualizationMultipleConnectionsShowcase.host1.eth[0].mac passedUpPk:sum(packetBytes) 263296
scalar TransportConnectionVisualizationMultipleConnectionsShowcase.host1.eth[0].mac packetDropIncorrectlyReceived:count 0
scalar TransportConnectionVisualizationMultipleConnectionsShowcase.host1.eth[0].mac packetDropIncorrectlyReceived:sum(packetBytes) 0
scalar TransportConnectionVisualizationMultipleConnectionsShowcase.host1.eth[0].mac packetDropInterfaceDown:count 0
scalar TransportConnectionVisualizationMultipleConnectionsShowcase.host1.eth[0].mac packetDropInterfaceDown:sum(packetBytes) 0
scalar TransportConnectionVisualizationMultipleConnectionsShowcase.host1.eth[0].mac packetDropNotAddressedToUs:count 0
scalar TransportConnectionVisualizationMultipleConnectionsShowcase.host1.eth[0].mac packetDropNotAddressedToUs:sum(packetBytes) 0
scalar TransportConnectionVisualizationMultipleConnectionsShowcase.host1.eth[0] packetDropInterfaceDown:count 0
scalar TransportConnectionVisualizationMultipleConnectionsShowcase.host1.eth[0] packetDropInterfaceDown:sum(packetBytes) 0
scalar TransportConnectionVisualizationMultipleConnectionsShowcase.host1.eth[0] packetDropNoCarrier:count 0
scalar TransportConnectionVisualizationMultipleConnectionsShowcase.host1.eth[0] packetDropNoCarrier:sum(packetBytes) 0
scalar TransportConnectionVisualizationMultipleConnectionsShowcase.host1.ipv4.ip packetDropAddressResolutionFailed:count 0
scalar TransportConnectionVisualizationMultipleConnectionsShowcase.host1.ipv4.ip packetDropAddressResolutionFailed:sum(packetBytes) 0
scalar TransportConnectionVisualizationMultipleConnectionsShowcase.host1.ipv4.ip packetDropHopLimitReached:count 0
scalar TransportConnectionVisualizationMultipleConnectionsShowcase.host1.ipv4.ip packetDropHopLimitReached:sum(packetBytes) 0
scalar TransportConnectionVisualizationMultipleConnectionsShowcase.host1.ipv4.ip packetDropForwardingDisabled:count 0
scalar TransportConnectionVisualizationMultipleConnectionsShowcase.host1.ipv4.ip packetDropForwardingDisabled:sum(packetBytes) 0
scalar TransportConnectionVisualizationMultipleConnectionsShowcase.host1.ipv4.ip packetDropLifetimeExpired:count 0
scalar TransportConnectionVisualizationMultipleConnectionsShowcase.host1.ipv4.ip packetDropLifetimeExpired:sum(packetBytes) 0
scalar TransportConnectionVisualizationMultipleConnectionsShowcase.host1.ipv4.ip packetDropNoInterfaceFound:count 0
scalar TransportConnectionVisualizationMultipleConnectionsShowcase.host1.ipv4.ip packetDropNoInterfaceFound:sum(packetBytes) 0
scalar TransportConnectionVisualizationMultipleConnectionsShowcase.host1.ipv4.ip packetDropNoRouteFound:count 0
scalar TransportConnectionVisualizationMultipleConnectionsShowcase.host1.ipv4.ip packetDropNoRouteFound:sum(packetBytes) 0
scalar TransportConnectionVisualizationMultipleConnectionsShowcase.host1.ipv4.ip packetDropUndefined:count 0
scalar TransportConnectionVisualizationMultipleConnectionsShowcase.host1.ipv4.ip packetDropUndefined:sum(packetBytes) 0
scalar TransportConnectionVisualizationMultipleConnectionsShowcase.host1.ipv4.arp arpResolutionFailed:count 0
scalar TransportConnectionVisualizationMultipleConnectionsShowcase.host1.ipv4.arp arpResolutionCompleted:count 1
scalar TransportConnectionVisualizationMultipleConnectionsShowcase.host1.ipv4.arp arpResolutionInitiated:count 1
scalar TransportConnectionVisualizationMultipleConnectionsShowcase.host1.ipv4.arp arpReplySent:count 0
scalar TransportConnectionVisualizationMultipleConnectionsShowcase.host1.ipv4.arp arpReplySent:sum(packetBytes) 0
scalar TransportConnectionVisualizationMultipleConnectionsShowcase.host1.ipv4.arp arpRequestSent:count 1
scalar TransportConnectionVisualizationMultipleConnectionsShowcase.host1.ipv4.arp arpRequestSent:sum(packetBytes) 28
scalar TransportConnectionVisualizationMultipleConnectionsShowcase.host1.udp packetReceived:count 0
scalar TransportConnectionVisualizationMultipleConnectionsShowcase.host1.udp packetReceived:sum(packetBytes) 0
scalar TransportConnectionVisualizationMultipleConnectionsShowcase.host1.udp packetSent:count 0
scalar TransportConnectionVisualizationMultipleConnectionsShowcase.host1.udp packetSent:sum(packetBytes) 0
scalar TransportConnectionVisualizationMultipleConnectionsShowcase.host1.udp passedUpPk:count 0
scalar TransportConnectionVisualizationMultipleConnectionsShowcase.host1.udp droppedPkWrongPort:count 0
scalar TransportConnectionVisualizationMultipleConnectionsShowcase.host1.udp droppedPkBadChecksum:count 0
scalar TransportConnectionVisualizationMultipleConnectionsShowcase.host1.app[0] bytesRcvd 0
scalar TransportConnectionVisualizationMultipleConnectionsShowcase.host1.app[0] bytesSent 1048576
scalar TransportConnectionVisualizationMultipleConnectionsShowcase.host1.app[0] packetReceived:count 0
scalar TransportConnectionVisualizationMultipleConnectionsShowcase.host1.app[0] packetReceived:sum(packetBytes) 0
scalar TransportConnectionVisualizationMultipleConnectionsShowcase.host1.app[0] packetSent:count 1
scalar TransportConnectionVisualizationMultipleConnectionsShowcase.host1.app[0] packetSent:sum(packetBytes) 1048576
scalar TransportConnectionVisualizationMultipleConnectionsShowcase.host1.app[1] bytesRcvd 0
scalar TransportConnectionVisualizationMultipleConnectionsShowcase.host1.app[1] bytesSent 1048576
scalar TransportConnectionVisualizationMultipleConnectionsShowcase.host1.app[1] packetReceived:count 0
scalar TransportConnectionVisualizationMultipleConnectionsShowcase.host1.app[1] packetReceived:sum(packetBytes) 0
scalar TransportConnectionVisualizationMultipleConnectionsShowcase.host1.app[1] packetSent:count 1
scalar TransportConnectionVisualizationMultipleConnectionsShowcase.host1.app[1] packetSent:sum(packetBytes) 1048576
scalar TransportConnectionVisualizationMultipleConnectionsShowcase.host1.app[2] bytesRcvd 0
scalar TransportConnectionVisualizationMultipleConnectionsShowcase.host1.app[2] bytesSent 102400
scalar TransportConnectionVisualizationMultipleConnectionsShowcase.host1.app[2] packetReceived:count 0
scalar TransportConnectionVisualizationMultipleConnectionsShowcase.host1.app[2] packetReceived:sum(packetBytes) 0
scalar TransportConnectionVisualizationMultipleConnectionsShowcase.host1.app[2] packetSent:count 1
scalar TransportConnectionVisualizationMultipleConnectionsShowcase.host1.app[2] packetSent:sum(packetBytes) 102400
scalar TransportConnectionVisualizationMultipleConnectionsShowcase.host2.ethernet pauseSent:count 0
scalar TransportConnectionVisualizationMultipleConnectionsShowcase.host2.ethernet pauseSent:sum 0
scalar TransportConnectionVisualizationMultipleConnectionsShowcase.host2.ethernet decapPk:count 2155
scalar TransportConnectionVisualizationMultipleConnectionsShowcase.host2.ethernet decapPk:sum(packetBytes) 99130
scalar TransportConnectionVisualizationMultipleConnectionsShowcase.host2.ethernet encapPk:count 2156
scalar TransportConnectionVisualizationMultipleConnectionsShowcase.host2.ethernet encapPk:sum(packetBytes) 1237212
scalar TransportConnectionVisualizationMultipleConnectionsShowcase.host2.lo[0].lo rcvdPkFromHl:count 0
scalar TransportConnectionVisualizationMultipleConnectionsShowcase.host2.lo[0].lo rcvdPkFromHl:sum(packetBytes) 0
scalar TransportConnectionVisualizationMultipleConnectionsShowcase.host2.lo[0].lo passedUpPk:count 0
scalar TransportConnectionVisualizationMultipleConnectionsShowcase.host2.lo[0].lo passedUpPk:sum(packetBytes) 0
scalar TransportConnectionVisualizationMultipleConnectionsShowcase.host2.lo[0] packetDropInterfaceDown:count 0
scalar TransportConnectionVisualizationMultipleConnectionsShowcase.host2.lo[0] packetDropInterfaceDown:sum(packetBytes) 0
scalar TransportConnectionVisualizationMultipleConnectionsShowcase.host2.lo[0] packetDropNoCarrier:count 0
scalar TransportConnectionVisualizationMultipleConnectionsShowcase.host2.lo[0] packetDropNoCarrier:sum(packetBytes) 0
scalar TransportConnectionVisualizationMultipleConnectionsShowcase.host2.eth[0].queue queueLength:last 0
scalar TransportConnectionVisualizationMultipleConnectionsShowcase.host2.eth[0].queue queueLength:max 2
scalar TransportConnectionVisualizationMultipleConnectionsShowcase.host2.eth[0].queue queueLength:timeavg 0.00078928
scalar TransportConnectionVisualizationMultipleConnectionsShowcase.host2.eth[0].queue queueBitLength:last 0
scalar TransportConnectionVisualizationMultipleConnectionsShowcase.host2.eth[0].queue queueBitLength:max 9504
scalar TransportConnectionVisualizationMultipleConnectionsShowcase.host2.eth[0].queue queueBitLength:timeavg 3.6454528
scalar TransportConnectionVisualizationMultipleConnectionsShowcase.host2.eth[0].queue outgoingPackets:count 2156
scalar TransportConnectionVisualizationMultipleConnectionsShowcase.host2.eth[0].queue outgoingPacketLengths:sum 10208160
scalar TransportConnectionVisualizationMultipleConnectionsShowcase.host2.eth[0].queue incomingPackets:count 2156
scalar TransportConnectionVisualizationMultipleConnectionsShowcase.host2.eth[0].queue incomingPacketLengths:sum 10208160
scalar TransportConnectionVisualizationMultipleConnectionsShowcase.host2.eth[0].queue droppedPacketsQueueOverflow:count 0
scalar TransportConnectionVisualizationMultipleConnectionsShowcase.host2.eth[0].queue droppedPacketLengthsQueueOverflow:sum 0
scalar TransportConnectionVisualizationMultipleConnectionsShowcase.host2.eth[0].mac "simulated time" 2
scalar TransportConnectionVisualizationMultipleConnectionsShowcase.host2.eth[0].mac full-duplex 1
scalar TransportConnectionVisualizationMultipleConnectionsShowcase.host2.eth[0].mac "frames/sec sent" 1078
scalar TransportConnectionVisualizationMultipleConnectionsShowcase.host2.eth[0].mac "frames/sec rcvd" 1077.5
scalar TransportConnectionVisualizationMultipleConnectionsShowcase.host2.eth[0].mac "bits/sec sent" 5104264
scalar TransportConnectionVisualizationMultipleConnectionsShowcase.host2.eth[0].mac "bits/sec rcvd" 551680
scalar TransportConnectionVisualizationMultipleConnectionsShowcase.host2.eth[0].mac "rx channel idle (%)" 99.37936
scalar TransportConnectionVisualizationMultipleConnectionsShowcase.host2.eth[0].mac "rx channel utilization (%)" 0.62064
scalar TransportConnectionVisualizationMultipleConnectionsShowcase.host2.eth[0].mac rxPausePkUnits:count 0
scalar TransportConnectionVisualizationMultipleConnectionsShowcase.host2.eth[0].mac rxPausePkUnits:sum 0
scalar TransportConnectionVisualizationMultipleConnectionsShowcase.host2.eth[0].mac txPausePkUnits:count 0
scalar TransportConnectionVisualizationMultipleConnectionsShowcase.host2.eth[0].mac txPausePkUnits:sum 0
scalar TransportConnectionVisualizationMultipleConnectionsShowcase.host2.eth[0].mac rxPkOk:count 2155
scalar TransportConnectionVisualizationMultipleConnectionsShowcase.host2.eth[0].mac rxPkOk:sum(packetBytes) 137920
scalar TransportConnectionVisualizationMultipleConnectionsShowcase.host2.eth[0].mac txPk:count 2156
scalar TransportConnectionVisualizationMultipleConnectionsShowcase.host2.eth[0].mac txPk:sum(packetBytes) 1276066
scalar TransportConnectionVisualizationMultipleConnectionsShowcase.host2.eth[0].mac packetReceivedFromUpper:count 2156
scalar TransportConnectionVisualizationMultipleConnectionsShowcase.host2.eth[0].mac packetReceivedFromUpper:sum(packetBytes) 1276020
scalar TransportConnectionVisualizationMultipleConnectionsShowcase.host2.eth[0].mac passedUpPk:count 2155
scalar TransportConnectionVisualizationMultipleConnectionsShowcase.host2.eth[0].mac passedUpPk:sum(packetBytes) 137920
scalar TransportConnectionVisualizationMultipleConnectionsShowcase.host2.eth[0].mac packetDropIncorrectlyReceived:count 0
scalar TransportConnectionVisualizationMultipleConnectionsShowcase.host2.eth[0].mac packetDropIncorrectlyReceived:sum(packetBytes) 0
scalar TransportConnectionVisualizationMultipleConnectionsShowcase.host2.eth[0].mac packetDropInterfaceDown:count 0
scalar TransportConnectionVisualizationMultipleConnectionsShowcase.host2.eth[0].mac packetDropInterfaceDown:sum(packetBytes) 0
scalar TransportConnectionVisualizationMultipleConnectionsShowcase.host2.eth[0].mac packetDropNotAddressedToUs:count 0
scalar TransportConnectionVisualizationMultipleConnectionsShowcase.host2.eth[0].mac packetDropNotAddressedToUs:sum(packetBytes) 0
scalar TransportConnectionVisualizationMultipleConnectionsShowcase.host2.eth[0] packetDropInterfaceDown:count 0
scalar TransportConnectionVisualizationMultipleConnectionsShowcase.host2.eth[0] packetDropInterfaceDown:sum(packetBytes) 0
scalar TransportConnectionVisualizationMultipleConnectionsShowcase.host2.eth[0] packetDropNoCarrier:count 0
scalar TransportConnectionVisualizationMultipleConnectionsShowcase.host2.eth[0] packetDropNoCarrier:sum(packetBytes) 0
scalar TransportConnectionVisualizationMultipleConnectionsShowcase.host2.ipv4.ip packetDropAddressResolutionFailed:count 0
scalar TransportConnectionVisualizationMultipleConnectionsShowcase.host2.ipv4.ip packetDropAddressResolutionFailed:sum(packetBytes) 0
scalar TransportConnectionVisualizationMultipleConnectionsShowcase.host2.ipv4.ip packetDropHopLimitReached:count 0
scalar TransportConnectionVisualizationMultipleConnectionsShowcase.host2.ipv4.ip packetDropHopLimitReached:sum(packetBytes) 0
scalar TransportConnectionVisualizationMultipleConnectionsShowcase.host2.ipv4.ip packetDropForwardingDisabled:count 0
scalar TransportConnectionVisualizationMultipleConnectionsShowcase.host2.ipv4.ip packetDropForwardingDisabled:sum(packetBytes) 0
scalar TransportConnectionVisualizationMultipleConnectionsShowcase.host2.ipv4.ip packetDropLifetimeExpired:count 0
scalar TransportConnectionVisualizationMultipleConnectionsShowcase.host2.ipv4.ip packetDropLifetimeExpired:sum(packetBytes) 0
scalar TransportConnectionVisualizationMultipleConnectionsShowcase.host2.ipv4.ip packetDropNoInterfaceFound:count 0
scalar TransportConnectionVisualizationMultipleConnectionsShowcase.host2.ipv4.ip packetDropNoInterfaceFound:sum(packetBytes) 0
scalar TransportConnectionVisualizationMultipleConnectionsShowcase.host2.ipv4.ip packetDropNoRouteFound:count 0
scalar TransportConnectionVisualizationMultipleConnectionsShowcase.host2.ipv4.ip packetDropNoRouteFound:sum(packetBytes) 0
scalar TransportConnectionVisualizationMultipleConnectionsShowcase.host2.ipv4.ip packetDropUndefined:count 0
scalar TransportConnectionVisualizationMultipleConnectionsShowcase.host2.ipv4.ip packetDropUndefined:sum(packetBytes) 0
scalar TransportConnectionVisualizationMultipleConnectionsShowcase.host2.ipv4.arp arpResolutionFailed:count 0
scalar TransportConnectionVisualizationMultipleConnectionsShowcase.host2.ipv4.arp arpResolutionCompleted:count 1
scalar TransportConnectionVisualizationMultipleConnectionsShowcase.host2.ipv4.arp arpResolutionInitiated:count 1
scalar TransportConnectionVisualizationMultipleConnectionsShowcase.host2.ipv4.arp arpReplySent:count 0
scalar TransportConnectionVisualizationMultipleConnectionsShowcase.host2.ipv4.arp arpReplySent:sum(packetBytes) 0
scalar TransportConnectionVisualizationMultipleConnectionsShowcase.host2.ipv4.arp arpRequestSent:count 1
scalar TransportConnectionVisualizationMultipleConnectionsShowcase.host2.ipv4.arp arpRequestSent:sum(packetBytes) 28
scalar TransportConnectionVisualizationMultipleConnectionsShowcase.host2.udp packetReceived:count 0
scalar TransportConnectionVisualizationMultipleConnectionsShowcase.host2.udp packetReceived:sum(packetBytes) 0
scalar TransportConnectionVisualizationMultipleConnectionsShowcase.host2.udp packetSent:count 0
scalar TransportConnectionVisualizationMultipleConnectionsShowcase.host2.udp packetSent:sum(packetBytes) 0
scalar TransportConnectionVisualizationMultipleConnectionsShowcase.host2.udp passedUpPk:count 0
scalar TransportConnectionVisualizationMultipleConnectionsShowcase.host2.udp droppedPkWrongPort:count 0
scalar TransportConnectionVisualizationMultipleConnectionsShowcase.host2.udp droppedPkBadChecksum:count 0
scalar TransportConnectionVisualizationMultipleConnectionsShowcase.host2.app[0] bytesRcvd 0
scalar TransportConnectionVisualizationMultipleConnectionsShowcase.host2.app[0] bytesSent 1048576
scalar TransportConnectionVisualizationMultipleConnectionsShowcase.host2.app[0] packetReceived:count 0
scalar TransportConnectionVisualizationMultipleConnectionsShowcase.host2.app[0] packetReceived:sum(packetBytes) 0
scalar TransportConnectionVisualizationMultipleConnectionsShowcase.host2.app[0] packetSent:count 1
scalar TransportConnectionVisualizationMultipleConnectionsShowcase.host2.app[0] packetSent:sum(packetBytes) 1048576
scalar TransportConnectionVisualizationMultipleConnectionsShowcase.host2.app[1] bytesRcvd 0
scalar TransportConnectionVisualizationMultipleConnectionsShowcase.host2.app[1] bytesSent 102400
scalar TransportConnectionVisualizationMultipleConnectionsShowcase.host2.app[1] packetReceived:count 0
scalar TransportConnectionVisualizationMultipleConnectionsShowcase.host2.app[1] packetReceived:sum(packetBytes) 0
scalar TransportConnectionVisualizationMultipleConnectionsShowcase.host2.app[1] packetSent:count 1
scalar TransportConnectionVisualizationMultipleConnectionsShowcase.host2.app[1] packetSent:sum(packetBytes) 102400
scalar TransportConnectionVisualizationMultipleConnectionsShowcase.switch.bridging "processed frames" 0
scalar TransportConnectionVisualizationMultipleConnectionsShowcase.switch.bridging "discarded frames" 0
scalar TransportConnectionVisualizationMultipleConnectionsShowcase.switch.bridging "number of received BPDUs from STP module" 0
scalar TransportConnectionVisualizationMultipleConnectionsShowcase.switch.bridging "number of received frames from network (including BPDUs)" 12539
scalar TransportConnectionVisualizationMultipleConnectionsShowcase.switch.bridging "number of dropped frames (including BPDUs)" 0
scalar TransportConnectionVisualizationMultipleConnectionsShowcase.switch.bridging "number of delivered BPDUs to the STP module" 0
scalar TransportConnectionVisualizationMultipleConnectionsShowcase.switch.bridging "number of dispatched BPDU frames to the network" 0
scalar TransportConnectionVisualizationMultipleConnectionsShowcase.switch.bridging "number of dispatched non-BDPU frames to the network" 0
scalar TransportConnectionVisualizationMultipleConnectionsShowcase.switch.bridging packetDropped:count 0
scalar TransportConnectionVisualizationMultipleConnectionsShowcase.switch.bridging packetDropped:sum(packetBytes) 0
scalar TransportConnectionVisualizationMultipleConnectionsShowcase.switch.ethernet pauseSent:count 0
scalar TransportConnectionVisualizationMultipleConnectionsShowcase.switch.ethernet pauseSent:sum 0
scalar TransportConnectionVisualizationMultipleConnectionsShowcase.switch.ethernet decapPk:count 12539
scalar TransportConnectionVisualizationMultipleConnectionsShowcase.switch.ethernet decapPk:sum(packetBytes) 3889792
scalar TransportConnectionVisualizationMultipleConnectionsShowcase.switch.ethernet encapPk:count 12541
scalar TransportConnectionVisualizationMultipleConnectionsShowcase.switch.ethernet encapPk:sum(packetBytes) 3889884
scalar TransportConnectionVisualizationMultipleConnectionsShowcase.switch.eth[0].queue queueLength:last 0
scalar TransportConnectionVisualizationMultipleConnectionsShowcase.switch.eth[0].queue queueLength:max 0
scalar TransportConnectionVisualizationMultipleConnectionsShowcase.switch.eth[0].queue queueLength:timeavg 0
scalar TransportConnectionVisualizationMultipleConnectionsShowcase.switch.eth[0].queue queueBitLength:last 0
scalar TransportConnectionVisualizationMultipleConnectionsShowcase.switch.eth[0].queue queueBitLength:max 0
scalar TransportConnectionVisualizationMultipleConnectionsShowcase.switch.eth[0].queue queueBitLength:timeavg 0
scalar TransportConnectionVisualizationMultipleConnectionsShowcase.switch.eth[0].queue outgoingPackets:count 4114
scalar TransportConnectionVisualizationMultipleConnectionsShowcase.switch.eth[0].queue outgoingPacketLengths:sum 2106368
scalar TransportConnectionVisualizationMultipleConnectionsShowcase.switch.eth[0].queue incomingPackets:count 4114
scalar TransportConnectionVisualizationMultipleConnectionsShowcase.switch.eth[0].queue incomingPacketLengths:sum 2106368
scalar TransportConnectionVisualizationMultipleConnectionsShowcase.switch.eth[0].queue droppedPacketsQueueOverflow:count 0
scalar TransportConnectionVisualizationMultipleConnectionsShowcase.switch.eth[0].queue droppedPacketLengthsQueueOverflow:sum 0
scalar TransportConnectionVisualizationMultipleConnectionsShowcase.switch.eth[0].mac "simulated time" 2
scalar TransportConnectionVisualizationMultipleConnectionsShowcase.switch.eth[0].mac full-duplex 1
scalar TransportConnectionVisualizationMultipleConnectionsShowcase.switch.eth[0].mac "frames/sec sent" 2057
scalar TransportConnectionVisualizationMultipleConnectionsShowcase.switch.eth[0].mac "frames/sec rcvd" 2058
scalar TransportConnectionVisualizationMultipleConnectionsShowcase.switch.eth[0].mac "bits/sec sent" 1053184
scalar TransportConnectionVisualizationMultipleConnectionsShowcase.switch.eth[0].mac "bits/sec rcvd" 9753360
scalar TransportConnectionVisualizationMultipleConnectionsShowcase.switch.eth[0].mac "rx channel idle (%)" 90.114928
scalar TransportConnectionVisualizationMultipleConnectionsShowcase.switch.eth[0].mac "rx channel utilization (%)" 9.885072
scalar TransportConnectionVisualizationMultipleConnectionsShowcase.switch.eth[0].mac rxPausePkUnits:count 0
scalar TransportConnectionVisualizationMultipleConnectionsShowcase.switch.eth[0].mac rxPausePkUnits:sum 0
scalar TransportConnectionVisualizationMultipleConnectionsShowcase.switch.eth[0].mac txPausePkUnits:count 0
scalar TransportConnectionVisualizationMultipleConnectionsShowcase.switch.eth[0].mac txPausePkUnits:sum 0
scalar TransportConnectionVisualizationMultipleConnectionsShowcase.switch.eth[0].mac rxPkOk:count 4116
scalar TransportConnectionVisualizationMultipleConnectionsShowcase.switch.eth[0].mac rxPkOk:sum(packetBytes) 2438340
scalar TransportConnectionVisualizationMultipleConnectionsShowcase.switch.eth[0].mac txPk:count 4114
scalar TransportConnectionVisualizationMultipleConnectionsShowcase.switch.eth[0].mac txPk:sum(packetBytes) 263296
scalar TransportConnectionVisualizationMultipleConnectionsShowcase.switch.eth[0].mac packetReceivedFromUpper:count 4114
scalar TransportConnectionVisualizationMultipleConnectionsShowcase.switch.eth[0].mac packetReceivedFromUpper:sum(packetBytes) 263296
scalar TransportConnectionVisualizationMultipleConnectionsShowcase.switch.eth[0].mac passedUpPk:count 4116
scalar TransportConnectionVisualizationMultipleConnectionsShowcase.switch.eth[0].mac passedUpPk:sum(packetBytes) 2438340
scalar TransportConnectionVisualizationMultipleConnectionsShowcase.switch.eth[0].mac packetDropIncorrectlyReceived:count 0
scalar TransportConnectionVisualizationMultipleConnectionsShowcase.switch.eth[0].mac packetDropIncorrectlyReceived:sum(packetBytes) 0
scalar TransportConnectionVisualizationMultipleConnectionsShowcase.switch.eth[0].mac packetDropInterfaceDown:count 0
scalar TransportConnectionVisualizationMultipleConnectionsShowcase.switch.eth[0].mac packetDropInterfaceDown:sum(packetBytes) 0
scalar TransportConnectionVisualizationMultipleConnectionsShowcase.switch.eth[0].mac packetDropNotAddressedToUs:count 0
scalar TransportConnectionVisualizationMultipleConnectionsShowcase.switch.eth[0].mac packetDropNotAddressedToUs:sum(packetBytes) 0
scalar TransportConnectionVisualizationMultipleConnectionsShowcase.switch.eth[0] packetDropInterfaceDown:count 0
scalar TransportConnectionVisualizationMultipleConnectionsShowcase.switch.eth[0] packetDropInterfaceDown:sum(packetBytes) 0
scalar TransportConnectionVisualizationMultipleConnectionsShowcase.switch.eth[0] packetDropNoCarrier:count 0
scalar TransportConnectionVisualizationMultipleConnectionsShowcase.switch.eth[0] packetDropNoCarrier:sum(packetBytes) 0
scalar TransportConnectionVisualizationMultipleConnectionsShowcase.switch.eth[1].queue queueLength:last 0
scalar TransportConnectionVisualizationMultipleConnectionsShowcase.switch.eth[1].queue queueLength:max 0
scalar TransportConnectionVisualizationMultipleConnectionsShowcase.switch.eth[1].queue queueLength:timeavg 0
scalar TransportConnectionVisualizationMultipleConnectionsShowcase.switch.eth[1].queue queueBitLength:last 0
scalar TransportConnectionVisualizationMultipleConnectionsShowcase.switch.eth[1].queue queueBitLength:max 0
scalar TransportConnectionVisualizationMultipleConnectionsShowcase.switch.eth[1].queue queueBitLength:timeavg 0
scalar TransportConnectionVisualizationMultipleConnectionsShowcase.switch.eth[1].queue outgoingPackets:count 2155
scalar TransportConnectionVisualizationMultipleConnectionsShowcase.switch.eth[1].queue outgoingPacketLengths:sum 1103360
scalar TransportConnectionVisualizationMultipleConnectionsShowcase.switch.eth[1].queue incomingPackets:count 2155
scalar TransportConnectionVisualizationMultipleConnectionsShowcase.switch.eth[1].queue incomingPacketLengths:sum 1103360
scalar TransportConnectionVisualizationMultipleConnectionsShowcase.switch.eth[1].queue droppedPacketsQueueOverflow:count 0
scalar TransportConnectionVisualizationMultipleConnectionsShowcase.switch.eth[1].queue droppedPacketLengthsQueueOverflow:sum 0
scalar TransportConnectionVisualizationMultipleConnectionsShowcase.switch.eth[1].mac "simulated time" 2
scalar TransportConnectionVisualizationMultipleConnectionsShowcase.switch.eth[1].mac full-duplex 1
scalar TransportConnectionVisualizationMultipleConnectionsShowcase.switch.eth[1].mac "frames/sec sent" 1077.5
scalar TransportConnectionVisualizationMultipleConnectionsShowcase.switch.eth[1].mac "frames/sec rcvd" 1078
scalar TransportConnectionVisualizationMultipleConnectionsShowcase.switch.eth[1].mac "bits/sec sent" 551680
scalar TransportConnectionVisualizationMultipleConnectionsShowcase.switch.eth[1].mac "bits/sec rcvd" 5104264
scalar TransportConnectionVisualizationMultipleConnectionsShowcase.switch.eth[1].mac "rx channel idle (%)" 94.826744
scalar TransportConnectionVisualizationMultipleConnectionsShowcase.switch.eth[1].mac "rx channel utilization (%)" 5.173256
scalar TransportConnectionVisualizationMultipleConnectionsShowcase.switch.eth[1].mac rxPausePkUnits:count 0
scalar TransportConnectionVisualizationMultipleConnectionsShowcase.switch.eth[1].mac rxPausePkUnits:sum 0
scalar TransportConnectionVisualizationMultipleConnectionsShowcase.switch.eth[1].mac txPausePkUnits:count 0
scalar TransportConnectionVisualizationMultipleConnectionsShowcase.switch.eth[1].mac txPausePkUnits:sum 0
scalar TransportConnectionVisualizationMultipleConnectionsShowcase.switch.eth[1].mac rxPkOk:count 2156
scalar TransportConnectionVisualizationMultipleConnectionsShowcase.switch.eth[1].mac rxPkOk:sum(packetBytes) 1276066
scalar TransportConnectionVisualizationMultipleConnectionsShowcase.switch.eth[1].mac txPk:count 2155
scalar TransportConnectionVisualizationMultipleConnectionsShowcase.switch.eth[1].mac txPk:sum(packetBytes) 137920
scalar TransportConnectionVisualizationMultipleConnectionsShowcase.switch.eth[1].mac packetReceivedFromUpper:count 2155
scalar TransportConnectionVisualizationMultipleConnectionsShowcase.switch.eth[1].mac packetReceivedFromUpper:sum(packetBytes) 137920
scalar TransportConnectionVisualizationMultipleConnectionsShowcase.switch.eth[1].mac passedUpPk:count 2156
scalar TransportConnectionVisualizationMultipleConnectionsShowcase.switch.eth[1].mac passedUpPk:sum(packetBytes) 1276066
scalar TransportConnectionVisualizationMultipleConnectionsShowcase.switch.eth[1].mac packetDropIncorrectlyReceived:count 0
scalar TransportConnectionVisualizationMultipleConnectionsShowcase.switch.eth[1].mac packetDropIncorrectlyReceived:sum(packetBytes) 0
scalar TransportConnectionVisualizationMultipleConnectionsShowcase.switch.eth[1].mac packetDropInterfaceDown:count 0
scalar TransportConnectionVisualizationMultipleConnectionsShowcase.switch.eth[1].mac packetDropInterfaceDown:sum(packetBytes) 0
scalar TransportConnectionVisualizationMultipleConnectionsShowcase.switch.eth[1].mac packetDropNotAddressedToUs:count 0
scalar TransportConnectionVisualizationMultipleConnectionsShowcase.switch.eth[1].mac packetDropNotAddressedToUs:sum(packetBytes) 0
scalar TransportConnectionVisualizationMultipleConnectionsShowcase.switch.eth[1] packetDropInterfaceDown:count 0
scalar TransportConnectionVisualizationMultipleConnectionsShowcase.switch.eth[1] packetDropInterfaceDown:sum(packetBytes) 0
scalar TransportConnectionVisualizationMultipleConnectionsShowcase.switch.eth[1] packetDropNoCarrier:count 0
scalar TransportConnectionVisualizationMultipleConnectionsShowcase.switch.eth[1] packetDropNoCarrier:sum(packetBytes) 0
scalar TransportConnectionVisualizationMultipleConnectionsShowcase.switch.eth[2].queue queueLength:last 0
scalar TransportConnectionVisualizationMultipleConnectionsShowcase.switch.eth[2].queue queueLength:max 68
scalar TransportConnectionVisualizationMultipleConnectionsShowcase.switch.eth[2].queue queueLength:timeavg 6.5054738199998
scalar TransportConnectionVisualizationMultipleConnectionsShowcase.switch.eth[2].queue queueBitLength:last 0
scalar TransportConnectionVisualizationMultipleConnectionsShowcase.switch.eth[2].queue queueBitLength:max 319040
scalar TransportConnectionVisualizationMultipleConnectionsShowcase.switch.eth[2].queue queueBitLength:timeavg 30881.387894724
scalar TransportConnectionVisualizationMultipleConnectionsShowcase.switch.eth[2].queue outgoingPackets:count 6272
scalar TransportConnectionVisualizationMultipleConnectionsShowcase.switch.eth[2].queue outgoingPacketLengths:sum 29715248
scalar TransportConnectionVisualizationMultipleConnectionsShowcase.switch.eth[2].queue incomingPackets:count 6272
scalar TransportConnectionVisualizationMultipleConnectionsShowcase.switch.eth[2].queue incomingPacketLengths:sum 29715248
scalar TransportConnectionVisualizationMultipleConnectionsShowcase.switch.eth[2].queue droppedPacketsQueueOverflow:count 0
scalar TransportConnectionVisualizationMultipleConnectionsShowcase.switch.eth[2].queue droppedPacketLengthsQueueOverflow:sum 0
scalar TransportConnectionVisualizationMultipleConnectionsShowcase.switch.eth[2].mac "simulated time" 2
scalar TransportConnectionVisualizationMultipleConnectionsShowcase.switch.eth[2].mac full-duplex 1
scalar TransportConnectionVisualizationMultipleConnectionsShowcase.switch.eth[2].mac "frames/sec sent" 3136
scalar TransportConnectionVisualizationMultipleConnectionsShowcase.switch.eth[2].mac "frames/sec rcvd" 3133.5
scalar TransportConnectionVisualizationMultipleConnectionsShowcase.switch.eth[2].mac "bits/sec sent" 14857624
scalar TransportConnectionVisualizationMultipleConnectionsShowcase.switch.eth[2].mac "bits/sec rcvd" 1604352
scalar TransportConnectionVisualizationMultipleConnectionsShowcase.switch.eth[2].mac "rx channel idle (%)" 98.195104
scalar TransportConnectionVisualizationMultipleConnectionsShowcase.switch.eth[2].mac "rx channel utilization (%)" 1.804896
scalar TransportConnectionVisualizationMultipleConnectionsShowcase.switch.eth[2].mac rxPausePkUnits:count 0
scalar TransportConnectionVisualizationMultipleConnectionsShowcase.switch.eth[2].mac rxPausePkUnits:sum 0
scalar TransportConnectionVisualizationMultipleConnectionsShowcase.switch.eth[2].mac txPausePkUnits:count 0
scalar TransportConnectionVisualizationMultipleConnectionsShowcase.switch.eth[2].mac txPausePkUnits:sum 0
scalar TransportConnectionVisualizationMultipleConnectionsShowcase.switch.eth[2].mac rxPkOk:count 6267
scalar TransportConnectionVisualizationMultipleConnectionsShowcase.switch.eth[2].mac rxPkOk:sum(packetBytes) 401088
scalar TransportConnectionVisualizationMultipleConnectionsShowcase.switch.eth[2].mac txPk:count 6272
scalar TransportConnectionVisualizationMultipleConnectionsShowcase.switch.eth[2].mac txPk:sum(packetBytes) 3714406
scalar TransportConnectionVisualizationMultipleConnectionsShowcase.switch.eth[2].mac packetReceivedFromUpper:count 6272
scalar TransportConnectionVisualizationMultipleConnectionsShowcase.switch.eth[2].mac packetReceivedFromUpper:sum(packetBytes) 3714406
scalar TransportConnectionVisualizationMultipleConnectionsShowcase.switch.eth[2].mac passedUpPk:count 6267
scalar TransportConnectionVisualizationMultipleConnectionsShowcase.switch.eth[2].mac passedUpPk:sum(packetBytes) 401088
scalar TransportConnectionVisualizationMultipleConnectionsShowcase.switch.eth[2].mac packetDropIncorrectlyReceived:count 0
scalar TransportConnectionVisualizationMultipleConnectionsShowcase.switch.eth[2].mac packetDropIncorrectlyReceived:sum(packetBytes) 0
scalar TransportConnectionVisualizationMultipleConnectionsShowcase.switch.eth[2].mac packetDropInterfaceDown:count 0
scalar TransportConnectionVisualizationMultipleConnectionsShowcase.switch.eth[2].mac packetDropInterfaceDown:sum(packetBytes) 0
scalar TransportConnectionVisualizationMultipleConnectionsShowcase.switch.eth[2].mac packetDropNotAddressedToUs:count 0
scalar TransportConnectionVisualizationMultipleConnectionsShowcase.switch.eth[2].mac packetDropNotAddressedToUs:sum(packetBytes) 0
scalar TransportConnectionVisualizationMultipleConnectionsShowcase.switch.eth[2] packetDropInterfaceDown:count 0
scalar TransportConnectionVisualizationMultipleConnectionsShowcase.switch.eth[2] packetDropInterfaceDown:sum(packetBytes) 0
scalar TransportConnectionVisualizationMultipleConnectionsShowcase.switch.eth[2] packetDropNoCarrier:count 0
scalar TransportConnectionVisualizationMultipleConnectionsShowcase.switch.eth[2] packetDropNoCarrier:sum(packetBytes) 0
scalar TransportConnectionVisualizationMultipleConnectionsShowcase.router.ethernet pauseSent:count 0
scalar TransportConnectionVisualizationMultipleConnectionsShowcase.router.ethernet pauseSent:sum 0
scalar TransportConnectionVisualizationMultipleConnectionsShowcase.router.ethernet decapPk:count 12538
scalar TransportConnectionVisualizationMultipleConnectionsShowcase.router.ethernet decapPk:sum(packetBytes) 3889746
scalar TransportConnectionVisualizationMultipleConnectionsShowcase.router.ethernet encapPk:count 12538
scalar TransportConnectionVisualizationMultipleConnectionsShowcase.router.ethernet encapPk:sum(packetBytes) 3852052
scalar TransportConnectionVisualizationMultipleConnectionsShowcase.router.lo[0].lo rcvdPkFromHl:count 0
scalar TransportConnectionVisualizationMultipleConnectionsShowcase.router.lo[0].lo rcvdPkFromHl:sum(packetBytes) 0
scalar TransportConnectionVisualizationMultipleConnectionsShowcase.router.lo[0].lo passedUpPk:count 0
scalar TransportConnectionVisualizationMultipleConnectionsShowcase.router.lo[0].lo passedUpPk:sum(packetBytes) 0
scalar TransportConnectionVisualizationMultipleConnectionsShowcase.router.lo[0] packetDropInterfaceDown:count 0
scalar TransportConnectionVisualizationMultipleConnectionsShowcase.router.lo[0] packetDropInterfaceDown:sum(packetBytes) 0
scalar TransportConnectionVisualizationMultipleConnectionsShowcase.router.lo[0] packetDropNoCarrier:count 0
scalar TransportConnectionVisualizationMultipleConnectionsShowcase.router.lo[0] packetDropNoCarrier:sum(packetBytes) 0
scalar TransportConnectionVisualizationMultipleConnectionsShowcase.router.eth[0].queue queueLength:last 0
scalar TransportConnectionVisualizationMultipleConnectionsShowcase.router.eth[0].queue queueLength:max 0
scalar TransportConnectionVisualizationMultipleConnectionsShowcase.router.eth[0].queue queueLength:timeavg 0
scalar TransportConnectionVisualizationMultipleConnectionsShowcase.router.eth[0].queue queueBitLength:last 0
scalar TransportConnectionVisualizationMultipleConnectionsShowcase.router.eth[0].queue queueBitLength:max 0
scalar TransportConnectionVisualizationMultipleConnectionsShowcase.router.eth[0].queue queueBitLength:timeavg 0
scalar TransportConnectionVisualizationMultipleConnectionsShowcase.router.eth[0].queue outgoingPackets:count 6267
scalar TransportConnectionVisualizationMultipleConnectionsShowcase.router.eth[0].queue outgoingPacketLengths:sum 2907856
scalar TransportConnectionVisualizationMultipleConnectionsShowcase.router.eth[0].queue incomingPackets:count 6267
scalar TransportConnectionVisualizationMultipleConnectionsShowcase.router.eth[0].queue incomingPacketLengths:sum 2907856
scalar TransportConnectionVisualizationMultipleConnectionsShowcase.router.eth[0].queue droppedPacketsQueueOverflow:count 0
scalar TransportConnectionVisualizationMultipleConnectionsShowcase.router.eth[0].queue droppedPacketLengthsQueueOverflow:sum 0
scalar TransportConnectionVisualizationMultipleConnectionsShowcase.router.eth[0].mac "simulated time" 2
scalar TransportConnectionVisualizationMultipleConnectionsShowcase.router.eth[0].mac full-duplex 1
scalar TransportConnectionVisualizationMultipleConnectionsShowcase.router.eth[0].mac "frames/sec sent" 3133.5
scalar TransportConnectionVisualizationMultipleConnectionsShowcase.router.eth[0].mac "frames/sec rcvd" 3136
scalar TransportConnectionVisualizationMultipleConnectionsShowcase.router.eth[0].mac "bits/sec sent" 1604352
scalar TransportConnectionVisualizationMultipleConnectionsShowcase.router.eth[0].mac "bits/sec rcvd" 14857624
scalar TransportConnectionVisualizationMultipleConnectionsShowcase.router.eth[0].mac "rx channel idle (%)" 84.941672
scalar TransportConnectionVisualizationMultipleConnectionsShowcase.router.eth[0].mac "rx channel utilization (%)" 15.058328
scalar TransportConnectionVisualizationMultipleConnectionsShowcase.router.eth[0].mac rxPausePkUnits:count 0
scalar TransportConnectionVisualizationMultipleConnectionsShowcase.router.eth[0].mac rxPausePkUnits:sum 0
scalar TransportConnectionVisualizationMultipleConnectionsShowcase.router.eth[0].mac txPausePkUnits:count 0
scalar TransportConnectionVisualizationMultipleConnectionsShowcase.router.eth[0].mac txPausePkUnits:sum 0
scalar TransportConnectionVisualizationMultipleConnectionsShowcase.router.eth[0].mac rxPkOk:count 6272
scalar TransportConnectionVisualizationMultipleConnectionsShowcase.router.eth[0].mac rxPkOk:sum(packetBytes) 3714406
scalar TransportConnectionVisualizationMultipleConnectionsShowcase.router.eth[0].mac txPk:count 6267
scalar TransportConnectionVisualizationMultipleConnectionsShowcase.router.eth[0].mac txPk:sum(packetBytes) 401088
scalar TransportConnectionVisualizationMultipleConnectionsShowcase.router.eth[0].mac packetReceivedFromUpper:count 6267
scalar TransportConnectionVisualizationMultipleConnectionsShowcase.router.eth[0].mac packetReceivedFromUpper:sum(packetBytes) 363482
scalar TransportConnectionVisualizationMultipleConnectionsShowcase.router.eth[0].mac passedUpPk:count 6272
scalar TransportConnectionVisualizationMultipleConnectionsShowcase.router.eth[0].mac passedUpPk:sum(packetBytes) 3714406
scalar TransportConnectionVisualizationMultipleConnectionsShowcase.router.eth[0].mac packetDropIncorrectlyReceived:count 0
scalar TransportConnectionVisualizationMultipleConnectionsShowcase.router.eth[0].mac packetDropIncorrectlyReceived:sum(packetBytes) 0
scalar TransportConnectionVisualizationMultipleConnectionsShowcase.router.eth[0].mac packetDropInterfaceDown:count 0
scalar TransportConnectionVisualizationMultipleConnectionsShowcase.router.eth[0].mac packetDropInterfaceDown:sum(packetBytes) 0
scalar TransportConnectionVisualizationMultipleConnectionsShowcase.router.eth[0].mac packetDropNotAddressedToUs:count 0
scalar TransportConnectionVisualizationMultipleConnectionsShowcase.router.eth[0].mac packetDropNotAddressedToUs:sum(packetBytes) 0
scalar TransportConnectionVisualizationMultipleConnectionsShowcase.router.eth[0] packetDropInterfaceDown:count 0
scalar TransportConnectionVisualizationMultipleConnectionsShowcase.router.eth[0] packetDropInterfaceDown:sum(packetBytes) 0
scalar TransportConnectionVisualizationMultipleConnectionsShowcase.router.eth[0] packetDropNoCarrier:count 0
scalar TransportConnectionVisualizationMultipleConnectionsShowcase.router.eth[0] packetDropNoCarrier:sum(packetBytes) 0
scalar TransportConnectionVisualizationMultipleConnectionsShowcase.router.eth[1].queue queueLength:last 0
scalar TransportConnectionVisualizationMultipleConnectionsShowcase.router.eth[1].queue queueLength:max 3
scalar TransportConnectionVisualizationMultipleConnectionsShowcase.router.eth[1].queue queueLength:timeavg 0.00025527
scalar TransportConnectionVisualizationMultipleConnectionsShowcase.router.eth[1].queue queueBitLength:last 0
scalar TransportConnectionVisualizationMultipleConnectionsShowcase.router.eth[1].queue queueBitLength:max 2672
scalar TransportConnectionVisualizationMultipleConnectionsShowcase.router.eth[1].queue queueBitLength:timeavg 0.18472848
scalar TransportConnectionVisualizationMultipleConnectionsShowcase.router.eth[1].queue outgoingPackets:count 6271
scalar TransportConnectionVisualizationMultipleConnectionsShowcase.router.eth[1].queue outgoingPacketLengths:sum 29714032
scalar TransportConnectionVisualizationMultipleConnectionsShowcase.router.eth[1].queue incomingPackets:count 6271
scalar TransportConnectionVisualizationMultipleConnectionsShowcase.router.eth[1].queue incomingPacketLengths:sum 29714032
scalar TransportConnectionVisualizationMultipleConnectionsShowcase.router.eth[1].queue droppedPacketsQueueOverflow:count 0
scalar TransportConnectionVisualizationMultipleConnectionsShowcase.router.eth[1].queue droppedPacketLengthsQueueOverflow:sum 0
scalar TransportConnectionVisualizationMultipleConnectionsShowcase.router.eth[1].mac "simulated time" 2
scalar TransportConnectionVisualizationMultipleConnectionsShowcase.router.eth[1].mac full-duplex 1
scalar TransportConnectionVisualizationMultipleConnectionsShowcase.router.eth[1].mac "frames/sec sent" 3135.5
scalar TransportConnectionVisualizationMultipleConnectionsShowcase.router.eth[1].mac "frames/sec rcvd" 3133
scalar TransportConnectionVisualizationMultipleConnectionsShowcase.router.eth[1].mac "bits/sec sent" 14857368
scalar TransportConnectionVisualizationMultipleConnectionsShowcase.router.eth[1].mac "bits/sec rcvd" 1604096
scalar TransportConnectionVisualizationMultipleConnectionsShowcase.router.eth[1].mac "rx channel idle (%)" 98.195392
scalar TransportConnectionVisualizationMultipleConnectionsShowcase.router.eth[1].mac "rx channel utilization (%)" 1.804608
scalar TransportConnectionVisualizationMultipleConnectionsShowcase.router.eth[1].mac rxPausePkUnits:count 0
scalar TransportConnectionVisualizationMultipleConnectionsShowcase.router.eth[1].mac rxPausePkUnits:sum 0
scalar TransportConnectionVisualizationMultipleConnectionsShowcase.router.eth[1].mac txPausePkUnits:count 0
scalar TransportConnectionVisualizationMultipleConnectionsShowcase.router.eth[1].mac txPausePkUnits:sum 0
scalar TransportConnectionVisualizationMultipleConnectionsShowcase.router.eth[1].mac rxPkOk:count 6266
scalar TransportConnectionVisualizationMultipleConnectionsShowcase.router.eth[1].mac rxPkOk:sum(packetBytes) 401024
scalar TransportConnectionVisualizationMultipleConnectionsShowcase.router.eth[1].mac txPk:count 6271
scalar TransportConnectionVisualizationMultipleConnectionsShowcase.router.eth[1].mac txPk:sum(packetBytes) 3714342
scalar TransportConnectionVisualizationMultipleConnectionsShowcase.router.eth[1].mac packetReceivedFromUpper:count 6271
scalar TransportConnectionVisualizationMultipleConnectionsShowcase.router.eth[1].mac packetReceivedFromUpper:sum(packetBytes) 3714254
scalar TransportConnectionVisualizationMultipleConnectionsShowcase.router.eth[1].mac passedUpPk:count 6266
scalar TransportConnectionVisualizationMultipleConnectionsShowcase.router.eth[1].mac passedUpPk:sum(packetBytes) 401024
scalar TransportConnectionVisualizationMultipleConnectionsShowcase.router.eth[1].mac packetDropIncorrectlyReceived:count 0
scalar TransportConnectionVisualizationMultipleConnectionsShowcase.router.eth[1].mac packetDropIncorrectlyReceived:sum(packetBytes) 0
scalar TransportConnectionVisualizationMultipleConnectionsShowcase.router.eth[1].mac packetDropInterfaceDown:count 0
scalar TransportConnectionVisualizationMultipleConnectionsShowcase.router.eth[1].mac packetDropInterfaceDown:sum(packetBytes) 0
scalar TransportConnectionVisualizationMultipleConnectionsShowcase.router.eth[1].mac packetDropNotAddressedToUs:count 0
scalar TransportConnectionVisualizationMultipleConnectionsShowcase.router.eth[1].mac packetDropNotAddressedToUs:sum(packetBytes) 0
scalar TransportConnectionVisualizationMultipleConnectionsShowcase.router.eth[1] packetDropInterfaceDown:count 0
scalar TransportConnectionVisualizationMultipleConnectionsShowcase.router.eth[1] packetDropInterfaceDown:sum(packetBytes) 0
scalar TransportConnectionVisualizationMultipleConnectionsShowcase.router.eth[1] packetDropNoCarrier:count 0
scalar TransportConnectionVisualizationMultipleConnectionsShowcase.router.eth[1] packetDropNoCarrier:sum(packetBytes) 0
scalar TransportConnectionVisualizationMultipleConnectionsShowcase.router.ipv4.ip packetDropAddressResolutionFailed:count 0
scalar TransportConnectionVisualizationMultipleConnectionsShowcase.router.ipv4.ip packetDropAddressResolutionFailed:sum(packetBytes) 0
scalar TransportConnectionVisualizationMultipleConnectionsShowcase.router.ipv4.ip packetDropHopLimitReached:count 0
scalar TransportConnectionVisualizationMultipleConnectionsShowcase.router.ipv4.ip packetDropHopLimitReached:sum(packetBytes) 0
scalar TransportConnectionVisualizationMultipleConnectionsShowcase.router.ipv4.ip packetDropForwardingDisabled:count 0
scalar TransportConnectionVisualizationMultipleConnectionsShowcase.router.ipv4.ip packetDropForwardingDisabled:sum(packetBytes) 0
scalar TransportConnectionVisualizationMultipleConnectionsShowcase.router.ipv4.ip packetDropLifetimeExpired:count 0
scalar TransportConnectionVisualizationMultipleConnectionsShowcase.router.ipv4.ip packetDropLifetimeExpired:sum(packetBytes) 0
scalar TransportConnectionVisualizationMultipleConnectionsShowcase.router.ipv4.ip packetDropNoInterfaceFound:count 0
scalar TransportConnectionVisualizationMultipleConnectionsShowcase.router.ipv4.ip packetDropNoInterfaceFound:sum(packetBytes) 0
scalar TransportConnectionVisualizationMultipleConnectionsShowcase.router.ipv4.ip packetDropNoRouteFound:count 0
scalar TransportConnectionVisualizationMultipleConnectionsShowcase.router.ipv4.ip packetDropNoRouteFound:sum(packetBytes) 0
scalar TransportConnectionVisualizationMultipleConnectionsShowcase.router.ipv4.ip packetDropUndefined:count 0
scalar TransportConnectionVisualizationMultipleConnectionsShowcase.router.ipv4.ip packetDropUndefined:sum(packetBytes) 0
scalar TransportConnectionVisualizationMultipleConnectionsShowcase.router.ipv4.arp arpResolutionFailed:count 0
scalar TransportConnectionVisualizationMultipleConnectionsShowcase.router.ipv4.arp arpResolutionCompleted:count 3
scalar TransportConnectionVisualizationMultipleConnectionsShowcase.router.ipv4.arp arpResolutionInitiated:count 1
scalar TransportConnectionVisualizationMultipleConnectionsShowcase.router.ipv4.arp arpReplySent:count 2
scalar TransportConnectionVisualizationMultipleConnectionsShowcase.router.ipv4.arp arpReplySent:sum(packetBytes) 56
scalar TransportConnectionVisualizationMultipleConnectionsShowcase.router.ipv4.arp arpRequestSent:count 1
scalar TransportConnectionVisualizationMultipleConnectionsShowcase.router.ipv4.arp arpRequestSent:sum(packetBytes) 28
scalar TransportConnectionVisualizationMultipleConnectionsShowcase.server.ethernet pauseSent:count 0
scalar TransportConnectionVisualizationMultipleConnectionsShowcase.server.ethernet pauseSent:sum 0
scalar TransportConnectionVisualizationMultipleConnectionsShowcase.server.ethernet decapPk:count 6271
scalar TransportConnectionVisualizationMultipleConnectionsShowcase.server.ethernet decapPk:sum(packetBytes) 3601464
scalar TransportConnectionVisualizationMultipleConnectionsShowcase.server.ethernet encapPk:count 6266
scalar TransportConnectionVisualizationMultipleConnectionsShowcase.server.ethernet encapPk:sum(packetBytes) 250648
scalar TransportConnectionVisualizationMultipleConnectionsShowcase.server.lo[0].lo rcvdPkFromHl:count 0
scalar TransportConnectionVisualizationMultipleConnectionsShowcase.server.lo[0].lo rcvdPkFromHl:sum(packetBytes) 0
scalar TransportConnectionVisualizationMultipleConnectionsShowcase.server.lo[0].lo passedUpPk:count 0
scalar TransportConnectionVisualizationMultipleConnectionsShowcase.server.lo[0].lo passedUpPk:sum(packetBytes) 0
scalar TransportConnectionVisualizationMultipleConnectionsShowcase.server.lo[0] packetDropInterfaceDown:count 0
scalar TransportConnectionVisualizationMultipleConnectionsShowcase.server.lo[0] packetDropInterfaceDown:sum(packetBytes) 0
scalar TransportConnectionVisualizationMultipleConnectionsShowcase.server.lo[0] packetDropNoCarrier:count 0
scalar TransportConnectionVisualizationMultipleConnectionsShowcase.server.lo[0] packetDropNoCarrier:sum(packetBytes) 0
scalar TransportConnectionVisualizationMultipleConnectionsShowcase.server.eth[0].queue queueLength:last 0
scalar TransportConnectionVisualizationMultipleConnectionsShowcase.server.eth[0].queue queueLength:max 1
scalar TransportConnectionVisualizationMultipleConnectionsShowcase.server.eth[0].queue queueLength:timeavg 1.68e-05
scalar TransportConnectionVisualizationMultipleConnectionsShowcase.server.eth[0].queue queueBitLength:last 0
scalar TransportConnectionVisualizationMultipleConnectionsShowcase.server.eth[0].queue queueBitLength:max 464
scalar TransportConnectionVisualizationMultipleConnectionsShowcase.server.eth[0].queue queueBitLength:timeavg 0.0077952
scalar TransportConnectionVisualizationMultipleConnectionsShowcase.server.eth[0].queue outgoingPackets:count 6266
scalar TransportConnectionVisualizationMultipleConnectionsShowcase.server.eth[0].queue outgoingPacketLengths:sum 2907488
scalar TransportConnectionVisualizationMultipleConnectionsShowcase.server.eth[0].queue incomingPackets:count 6266
scalar TransportConnectionVisualizationMultipleConnectionsShowcase.server.eth[0].queue incomingPacketLengths:sum 2907488
scalar TransportConnectionVisualizationMultipleConnectionsShowcase.server.eth[0].queue droppedPacketsQueueOverflow:count 0
scalar TransportConnectionVisualizationMultipleConnectionsShowcase.server.eth[0].queue droppedPacketLengthsQueueOverflow:sum 0
scalar TransportConnectionVisualizationMultipleConnectionsShowcase.server.eth[0].mac "simulated time" 2
scalar TransportConnectionVisualizationMultipleConnectionsShowcase.server.eth[0].mac full-duplex 1
scalar TransportConnectionVisualizationMultipleConnectionsShowcase.server.eth[0].mac "frames/sec sent" 3133
scalar TransportConnectionVisualizationMultipleConnectionsShowcase.server.eth[0].mac "frames/sec rcvd" 3135.5
scalar TransportConnectionVisualizationMultipleConnectionsShowcase.server.eth[0].mac "bits/sec sent" 1604096
scalar TransportConnectionVisualizationMultipleConnectionsShowcase.server.eth[0].mac "bits/sec rcvd" 14857368
scalar TransportConnectionVisualizationMultipleConnectionsShowcase.server.eth[0].mac "rx channel idle (%)" 84.94196
scalar TransportConnectionVisualizationMultipleConnectionsShowcase.server.eth[0].mac "rx channel utilization (%)" 15.05804
scalar TransportConnectionVisualizationMultipleConnectionsShowcase.server.eth[0].mac rxPausePkUnits:count 0
scalar TransportConnectionVisualizationMultipleConnectionsShowcase.server.eth[0].mac rxPausePkUnits:sum 0
scalar TransportConnectionVisualizationMultipleConnectionsShowcase.server.eth[0].mac txPausePkUnits:count 0
scalar TransportConnectionVisualizationMultipleConnectionsShowcase.server.eth[0].mac txPausePkUnits:sum 0
scalar TransportConnectionVisualizationMultipleConnectionsShowcase.server.eth[0].mac rxPkOk:count 6271
scalar TransportConnectionVisualizationMultipleConnectionsShowcase.server.eth[0].mac rxPkOk:sum(packetBytes) 3714342
scalar TransportConnectionVisualizationMultipleConnectionsShowcase.server.eth[0].mac txPk:count 6266
scalar TransportConnectionVisualizationMultipleConnectionsShowcase.server.eth[0].mac txPk:sum(packetBytes) 401024
scalar TransportConnectionVisualizationMultipleConnectionsShowcase.server.eth[0].mac packetReceivedFromUpper:count 6266
scalar TransportConnectionVisualizationMultipleConnectionsShowcase.server.eth[0].mac packetReceivedFromUpper:sum(packetBytes) 363436
scalar TransportConnectionVisualizationMultipleConnectionsShowcase.server.eth[0].mac passedUpPk:count 6271
scalar TransportConnectionVisualizationMultipleConnectionsShowcase.server.eth[0].mac passedUpPk:sum(packetBytes) 3714342
scalar TransportConnectionVisualizationMultipleConnectionsShowcase.server.eth[0].mac packetDropIncorrectlyReceived:count 0
scalar TransportConnectionVisualizationMultipleConnectionsShowcase.server.eth[0].mac packetDropIncorrectlyReceived:sum(packetBytes) 0
scalar TransportConnectionVisualizationMultipleConnectionsShowcase.server.eth[0].mac packetDropInterfaceDown:count 0
scalar TransportConnectionVisualizationMultipleConnectionsShowcase.server.eth[0].mac packetDropInterfaceDown:sum(packetBytes) 0
scalar TransportConnectionVisualizationMultipleConnectionsShowcase.server.eth[0].mac packetDropNotAddressedToUs:count 0
scalar TransportConnectionVisualizationMultipleConnectionsShowcase.server.eth[0].mac packetDropNotAddressedToUs:sum(packetBytes) 0
scalar TransportConnectionVisualizationMultipleConnectionsShowcase.server.eth[0] packetDropInterfaceDown:count 0
scalar TransportConnectionVisualizationMultipleConnectionsShowcase.server.eth[0] packetDropInterfaceDown:sum(packetBytes) 0
scalar TransportConnectionVisualizationMultipleConnectionsShowcase.server.eth[0] packetDropNoCarrier:count 0
scalar TransportConnectionVisualizationMultipleConnectionsShowcase.server.eth[0] packetDropNoCarrier:sum(packetBytes) 0
scalar TransportConnectionVisualizationMultipleConnectionsShowcase.server.ipv4.ip packetDropAddressResolutionFailed:count 0
scalar TransportConnectionVisualizationMultipleConnectionsShowcase.server.ipv4.ip packetDropAddressResolutionFailed:sum(packetBytes) 0
scalar TransportConnectionVisualizationMultipleConnectionsShowcase.server.ipv4.ip packetDropHopLimitReached:count 0
scalar TransportConnectionVisualizationMultipleConnectionsShowcase.server.ipv4.ip packetDropHopLimitReached:sum(packetBytes) 0
scalar TransportConnectionVisualizationMultipleConnectionsShowcase.server.ipv4.ip packetDropForwardingDisabled:count 0
scalar TransportConnectionVisualizationMultipleConnectionsShowcase.server.ipv4.ip packetDropForwardingDisabled:sum(packetBytes) 0
scalar TransportConnectionVisualizationMultipleConnectionsShowcase.server.ipv4.ip packetDropLifetimeExpired:count 0
scalar TransportConnectionVisualizationMultipleConnectionsShowcase.server.ipv4.ip packetDropLifetimeExpired:sum(packetBytes) 0
scalar TransportConnectionVisualizationMultipleConnectionsShowcase.server.ipv4.ip packetDropNoInterfaceFound:count 0
scalar TransportConnectionVisualizationMultipleConnectionsShowcase.server.ipv4.ip packetDropNoInterfaceFound:sum(packetBytes) 0
scalar TransportConnectionVisualizationMultipleConnectionsShowcase.server.ipv4.ip packetDropNoRouteFound:count 0
scalar TransportConnectionVisualizationMultipleConnectionsShowcase.server.ipv4.ip packetDropNoRouteFound:sum(packetBytes) 0
scalar TransportConnectionVisualizationMultipleConnectionsShowcase.server.ipv4.ip packetDropUndefined:count 0
scalar TransportConnectionVisualizationMultipleConnectionsShowcase.server.ipv4.ip packetDropUndefined:sum(packetBytes) 0
scalar TransportConnectionVisualizationMultipleConnectionsShowcase.server.ipv4.arp arpResolutionFailed:count 0
scalar TransportConnectionVisualizationMultipleConnectionsShowcase.server.ipv4.arp arpResolutionCompleted:count 1
scalar TransportConnectionVisualizationMultipleConnectionsShowcase.server.ipv4.arp arpResolutionInitiated:count 0
scalar TransportConnectionVisualizationMultipleConnectionsShowcase.server.ipv4.arp arpReplySent:count 1
scalar TransportConnectionVisualizationMultipleConnectionsShowcase.server.ipv4.arp arpReplySent:sum(packetBytes) 28
scalar TransportConnectionVisualizationMultipleConnectionsShowcase.server.ipv4.arp arpRequestSent:count 0
scalar TransportConnectionVisualizationMultipleConnectionsShowcase.server.ipv4.arp arpRequestSent:sum(packetBytes) 0
scalar TransportConnectionVisualizationMultipleConnectionsShowcase.server.udp packetReceived:count 0
scalar TransportConnectionVisualizationMultipleConnectionsShowcase.server.udp packetReceived:sum(packetBytes) 0
scalar TransportConnectionVisualizationMultipleConnectionsShowcase.server.udp packetSent:count 0
scalar TransportConnectionVisualizationMultipleConnectionsShowcase.server.udp packetSent:sum(packetBytes) 0
scalar TransportConnectionVisualizationMultipleConnectionsShowcase.server.udp passedUpPk:count 0
scalar TransportConnectionVisualizationMultipleConnectionsShowcase.server.udp droppedPkWrongPort:count 0
scalar TransportConnectionVisualizationMultipleConnectionsShowcase.server.udp droppedPkBadChecksum:count 0
scalar TransportConnectionVisualizationMultipleConnectionsShowcase.server.app[0] bytesRcvd 3145728
scalar TransportConnectionVisualizationMultipleConnectionsShowcase.server.app[0] packetReceived:count 5871
scalar TransportConnectionVisualizationMultipleConnectionsShowcase.server.app[0] packetReceived:sum(packetBytes) 3145728
scalar TransportConnectionVisualizationMultipleConnectionsShowcase.server.app[1] bytesRcvd 204800
scalar TransportConnectionVisualizationMultipleConnectionsShowcase.server.app[1] packetReceived:count 384
scalar TransportConnectionVisualizationMultipleConnectionsShowcase.server.app[1] packetReceived:sum(packetBytes) 204800
scalar TransportConnectionVisualizationMultipleConnectionsShowcase.host1.eth[0].queue queueingTime:histogram:count 4116
scalar TransportConnectionVisualizationMultipleConnectionsShowcase.host1.eth[0].queue queueingTime:histogram:sumweights 4116
scalar TransportConnectionVisualizationMultipleConnectionsShowcase.host1.eth[0].queue queueingTime:histogram:mean 4.2669387755102e-06
scalar TransportConnectionVisualizationMultipleConnectionsShowcase.host1.eth[0].queue queueingTime:histogram:stddev 3.1365030302677e-05
scalar TransportConnectionVisualizationMultipleConnectionsShowcase.host1.eth[0].queue queueingTime:histogram:min 0
scalar TransportConnectionVisualizationMultipleConnectionsShowcase.host1.eth[0].queue queueingTime:histogram:max 0.00034384
scalar TransportConnectionVisualizationMultipleConnectionsShowcase.host1.eth[0].queue queueingTime:histogram:numbins 86
scalar TransportConnectionVisualizationMultipleConnectionsShowcase.host1.eth[0].queue queueingTime:histogram:rangemin 0
scalar TransportConnectionVisualizationMultipleConnectionsShowcase.host1.eth[0].queue queueingTime:histogram:rangemax 0.00043
scalar TransportConnectionVisualizationMultipleConnectionsShowcase.host1.eth[0].queue queueingTime:histogram:underflows 0
scalar TransportConnectionVisualizationMultipleConnectionsShowcase.host1.eth[0].queue queueingTime:histogram:overflows 0
scalar TransportConnectionVisualizationMultipleConnectionsShowcase.host1.eth[0].queue outgoingPacketLengths:histogram:count 4116
scalar TransportConnectionVisualizationMultipleConnectionsShowcase.host1.eth[0].queue outgoingPacketLengths:histogram:sumweights 4116
scalar TransportConnectionVisualizationMultipleConnectionsShowcase.host1.eth[0].queue outgoingPacketLengths:histogram:mean 4739.1253644315
scalar TransportConnectionVisualizationMultipleConnectionsShowcase.host1.eth[0].queue outgoingPacketLengths:histogram:stddev 230.2055815925
scalar TransportConnectionVisualizationMultipleConnectionsShowcase.host1.eth[0].queue outgoingPacketLengths:histogram:min 368
scalar TransportConnectionVisualizationMultipleConnectionsShowcase.host1.eth[0].queue outgoingPacketLengths:histogram:max 4752
scalar TransportConnectionVisualizationMultipleConnectionsShowcase.host1.eth[0].queue outgoingPacketLengths:histogram:numbins 59
scalar TransportConnectionVisualizationMultipleConnectionsShowcase.host1.eth[0].queue outgoingPacketLengths:histogram:rangemin 0
scalar TransportConnectionVisualizationMultipleConnectionsShowcase.host1.eth[0].queue outgoingPacketLengths:histogram:rangemax 5900
scalar TransportConnectionVisualizationMultipleConnectionsShowcase.host1.eth[0].queue outgoingPacketLengths:histogram:underflows 0
scalar TransportConnectionVisualizationMultipleConnectionsShowcase.host1.eth[0].queue outgoingPacketLengths:histogram:overflows 0
scalar TransportConnectionVisualizationMultipleConnectionsShowcase.host1.eth[0].queue flowQueueingTime:histogram:count 0
scalar TransportConnectionVisualizationMultipleConnectionsShowcase.host1.eth[0].queue flowQueueingTime:histogram:sumweights 0
scalar TransportConnectionVisualizationMultipleConnectionsShowcase.host1.eth[0].queue flowQueueingTime:histogram:mean -nan
scalar TransportConnectionVisualizationMultipleConnectionsShowcase.host1.eth[0].queue flowQueueingTime:histogram:stddev nan
scalar TransportConnectionVisualizationMultipleConnectionsShowcase.host1.eth[0].queue flowQueueingTime:histogram:min nan
scalar TransportConnectionVisualizationMultipleConnectionsShowcase.host1.eth[0].queue flowQueueingTime:histogram:max nan
scalar TransportConnectionVisualizationMultipleConnectionsShowcase.host1.eth[0].queue flowQueueingTime:histogram:numbins 1
scalar TransportConnectionVisualizationMultipleConnectionsShowcase.host1.eth[0].queue flowQueueingTime:histogram:rangemin 0
scalar TransportConnectionVisualizationMultipleConnectionsShowcase.host1.eth[0].queue flowQueueingTime:histogram:rangemax 1
scalar TransportConnectionVisualizationMultipleConnectionsShowcase.host1.eth[0].queue flowQueueingTime:histogram:underflows 0
scalar TransportConnectionVisualizationMultipleConnectionsShowcase.host1.eth[0].queue flowQueueingTime:histogram:overflows 0
scalar TransportConnectionVisualizationMultipleConnectionsShowcase.host1.eth[0].queue incomingPacketLengths:histogram:count 4116
scalar TransportConnectionVisualizationMultipleConnectionsShowcase.host1.eth[0].queue incomingPacketLengths:histogram:sumweights 4116
scalar TransportConnectionVisualizationMultipleConnectionsShowcase.host1.eth[0].queue incomingPacketLengths:histogram:mean 4739.1253644315
scalar TransportConnectionVisualizationMultipleConnectionsShowcase.host1.eth[0].queue incomingPacketLengths:histogram:stddev 230.2055815925
scalar TransportConnectionVisualizationMultipleConnectionsShowcase.host1.eth[0].queue incomingPacketLengths:histogram:min 368
scalar TransportConnectionVisualizationMultipleConnectionsShowcase.host1.eth[0].queue incomingPacketLengths:histogram:max 4752
scalar TransportConnectionVisualizationMultipleConnectionsShowcase.host1.eth[0].queue incomingPacketLengths:histogram:numbins 59
scalar TransportConnectionVisualizationMultipleConnectionsShowcase.host1.eth[0].queue incomingPacketLengths:histogram:rangemin 0
scalar TransportConnectionVisualizationMultipleConnectionsShowcase.host1.eth[0].queue incomingPacketLengths:histogram:rangemax 5900
scalar TransportConnectionVisualizationMultipleConnectionsShowcase.host1.eth[0].queue incomingPacketLengths:histogram:underflows 0
scalar TransportConnectionVisualizationMultipleConnectionsShowcase.host1.eth[0].queue incomingPacketLengths:histogram:overflows 0
scalar TransportConnectionVisualizationMultipleConnectionsShowcase.host1.eth[0].mac throughput:histogram:count 58
scalar TransportConnectionVisualizationMultipleConnectionsShowcase.host1.eth[0].mac throughput:histogram:sumweights 58
scalar TransportConnectionVisualizationMultipleConnectionsShowcase.host1.eth[0].mac throughput:histogram:mean 46013255.408803
scalar TransportConnectionVisualizationMultipleConnectionsShowcase.host1.eth[0].mac throughput:histogram:stddev 30232285.311235
scalar TransportConnectionVisualizationMultipleConnectionsShowcase.host1.eth[0].mac throughput:histogram:min 0
scalar TransportConnectionVisualizationMultipleConnectionsShowcase.host1.eth[0].mac throughput:histogram:max 93645484.949833
scalar TransportConnectionVisualizationMultipleConnectionsShowcase.host1.eth[0].mac throughput:histogram:numbins 59
scalar TransportConnectionVisualizationMultipleConnectionsShowcase.host1.eth[0].mac throughput:histogram:rangemin 0
scalar TransportConnectionVisualizationMultipleConnectionsShowcase.host1.eth[0].mac throughput:histogram:rangemax 118000000
scalar TransportConnectionVisualizationMultipleConnectionsShowcase.host1.eth[0].mac throughput:histogram:underflows 0
scalar TransportConnectionVisualizationMultipleConnectionsShowcase.host1.eth[0].mac throughput:histogram:overflows 0
scalar TransportConnectionVisualizationMultipleConnectionsShowcase.host1.eth[0].mac utilization:histogram:count 58
scalar TransportConnectionVisualizationMultipleConnectionsShowcase.host1.eth[0].mac utilization:histogram:sumweights 58
scalar TransportConnectionVisualizationMultipleConnectionsShowcase.host1.eth[0].mac utilization:histogram:mean 46.026330452505
scalar TransportConnectionVisualizationMultipleConnectionsShowcase.host1.eth[0].mac utilization:histogram:stddev 30.250402730468
scalar TransportConnectionVisualizationMultipleConnectionsShowcase.host1.eth[0].mac utilization:histogram:min 0
scalar TransportConnectionVisualizationMultipleConnectionsShowcase.host1.eth[0].mac utilization:histogram:max 94.572744848359
scalar TransportConnectionVisualizationMultipleConnectionsShowcase.host1.eth[0].mac utilization:histogram:numbins 60
scalar TransportConnectionVisualizationMultipleConnectionsShowcase.host1.eth[0].mac utilization:histogram:rangemin 0
scalar TransportConnectionVisualizationMultipleConnectionsShowcase.host1.eth[0].mac utilization:histogram:rangemax 120
scalar TransportConnectionVisualizationMultipleConnectionsShowcase.host1.eth[0].mac utilization:histogram:underflows 0
scalar TransportConnectionVisualizationMultipleConnectionsShowcase.host1.eth[0].mac utilization:histogram:overflows 0
scalar TransportConnectionVisualizationMultipleConnectionsShowcase.host1.app[0] endToEndDelay:histogram:count 0
scalar TransportConnectionVisualizationMultipleConnectionsShowcase.host1.app[0] endToEndDelay:histogram:sumweights 0
scalar TransportConnectionVisualizationMultipleConnectionsShowcase.host1.app[0] endToEndDelay:histogram:mean -nan
scalar TransportConnectionVisualizationMultipleConnectionsShowcase.host1.app[0] endToEndDelay:histogram:stddev nan
scalar TransportConnectionVisualizationMultipleConnectionsShowcase.host1.app[0] endToEndDelay:histogram:min nan
scalar TransportConnectionVisualizationMultipleConnectionsShowcase.host1.app[0] endToEndDelay:histogram:max nan
scalar TransportConnectionVisualizationMultipleConnectionsShowcase.host1.app[0] endToEndDelay:histogram:numbins 1
scalar TransportConnectionVisualizationMultipleConnectionsShowcase.host1.app[0] endToEndDelay:histogram:rangemin 0
scalar TransportConnectionVisualizationMultipleConnectionsShowcase.host1.app[0] endToEndDelay:histogram:rangemax 1
scalar TransportConnectionVisualizationMultipleConnectionsShowcase.host1.app[0] endToEndDelay:histogram:underflows 0
scalar TransportConnectionVisualizationMultipleConnectionsShowcase.host1.app[0] endToEndDelay:histogram:overflows 0
scalar TransportConnectionVisualizationMultipleConnectionsShowcase.host1.app[0] endToEndDelay:weightedHistogram:count 0
scalar TransportConnectionVisualizationMultipleConnectionsShowcase.host1.app[0] endToEndDelay:weightedHistogram:sumweights 0
scalar TransportConnectionVisualizationMultipleConnectionsShowcase.host1.app[0] endToEndDelay:weightedHistogram:mean -nan
scalar TransportConnectionVisualizationMultipleConnectionsShowcase.host1.app[0] endToEndDelay:weightedHistogram:stddev nan
scalar TransportConnectionVisualizationMultipleConnectionsShowcase.host1.app[0] endToEndDelay:weightedHistogram:min nan
scalar TransportConnectionVisualizationMultipleConnectionsShowcase.host1.app[0] endToEndDelay:weightedHistogram:max nan
scalar TransportConnectionVisualizationMultipleConnectionsShowcase.host1.app[0] endToEndDelay:weightedHistogram:numbins 1
scalar TransportConnectionVisualizationMultipleConnectionsShowcase.host1.app[0] endToEndDelay:weightedHistogram:rangemin 0
scalar TransportConnectionVisualizationMultipleConnectionsShowcase.host1.app[0] endToEndDelay:weightedHistogram:rangemax 1
scalar TransportConnectionVisualizationMultipleConnectionsShowcase.host1.app[0] endToEndDelay:weightedHistogram:underflows 0
scalar TransportConnectionVisualizationMultipleConnectionsShowcase.host1.app[0] endToEndDelay:weightedHistogram:overflows 0
scalar TransportConnectionVisualizationMultipleConnectionsShowcase.host1.app[1] endToEndDelay:histogram:count 0
scalar TransportConnectionVisualizationMultipleConnectionsShowcase.host1.app[1] endToEndDelay:histogram:sumweights 0
scalar TransportConnectionVisualizationMultipleConnectionsShowcase.host1.app[1] endToEndDelay:histogram:mean -nan
scalar TransportConnectionVisualizationMultipleConnectionsShowcase.host1.app[1] endToEndDelay:histogram:stddev nan
scalar TransportConnectionVisualizationMultipleConnectionsShowcase.host1.app[1] endToEndDelay:histogram:min nan
scalar TransportConnectionVisualizationMultipleConnectionsShowcase.host1.app[1] endToEndDelay:histogram:max nan
scalar TransportConnectionVisualizationMultipleConnectionsShowcase.host1.app[1] endToEndDelay:histogram:numbins 1
scalar TransportConnectionVisualizationMultipleConnectionsShowcase.host1.app[1] endToEndDelay:histogram:rangemin 0
scalar TransportConnectionVisualizationMultipleConnectionsShowcase.host1.app[1] endToEndDelay:histogram:rangemax 1
scalar TransportConnectionVisualizationMultipleConnectionsShowcase.host1.app[1] endToEndDelay:histogram:underflows 0
scalar TransportConnectionVisualizationMultipleConnectionsShowcase.host1.app[1] endToEndDelay:histogram:overflows 0
scalar TransportConnectionVisualizationMultipleConnectionsShowcase.host1.app[1] endToEndDelay:weightedHistogram:count 0
scalar TransportConnectionVisualizationMultipleConnectionsShowcase.host1.app[1] endToEndDelay:weightedHistogram:sumweights 0
scalar TransportConnectionVisualizationMultipleConnectionsShowcase.host1.app[1] endToEndDelay:weightedHistogram:mean -nan
scalar TransportConnectionVisualizationMultipleConnectionsShowcase.host1.app[1] endToEndDelay:weightedHistogram:stddev nan
scalar TransportConnectionVisualizationMultipleConnectionsShowcase.host1.app[1] endToEndDelay:weightedHistogram:min nan
scalar TransportConnectionVisualizationMultipleConnectionsShowcase.host1.app[1] endToEndDelay:weightedHistogram:max nan
scalar TransportConnectionVisualizationMultipleConnectionsShowcase.host1.app[1] endToEndDelay:weightedHistogram:numbins 1
scalar TransportConnectionVisualizationMultipleConnectionsShowcase.host1.app[1] endToEndDelay:weightedHistogram:rangemin 0
scalar TransportConnectionVisualizationMultipleConnectionsShowcase.host1.app[1] endToEndDelay:weightedHistogram:rangemax 1
scalar TransportConnectionVisualizationMultipleConnectionsShowcase.host1.app[1] endToEndDelay:weightedHistogram:underflows 0
scalar TransportConnectionVisualizationMultipleConnectionsShowcase.host1.app[1] endToEndDelay:weightedHistogram:overflows 0
scalar TransportConnectionVisualizationMultipleConnectionsShowcase.host1.app[2] endToEndDelay:histogram:count 0
scalar TransportConnectionVisualizationMultipleConnectionsShowcase.host1.app[2] endToEndDelay:histogram:sumweights 0
scalar TransportConnectionVisualizationMultipleConnectionsShowcase.host1.app[2] endToEndDelay:histogram:mean -nan
scalar TransportConnectionVisualizationMultipleConnectionsShowcase.host1.app[2] endToEndDelay:histogram:stddev nan
scalar TransportConnectionVisualizationMultipleConnectionsShowcase.host1.app[2] endToEndDelay:histogram:min nan
scalar TransportConnectionVisualizationMultipleConnectionsShowcase.host1.app[2] endToEndDelay:histogram:max nan
scalar TransportConnectionVisualizationMultipleConnectionsShowcase.host1.app[2] endToEndDelay:histogram:numbins 1
scalar TransportConnectionVisualizationMultipleConnectionsShowcase.host1.app[2] endToEndDelay:histogram:rangemin 0
scalar TransportConnectionVisualizationMultipleConnectionsShowcase.host1.app[2] endToEndDelay:histogram:rangemax 1
scalar TransportConnectionVisualizationMultipleConnectionsShowcase.host1.app[2] endToEndDelay:histogram:underflows 0
scalar TransportConnectionVisualizationMultipleConnectionsShowcase.host1.app[2] endToEndDelay:histogram:overflows 0
scalar TransportConnectionVisualizationMultipleConnectionsShowcase.host1.app[2] endToEndDelay:weightedHistogram:count 0
scalar TransportConnectionVisualizationMultipleConnectionsShowcase.host1.app[2] endToEndDelay:weightedHistogram:sumweights 0
scalar TransportConnectionVisualizationMultipleConnectionsShowcase.host1.app[2] endToEndDelay:weightedHistogram:mean -nan
scalar TransportConnectionVisualizationMultipleConnectionsShowcase.host1.app[2] endToEndDelay:weightedHistogram:stddev nan
scalar TransportConnectionVisualizationMultipleConnectionsShowcase.host1.app[2] endToEndDelay:weightedHistogram:min nan
scalar TransportConnectionVisualizationMultipleConnectionsShowcase.host1.app[2] endToEndDelay:weightedHistogram:max nan
[...]
scalar TransportConnectionVisualizationMultipleConnectionsShowcase.server.tcp.conn-16 rtt:vector:sum 0
scalar TransportConnectionVisualizationMultipleConnectionsShowcase.server.tcp.conn-16 rtt:vector:sumweights 0
scalar TransportConnectionVisualizationMultipleConnectionsShowcase.server.tcp.conn-16 rtt:vector:mean -nan
scalar TransportConnectionVisualizationMultipleConnectionsShowcase.server.tcp.conn-16 rtt:vector:stddev nan
scalar TransportConnectionVisualizationMultipleConnectionsShowcase.server.tcp.conn-16 rtt:vector:min inf
scalar TransportConnectionVisualizationMultipleConnectionsShowcase.server.tcp.conn-16 rtt:vector:max -inf
scalar TransportConnectionVisualizationMultipleConnectionsShowcase.server.tcp.conn-16 rtt:vector:starttime nan
scalar TransportConnectionVisualizationMultipleConnectionsShowcase.server.tcp.conn-16 rtt:vector:endtime nan
scalar TransportConnectionVisualizationMultipleConnectionsShowcase.server.tcp.conn-16 srtt:vector:count 0
scalar TransportConnectionVisualizationMultipleConnectionsShowcase.server.tcp.conn-16 srtt:vector:sum 0
scalar TransportConnectionVisualizationMultipleConnectionsShowcase.server.tcp.conn-16 srtt:vector:sumweights 0
scalar TransportConnectionVisualizationMultipleConnectionsShowcase.server.tcp.conn-16 srtt:vector:mean -nan
scalar TransportConnectionVisualizationMultipleConnectionsShowcase.server.tcp.conn-16 srtt:vector:stddev nan
scalar TransportConnectionVisualizationMultipleConnectionsShowcase.server.tcp.conn-16 srtt:vector:min inf
scalar TransportConnectionVisualizationMultipleConnectionsShowcase.server.tcp.conn-16 srtt:vector:max -inf
scalar TransportConnectionVisualizationMultipleConnectionsShowcase.server.tcp.conn-16 srtt:vector:starttime nan
scalar TransportConnectionVisualizationMultipleConnectionsShowcase.server.tcp.conn-16 srtt:vector:endtime nan
scalar TransportConnectionVisualizationMultipleConnectionsShowcase.server.tcp.conn-16 rttvar:vector:count 0
scalar TransportConnectionVisualizationMultipleConnectionsShowcase.server.tcp.conn-16 rttvar:vector:sum 0
scalar TransportConnectionVisualizationMultipleConnectionsShowcase.server.tcp.conn-16 rttvar:vector:sumweights 0
scalar TransportConnectionVisualizationMultipleConnectionsShowcase.server.tcp.conn-16 rttvar:vector:mean -nan
scalar TransportConnectionVisualizationMultipleConnectionsShowcase.server.tcp.conn-16 rttvar:vector:stddev nan
scalar TransportConnectionVisualizationMultipleConnectionsShowcase.server.tcp.conn-16 rttvar:vector:min inf
scalar TransportConnectionVisualizationMultipleConnectionsShowcase.server.tcp.conn-16 rttvar:vector:max -inf
scalar TransportConnectionVisualizationMultipleConnectionsShowcase.server.tcp.conn-16 rttvar:vector:starttime nan
scalar TransportConnectionVisualizationMultipleConnectionsShowcase.server.tcp.conn-16 rttvar:vector:endtime nan
scalar TransportConnectionVisualizationMultipleConnectionsShowcase.server.tcp.conn-16 rto:vector:count 0
scalar TransportConnectionVisualizationMultipleConnectionsShowcase.server.tcp.conn-16 rto:vector:sum 0
scalar TransportConnectionVisualizationMultipleConnectionsShowcase.server.tcp.conn-16 rto:vector:sumweights 0
scalar TransportConnectionVisualizationMultipleConnectionsShowcase.server.tcp.conn-16 rto:vector:mean -nan
scalar TransportConnectionVisualizationMultipleConnectionsShowcase.server.tcp.conn-16 rto:vector:stddev nan
scalar TransportConnectionVisualizationMultipleConnectionsShowcase.server.tcp.conn-16 rto:vector:min inf
scalar TransportConnectionVisualizationMultipleConnectionsShowcase.server.tcp.conn-16 rto:vector:max -inf
scalar TransportConnectionVisualizationMultipleConnectionsShowcase.server.tcp.conn-16 rto:vector:starttime nan
scalar TransportConnectionVisualizationMultipleConnectionsShowcase.server.tcp.conn-16 rto:vector:endtime nan
scalar TransportConnectionVisualizationMultipleConnectionsShowcase.server.tcp.conn-16 numRtos:vector:count 0
scalar TransportConnectionVisualizationMultipleConnectionsShowcase.server.tcp.conn-16 numRtos:vector:sum 0
scalar TransportConnectionVisualizationMultipleConnectionsShowcase.server.tcp.conn-16 numRtos:vector:sumweights 0
scalar TransportConnectionVisualizationMultipleConnectionsShowcase.server.tcp.conn-16 numRtos:vector:mean -nan
scalar TransportConnectionVisualizationMultipleConnectionsShowcase.server.tcp.conn-16 numRtos:vector:stddev nan
scalar TransportConnectionVisualizationMultipleConnectionsShowcase.server.tcp.conn-16 numRtos:vector:min inf
scalar TransportConnectionVisualizationMultipleConnectionsShowcase.server.tcp.conn-16 numRtos:vector:max -inf
scalar TransportConnectionVisualizationMultipleConnectionsShowcase.server.tcp.conn-16 numRtos:vector:starttime nan
scalar TransportConnectionVisualizationMultipleConnectionsShowcase.server.tcp.conn-16 numRtos:vector:endtime nan
scalar TransportConnectionVisualizationMultipleConnectionsShowcase.server.tcp.conn-16 load:vector:count 0
scalar TransportConnectionVisualizationMultipleConnectionsShowcase.server.tcp.conn-16 load:vector:sum 0
scalar TransportConnectionVisualizationMultipleConnectionsShowcase.server.tcp.conn-16 load:vector:sumweights 0
scalar TransportConnectionVisualizationMultipleConnectionsShowcase.server.tcp.conn-16 load:vector:mean -nan
scalar TransportConnectionVisualizationMultipleConnectionsShowcase.server.tcp.conn-16 load:vector:stddev nan
scalar TransportConnectionVisualizationMultipleConnectionsShowcase.server.tcp.conn-16 load:vector:min inf
scalar TransportConnectionVisualizationMultipleConnectionsShowcase.server.tcp.conn-16 load:vector:max -inf
scalar TransportConnectionVisualizationMultipleConnectionsShowcase.server.tcp.conn-16 load:vector:starttime nan
scalar TransportConnectionVisualizationMultipleConnectionsShowcase.server.tcp.conn-16 load:vector:endtime nan
scalar TransportConnectionVisualizationMultipleConnectionsShowcase.server.tcp.conn-16 calcLoad:vector:count 0
scalar TransportConnectionVisualizationMultipleConnectionsShowcase.server.tcp.conn-16 calcLoad:vector:sum 0
scalar TransportConnectionVisualizationMultipleConnectionsShowcase.server.tcp.conn-16 calcLoad:vector:sumweights 0
scalar TransportConnectionVisualizationMultipleConnectionsShowcase.server.tcp.conn-16 calcLoad:vector:mean -nan
scalar TransportConnectionVisualizationMultipleConnectionsShowcase.server.tcp.conn-16 calcLoad:vector:stddev nan
scalar TransportConnectionVisualizationMultipleConnectionsShowcase.server.tcp.conn-16 calcLoad:vector:min inf
scalar TransportConnectionVisualizationMultipleConnectionsShowcase.server.tcp.conn-16 calcLoad:vector:max -inf
scalar TransportConnectionVisualizationMultipleConnectionsShowcase.server.tcp.conn-16 calcLoad:vector:starttime nan
scalar TransportConnectionVisualizationMultipleConnectionsShowcase.server.tcp.conn-16 calcLoad:vector:endtime nan
scalar TransportConnectionVisualizationMultipleConnectionsShowcase.server.tcp.conn-16 markingProb:vector:count 0
scalar TransportConnectionVisualizationMultipleConnectionsShowcase.server.tcp.conn-16 markingProb:vector:sum 0
scalar TransportConnectionVisualizationMultipleConnectionsShowcase.server.tcp.conn-16 markingProb:vector:sumweights 0
scalar TransportConnectionVisualizationMultipleConnectionsShowcase.server.tcp.conn-16 markingProb:vector:mean -nan
scalar TransportConnectionVisualizationMultipleConnectionsShowcase.server.tcp.conn-16 markingProb:vector:stddev nan
scalar TransportConnectionVisualizationMultipleConnectionsShowcase.server.tcp.conn-16 markingProb:vector:min inf
scalar TransportConnectionVisualizationMultipleConnectionsShowcase.server.tcp.conn-16 markingProb:vector:max -inf
scalar TransportConnectionVisualizationMultipleConnectionsShowcase.server.tcp.conn-16 markingProb:vector:starttime nan
scalar TransportConnectionVisualizationMultipleConnectionsShowcase.server.tcp.conn-16 markingProb:vector:endtime nan
scalar TransportConnectionVisualizationMultipleConnectionsShowcase.server.app[0].thread_12 packetReceived:vector(packetBytes):count 1957
scalar TransportConnectionVisualizationMultipleConnectionsShowcase.server.app[0].thread_12 packetReceived:vector(packetBytes):sum 1048576
scalar TransportConnectionVisualizationMultipleConnectionsShowcase.server.app[0].thread_12 packetReceived:vector(packetBytes):sumweights 1957
scalar TransportConnectionVisualizationMultipleConnectionsShowcase.server.app[0].thread_12 packetReceived:vector(packetBytes):mean 535.80786918753
scalar TransportConnectionVisualizationMultipleConnectionsShowcase.server.app[0].thread_12 packetReceived:vector(packetBytes):stddev 8.4994814834766
scalar TransportConnectionVisualizationMultipleConnectionsShowcase.server.app[0].thread_12 packetReceived:vector(packetBytes):min 160
scalar TransportConnectionVisualizationMultipleConnectionsShowcase.server.app[0].thread_12 packetReceived:vector(packetBytes):max 536
scalar TransportConnectionVisualizationMultipleConnectionsShowcase.server.app[0].thread_12 packetReceived:vector(packetBytes):starttime 0.00022107
scalar TransportConnectionVisualizationMultipleConnectionsShowcase.server.app[0].thread_12 packetReceived:vector(packetBytes):endtime 0.30681787
scalar TransportConnectionVisualizationMultipleConnectionsShowcase.server.app[0].thread_12 endToEndDelay:vector:count 1957
scalar TransportConnectionVisualizationMultipleConnectionsShowcase.server.app[0].thread_12 endToEndDelay:vector:sum 317.13813931
scalar TransportConnectionVisualizationMultipleConnectionsShowcase.server.app[0].thread_12 endToEndDelay:vector:sumweights 1957
scalar TransportConnectionVisualizationMultipleConnectionsShowcase.server.app[0].thread_12 endToEndDelay:vector:mean 0.16205321375064
scalar TransportConnectionVisualizationMultipleConnectionsShowcase.server.app[0].thread_12 endToEndDelay:vector:stddev 0.08490800049707
scalar TransportConnectionVisualizationMultipleConnectionsShowcase.server.app[0].thread_12 endToEndDelay:vector:min 0.00015135
scalar TransportConnectionVisualizationMultipleConnectionsShowcase.server.app[0].thread_12 endToEndDelay:vector:max 0.30674815
scalar TransportConnectionVisualizationMultipleConnectionsShowcase.server.app[0].thread_12 endToEndDelay:vector:starttime 0.00022107
scalar TransportConnectionVisualizationMultipleConnectionsShowcase.server.app[0].thread_12 endToEndDelay:vector:endtime 0.30681787
scalar TransportConnectionVisualizationMultipleConnectionsShowcase.server.app[0].thread_14 packetReceived:vector(packetBytes):count 1957
scalar TransportConnectionVisualizationMultipleConnectionsShowcase.server.app[0].thread_14 packetReceived:vector(packetBytes):sum 1048576
scalar TransportConnectionVisualizationMultipleConnectionsShowcase.server.app[0].thread_14 packetReceived:vector(packetBytes):sumweights 1957
scalar TransportConnectionVisualizationMultipleConnectionsShowcase.server.app[0].thread_14 packetReceived:vector(packetBytes):mean 535.80786918753
scalar TransportConnectionVisualizationMultipleConnectionsShowcase.server.app[0].thread_14 packetReceived:vector(packetBytes):stddev 8.4994814834766
scalar TransportConnectionVisualizationMultipleConnectionsShowcase.server.app[0].thread_14 packetReceived:vector(packetBytes):min 160
scalar TransportConnectionVisualizationMultipleConnectionsShowcase.server.app[0].thread_14 packetReceived:vector(packetBytes):max 536
scalar TransportConnectionVisualizationMultipleConnectionsShowcase.server.app[0].thread_14 packetReceived:vector(packetBytes):starttime 0.00027691
scalar TransportConnectionVisualizationMultipleConnectionsShowcase.server.app[0].thread_14 packetReceived:vector(packetBytes):endtime 0.30650411
scalar TransportConnectionVisualizationMultipleConnectionsShowcase.server.app[0].thread_14 endToEndDelay:vector:count 1957
scalar TransportConnectionVisualizationMultipleConnectionsShowcase.server.app[0].thread_14 endToEndDelay:vector:sum 316.11765067
scalar TransportConnectionVisualizationMultipleConnectionsShowcase.server.app[0].thread_14 endToEndDelay:vector:sumweights 1957
scalar TransportConnectionVisualizationMultipleConnectionsShowcase.server.app[0].thread_14 endToEndDelay:vector:mean 0.1615317581349
scalar TransportConnectionVisualizationMultipleConnectionsShowcase.server.app[0].thread_14 endToEndDelay:vector:stddev 0.084934932142785
scalar TransportConnectionVisualizationMultipleConnectionsShowcase.server.app[0].thread_14 endToEndDelay:vector:min 0.00019375
scalar TransportConnectionVisualizationMultipleConnectionsShowcase.server.app[0].thread_14 endToEndDelay:vector:max 0.30642095
scalar TransportConnectionVisualizationMultipleConnectionsShowcase.server.app[0].thread_14 endToEndDelay:vector:starttime 0.00027691
scalar TransportConnectionVisualizationMultipleConnectionsShowcase.server.app[0].thread_14 endToEndDelay:vector:endtime 0.30650411
scalar TransportConnectionVisualizationMultipleConnectionsShowcase.server.app[0].thread_13 packetReceived:vector(packetBytes):count 1957
scalar TransportConnectionVisualizationMultipleConnectionsShowcase.server.app[0].thread_13 packetReceived:vector(packetBytes):sum 1048576
scalar TransportConnectionVisualizationMultipleConnectionsShowcase.server.app[0].thread_13 packetReceived:vector(packetBytes):sumweights 1957
scalar TransportConnectionVisualizationMultipleConnectionsShowcase.server.app[0].thread_13 packetReceived:vector(packetBytes):mean 535.80786918753
scalar TransportConnectionVisualizationMultipleConnectionsShowcase.server.app[0].thread_13 packetReceived:vector(packetBytes):stddev 8.4994814834766
scalar TransportConnectionVisualizationMultipleConnectionsShowcase.server.app[0].thread_13 packetReceived:vector(packetBytes):min 160
scalar TransportConnectionVisualizationMultipleConnectionsShowcase.server.app[0].thread_13 packetReceived:vector(packetBytes):max 536
scalar TransportConnectionVisualizationMultipleConnectionsShowcase.server.app[0].thread_13 packetReceived:vector(packetBytes):starttime 0.00033275
scalar TransportConnectionVisualizationMultipleConnectionsShowcase.server.app[0].thread_13 packetReceived:vector(packetBytes):endtime 0.30727899
scalar TransportConnectionVisualizationMultipleConnectionsShowcase.server.app[0].thread_13 endToEndDelay:vector:count 1957
scalar TransportConnectionVisualizationMultipleConnectionsShowcase.server.app[0].thread_13 endToEndDelay:vector:sum 318.74390875
scalar TransportConnectionVisualizationMultipleConnectionsShowcase.server.app[0].thread_13 endToEndDelay:vector:sumweights 1957
scalar TransportConnectionVisualizationMultipleConnectionsShowcase.server.app[0].thread_13 endToEndDelay:vector:mean 0.16287373978028
scalar TransportConnectionVisualizationMultipleConnectionsShowcase.server.app[0].thread_13 endToEndDelay:vector:stddev 0.084836309007256
scalar TransportConnectionVisualizationMultipleConnectionsShowcase.server.app[0].thread_13 endToEndDelay:vector:min 0.00025631
scalar TransportConnectionVisualizationMultipleConnectionsShowcase.server.app[0].thread_13 endToEndDelay:vector:max 0.30720255
scalar TransportConnectionVisualizationMultipleConnectionsShowcase.server.app[0].thread_13 endToEndDelay:vector:starttime 0.00033275
scalar TransportConnectionVisualizationMultipleConnectionsShowcase.server.app[0].thread_13 endToEndDelay:vector:endtime 0.30727899
scalar TransportConnectionVisualizationMultipleConnectionsShowcase.server.app[1].thread_16 packetReceived:vector(packetBytes):count 192
scalar TransportConnectionVisualizationMultipleConnectionsShowcase.server.app[1].thread_16 packetReceived:vector(packetBytes):sum 102400
scalar TransportConnectionVisualizationMultipleConnectionsShowcase.server.app[1].thread_16 packetReceived:vector(packetBytes):sumweights 192
scalar TransportConnectionVisualizationMultipleConnectionsShowcase.server.app[1].thread_16 packetReceived:vector(packetBytes):mean 533.33333333333
scalar TransportConnectionVisualizationMultipleConnectionsShowcase.server.app[1].thread_16 packetReceived:vector(packetBytes):stddev 36.950417228136
scalar TransportConnectionVisualizationMultipleConnectionsShowcase.server.app[1].thread_16 packetReceived:vector(packetBytes):min 24
scalar TransportConnectionVisualizationMultipleConnectionsShowcase.server.app[1].thread_16 packetReceived:vector(packetBytes):max 536
scalar TransportConnectionVisualizationMultipleConnectionsShowcase.server.app[1].thread_16 packetReceived:vector(packetBytes):starttime 0.00038859
scalar TransportConnectionVisualizationMultipleConnectionsShowcase.server.app[1].thread_16 packetReceived:vector(packetBytes):endtime 0.04710987
scalar TransportConnectionVisualizationMultipleConnectionsShowcase.server.app[1].thread_16 endToEndDelay:vector:count 192
scalar TransportConnectionVisualizationMultipleConnectionsShowcase.server.app[1].thread_16 endToEndDelay:vector:sum 4.57786096
scalar TransportConnectionVisualizationMultipleConnectionsShowcase.server.app[1].thread_16 endToEndDelay:vector:sumweights 192
scalar TransportConnectionVisualizationMultipleConnectionsShowcase.server.app[1].thread_16 endToEndDelay:vector:mean 0.023843025833333
scalar TransportConnectionVisualizationMultipleConnectionsShowcase.server.app[1].thread_16 endToEndDelay:vector:stddev 0.01364538321495
scalar TransportConnectionVisualizationMultipleConnectionsShowcase.server.app[1].thread_16 endToEndDelay:vector:min 0.00029199
scalar TransportConnectionVisualizationMultipleConnectionsShowcase.server.app[1].thread_16 endToEndDelay:vector:max 0.04701327
scalar TransportConnectionVisualizationMultipleConnectionsShowcase.server.app[1].thread_16 endToEndDelay:vector:starttime 0.00038859
scalar TransportConnectionVisualizationMultipleConnectionsShowcase.server.app[1].thread_16 endToEndDelay:vector:endtime 0.04710987
scalar TransportConnectionVisualizationMultipleConnectionsShowcase.server.app[1].thread_15 packetReceived:vector(packetBytes):count 192
scalar TransportConnectionVisualizationMultipleConnectionsShowcase.server.app[1].thread_15 packetReceived:vector(packetBytes):sum 102400
scalar TransportConnectionVisualizationMultipleConnectionsShowcase.server.app[1].thread_15 packetReceived:vector(packetBytes):sumweights 192
scalar TransportConnectionVisualizationMultipleConnectionsShowcase.server.app[1].thread_15 packetReceived:vector(packetBytes):mean 533.33333333333
scalar TransportConnectionVisualizationMultipleConnectionsShowcase.server.app[1].thread_15 packetReceived:vector(packetBytes):stddev 36.950417228136
scalar TransportConnectionVisualizationMultipleConnectionsShowcase.server.app[1].thread_15 packetReceived:vector(packetBytes):min 24
scalar TransportConnectionVisualizationMultipleConnectionsShowcase.server.app[1].thread_15 packetReceived:vector(packetBytes):max 536
scalar TransportConnectionVisualizationMultipleConnectionsShowcase.server.app[1].thread_15 packetReceived:vector(packetBytes):starttime 0.00043771
scalar TransportConnectionVisualizationMultipleConnectionsShowcase.server.app[1].thread_15 packetReceived:vector(packetBytes):endtime 0.04824779
scalar TransportConnectionVisualizationMultipleConnectionsShowcase.server.app[1].thread_15 endToEndDelay:vector:count 192
scalar TransportConnectionVisualizationMultipleConnectionsShowcase.server.app[1].thread_15 endToEndDelay:vector:sum 4.84005184
scalar TransportConnectionVisualizationMultipleConnectionsShowcase.server.app[1].thread_15 endToEndDelay:vector:sumweights 192
scalar TransportConnectionVisualizationMultipleConnectionsShowcase.server.app[1].thread_15 endToEndDelay:vector:mean 0.025208603333333
scalar TransportConnectionVisualizationMultipleConnectionsShowcase.server.app[1].thread_15 endToEndDelay:vector:stddev 0.013751851602384
scalar TransportConnectionVisualizationMultipleConnectionsShowcase.server.app[1].thread_15 endToEndDelay:vector:min 0.00034783
scalar TransportConnectionVisualizationMultipleConnectionsShowcase.server.app[1].thread_15 endToEndDelay:vector:max 0.04815791
scalar TransportConnectionVisualizationMultipleConnectionsShowcase.server.app[1].thread_15 endToEndDelay:vector:starttime 0.00043771
scalar TransportConnectionVisualizationMultipleConnectionsShowcase.server.app[1].thread_15 endToEndDelay:vector:endtime 0.04824779

