version 3
run General-0-20260623-07:02:33-537001
attr configname General
attr datetime 20260623-07:02:33
attr datetimef 20260623-070233
attr experiment General
attr inifile omnetpp.ini
attr iterationvars ""
attr iterationvarsd ""
attr iterationvarsf ""
attr measurement ""
attr network PimDmIpv6
attr processid 537001
attr repetition 0
attr replication #0
attr resultdir results
attr runnumber 0
attr seedset 0
config **.param-recording false
config image-path /home/andras/projects/inet/images
config output-scalar-file results/omnetpp.ini-General-#0.sca
config output-scalar-precision 17
config output-vector-file results/omnetpp.ini-General-#0.vec
config output-vector-precision 17
config record-eventlog false
config sim-time-limit 120s
config network PimDmIpv6
config description "IPv6 PIM-DM flood-and-prune"
config sim-time-limit 120s
config **.pimConfig "xml(\"<config><interface mode=\\\"dense\\\"/></config>\")"
config **.ipv6.hasMld true
config **.neighbourDiscovery.dupAddrDetectTransmits 0
config **.Source1.numApps 1
config **.Source1.app[0].typename UdpBasicApp
config **.Source1.app[0].destAddresses "\"ff0e::1\""
config **.Source1.app[0].destPort 5000
config **.Source1.app[0].messageLength 100B
config **.Source1.app[0].timeToLive 10
config **.Source1.app[0].startTime 30s
config **.Source1.app[0].sendInterval 1s
config **.Source1.app[0].stopTime 115s
config **.Host2.numApps 1
config **.Host2.app[0].typename UdpSink
config **.Host2.app[0].localPort 5000
config **.Host2.app[0].multicastGroup "\"ff0e::1\""
config **.Host3.numApps 1
config **.Host3.app[0].typename UdpSink
config **.Host3.app[0].localPort 5000
config **.Host3.app[0].multicastGroup "\"ff0e::1\""
config **.Host3.app[0].startTime 70s
config **.eth[*].queue.typename EthernetQosQueue
config **.eth[*].queue.dataQueue.typename DropTailQueue
config **.eth[*].queue.dataQueue.packetCapacity 100

scalar PimDmIpv6.R1.ethernet pauseSent:count 0
scalar PimDmIpv6.R1.ethernet pauseSent:sum 0
scalar PimDmIpv6.R1.ethernet decapPk:count 109
scalar PimDmIpv6.R1.ethernet decapPk:sum(packetBytes) 14152
scalar PimDmIpv6.R1.ethernet encapPk:count 160
scalar PimDmIpv6.R1.ethernet encapPk:sum(packetBytes) 21174
scalar PimDmIpv6.R1.lo[0].lo rcvdPkFromHl:count 0
scalar PimDmIpv6.R1.lo[0].lo rcvdPkFromHl:sum(packetBytes) 0
scalar PimDmIpv6.R1.lo[0].lo passedUpPk:count 0
scalar PimDmIpv6.R1.lo[0].lo passedUpPk:sum(packetBytes) 0
scalar PimDmIpv6.R1.lo[0] packetDropInterfaceDown:count 0
scalar PimDmIpv6.R1.lo[0] packetDropInterfaceDown:sum(packetBytes) 0
scalar PimDmIpv6.R1.lo[0] packetDropNoCarrier:count 0
scalar PimDmIpv6.R1.lo[0] packetDropNoCarrier:sum(packetBytes) 0
scalar PimDmIpv6.R1.eth[0].queue.classifier packets:count 94
scalar PimDmIpv6.R1.eth[0].queue.classifier packetLengths:sum 118592
scalar PimDmIpv6.R1.eth[0].queue.pauseQueue queueLength:last 0
scalar PimDmIpv6.R1.eth[0].queue.pauseQueue queueLength:max 0
scalar PimDmIpv6.R1.eth[0].queue.pauseQueue queueLength:timeavg 0
scalar PimDmIpv6.R1.eth[0].queue.pauseQueue queueBitLength:last 0
scalar PimDmIpv6.R1.eth[0].queue.pauseQueue queueBitLength:max 0
scalar PimDmIpv6.R1.eth[0].queue.pauseQueue queueBitLength:timeavg 0
scalar PimDmIpv6.R1.eth[0].queue.pauseQueue outgoingPackets:count 0
scalar PimDmIpv6.R1.eth[0].queue.pauseQueue outgoingPacketLengths:sum 0
scalar PimDmIpv6.R1.eth[0].queue.pauseQueue incomingPackets:count 0
scalar PimDmIpv6.R1.eth[0].queue.pauseQueue incomingPacketLengths:sum 0
scalar PimDmIpv6.R1.eth[0].queue.pauseQueue droppedPacketsQueueOverflow:count 0
scalar PimDmIpv6.R1.eth[0].queue.pauseQueue droppedPacketLengthsQueueOverflow:sum 0
scalar PimDmIpv6.R1.eth[0].queue.dataQueue queueLength:last 0
scalar PimDmIpv6.R1.eth[0].queue.dataQueue queueLength:max 2
scalar PimDmIpv6.R1.eth[0].queue.dataQueue queueLength:timeavg 2.04e-07
scalar PimDmIpv6.R1.eth[0].queue.dataQueue queueBitLength:last 0
scalar PimDmIpv6.R1.eth[0].queue.dataQueue queueBitLength:max 1312
scalar PimDmIpv6.R1.eth[0].queue.dataQueue queueBitLength:timeavg 0.00013382399999999997
scalar PimDmIpv6.R1.eth[0].queue.dataQueue outgoingPackets:count 94
scalar PimDmIpv6.R1.eth[0].queue.dataQueue outgoingPacketLengths:sum 118592
scalar PimDmIpv6.R1.eth[0].queue.dataQueue incomingPackets:count 94
scalar PimDmIpv6.R1.eth[0].queue.dataQueue incomingPacketLengths:sum 118592
scalar PimDmIpv6.R1.eth[0].queue.dataQueue droppedPacketsQueueOverflow:count 0
scalar PimDmIpv6.R1.eth[0].queue.dataQueue droppedPacketLengthsQueueOverflow:sum 0
scalar PimDmIpv6.R1.eth[0].queue.scheduler packets:count 94
scalar PimDmIpv6.R1.eth[0].queue.scheduler packetLengths:sum 118592
scalar PimDmIpv6.R1.eth[0].queue queueLength:last -94
scalar PimDmIpv6.R1.eth[0].queue queueLength:max 0
scalar PimDmIpv6.R1.eth[0].queue queueLength:timeavg -40.84339605228912
scalar PimDmIpv6.R1.eth[0].queue queueBitLength:last -118592
scalar PimDmIpv6.R1.eth[0].queue queueBitLength:max 0
scalar PimDmIpv6.R1.eth[0].queue queueBitLength:timeavg -49527.50539398689
scalar PimDmIpv6.R1.eth[0].queue outgoingPackets:count 94
scalar PimDmIpv6.R1.eth[0].queue outgoingPacketLengths:sum 118592
scalar PimDmIpv6.R1.eth[0].queue incomingPackets:count 0
scalar PimDmIpv6.R1.eth[0].queue incomingPacketLengths:sum 0
scalar PimDmIpv6.R1.eth[0].queue droppedPacketsQueueOverflow:count 0
scalar PimDmIpv6.R1.eth[0].queue droppedPacketLengthsQueueOverflow:sum 0
scalar PimDmIpv6.R1.eth[0].mac "simulated time" 120
scalar PimDmIpv6.R1.eth[0].mac full-duplex 1
scalar PimDmIpv6.R1.eth[0].mac "frames/sec sent" 0.7833333333333333
scalar PimDmIpv6.R1.eth[0].mac "frames/sec rcvd" 0.08333333333333333
scalar PimDmIpv6.R1.eth[0].mac "bits/sec sent" 988.2666666666667
scalar PimDmIpv6.R1.eth[0].mac "bits/sec rcvd" 53.06666666666667
scalar PimDmIpv6.R1.eth[0].mac "rx channel idle (%)" 99.9999416
scalar PimDmIpv6.R1.eth[0].mac "rx channel utilization (%)" 5.84e-05
scalar PimDmIpv6.R1.eth[0].mac rxPausePkUnits:count 0
scalar PimDmIpv6.R1.eth[0].mac rxPausePkUnits:sum 0
scalar PimDmIpv6.R1.eth[0].mac txPausePkUnits:count 0
scalar PimDmIpv6.R1.eth[0].mac txPausePkUnits:sum 0
scalar PimDmIpv6.R1.eth[0].mac rxPkOk:count 10
scalar PimDmIpv6.R1.eth[0].mac rxPkOk:sum(packetBytes) 796
scalar PimDmIpv6.R1.eth[0].mac txPk:count 94
scalar PimDmIpv6.R1.eth[0].mac txPk:sum(packetBytes) 14824
scalar PimDmIpv6.R1.eth[0].mac packetReceivedFromUpper:count 94
scalar PimDmIpv6.R1.eth[0].mac packetReceivedFromUpper:sum(packetBytes) 14824
scalar PimDmIpv6.R1.eth[0].mac passedUpPk:count 10
scalar PimDmIpv6.R1.eth[0].mac passedUpPk:sum(packetBytes) 796
scalar PimDmIpv6.R1.eth[0].mac packetDropIncorrectlyReceived:count 0
scalar PimDmIpv6.R1.eth[0].mac packetDropIncorrectlyReceived:sum(packetBytes) 0
scalar PimDmIpv6.R1.eth[0].mac packetDropInterfaceDown:count 0
scalar PimDmIpv6.R1.eth[0].mac packetDropInterfaceDown:sum(packetBytes) 0
scalar PimDmIpv6.R1.eth[0].mac packetDropNotAddressedToUs:count 0
scalar PimDmIpv6.R1.eth[0].mac packetDropNotAddressedToUs:sum(packetBytes) 0
scalar PimDmIpv6.R1.eth[0] packetDropInterfaceDown:count 0
scalar PimDmIpv6.R1.eth[0] packetDropInterfaceDown:sum(packetBytes) 0
scalar PimDmIpv6.R1.eth[0] packetDropNoCarrier:count 0
scalar PimDmIpv6.R1.eth[0] packetDropNoCarrier:sum(packetBytes) 0
scalar PimDmIpv6.R1.eth[1].queue.classifier packets:count 55
scalar PimDmIpv6.R1.eth[1].queue.classifier packetLengths:sum 66496
scalar PimDmIpv6.R1.eth[1].queue.pauseQueue queueLength:last 0
scalar PimDmIpv6.R1.eth[1].queue.pauseQueue queueLength:max 0
scalar PimDmIpv6.R1.eth[1].queue.pauseQueue queueLength:timeavg 0
scalar PimDmIpv6.R1.eth[1].queue.pauseQueue queueBitLength:last 0
scalar PimDmIpv6.R1.eth[1].queue.pauseQueue queueBitLength:max 0
scalar PimDmIpv6.R1.eth[1].queue.pauseQueue queueBitLength:timeavg 0
scalar PimDmIpv6.R1.eth[1].queue.pauseQueue outgoingPackets:count 0
scalar PimDmIpv6.R1.eth[1].queue.pauseQueue outgoingPacketLengths:sum 0
scalar PimDmIpv6.R1.eth[1].queue.pauseQueue incomingPackets:count 0
scalar PimDmIpv6.R1.eth[1].queue.pauseQueue incomingPacketLengths:sum 0
scalar PimDmIpv6.R1.eth[1].queue.pauseQueue droppedPacketsQueueOverflow:count 0
scalar PimDmIpv6.R1.eth[1].queue.pauseQueue droppedPacketLengthsQueueOverflow:sum 0
scalar PimDmIpv6.R1.eth[1].queue.dataQueue queueLength:last 0
scalar PimDmIpv6.R1.eth[1].queue.dataQueue queueLength:max 2
scalar PimDmIpv6.R1.eth[1].queue.dataQueue queueLength:timeavg 2.04e-07
scalar PimDmIpv6.R1.eth[1].queue.dataQueue queueBitLength:last 0
scalar PimDmIpv6.R1.eth[1].queue.dataQueue queueBitLength:max 1312
scalar PimDmIpv6.R1.eth[1].queue.dataQueue queueBitLength:timeavg 0.00013382399999999997
scalar PimDmIpv6.R1.eth[1].queue.dataQueue outgoingPackets:count 55
scalar PimDmIpv6.R1.eth[1].queue.dataQueue outgoingPacketLengths:sum 66496
scalar PimDmIpv6.R1.eth[1].queue.dataQueue incomingPackets:count 55
scalar PimDmIpv6.R1.eth[1].queue.dataQueue incomingPacketLengths:sum 66496
scalar PimDmIpv6.R1.eth[1].queue.dataQueue droppedPacketsQueueOverflow:count 0
scalar PimDmIpv6.R1.eth[1].queue.dataQueue droppedPacketLengthsQueueOverflow:sum 0
scalar PimDmIpv6.R1.eth[1].queue.scheduler packets:count 55
scalar PimDmIpv6.R1.eth[1].queue.scheduler packetLengths:sum 66496
scalar PimDmIpv6.R1.eth[1].queue queueLength:last -55
scalar PimDmIpv6.R1.eth[1].queue queueLength:max 0
scalar PimDmIpv6.R1.eth[1].queue queueLength:timeavg -18.04399101031419
scalar PimDmIpv6.R1.eth[1].queue queueBitLength:last -66496
scalar PimDmIpv6.R1.eth[1].queue queueBitLength:max 0
scalar PimDmIpv6.R1.eth[1].queue queueBitLength:timeavg -19156.432093312662
scalar PimDmIpv6.R1.eth[1].queue outgoingPackets:count 55
scalar PimDmIpv6.R1.eth[1].queue outgoingPacketLengths:sum 66496
scalar PimDmIpv6.R1.eth[1].queue incomingPackets:count 0
scalar PimDmIpv6.R1.eth[1].queue incomingPacketLengths:sum 0
scalar PimDmIpv6.R1.eth[1].queue droppedPacketsQueueOverflow:count 0
scalar PimDmIpv6.R1.eth[1].queue droppedPacketLengthsQueueOverflow:sum 0
scalar PimDmIpv6.R1.eth[1].mac "simulated time" 120
scalar PimDmIpv6.R1.eth[1].mac full-duplex 1
scalar PimDmIpv6.R1.eth[1].mac "frames/sec sent" 0.4583333333333333
scalar PimDmIpv6.R1.eth[1].mac "frames/sec rcvd" 0.1
scalar PimDmIpv6.R1.eth[1].mac "bits/sec sent" 554.1333333333333
scalar PimDmIpv6.R1.eth[1].mac "bits/sec rcvd" 70.13333333333334
scalar PimDmIpv6.R1.eth[1].mac "rx channel idle (%)" 99.99992346666666
scalar PimDmIpv6.R1.eth[1].mac "rx channel utilization (%)" 7.653333333333333e-05
scalar PimDmIpv6.R1.eth[1].mac rxPausePkUnits:count 0
scalar PimDmIpv6.R1.eth[1].mac rxPausePkUnits:sum 0
scalar PimDmIpv6.R1.eth[1].mac txPausePkUnits:count 0
scalar PimDmIpv6.R1.eth[1].mac txPausePkUnits:sum 0
scalar PimDmIpv6.R1.eth[1].mac rxPkOk:count 12
scalar PimDmIpv6.R1.eth[1].mac rxPkOk:sum(packetBytes) 1052
scalar PimDmIpv6.R1.eth[1].mac txPk:count 55
scalar PimDmIpv6.R1.eth[1].mac txPk:sum(packetBytes) 8312
scalar PimDmIpv6.R1.eth[1].mac packetReceivedFromUpper:count 55
scalar PimDmIpv6.R1.eth[1].mac packetReceivedFromUpper:sum(packetBytes) 8312
scalar PimDmIpv6.R1.eth[1].mac passedUpPk:count 12
scalar PimDmIpv6.R1.eth[1].mac passedUpPk:sum(packetBytes) 1052
scalar PimDmIpv6.R1.eth[1].mac packetDropIncorrectlyReceived:count 0
scalar PimDmIpv6.R1.eth[1].mac packetDropIncorrectlyReceived:sum(packetBytes) 0
scalar PimDmIpv6.R1.eth[1].mac packetDropInterfaceDown:count 0
scalar PimDmIpv6.R1.eth[1].mac packetDropInterfaceDown:sum(packetBytes) 0
scalar PimDmIpv6.R1.eth[1].mac packetDropNotAddressedToUs:count 0
scalar PimDmIpv6.R1.eth[1].mac packetDropNotAddressedToUs:sum(packetBytes) 0
scalar PimDmIpv6.R1.eth[1] packetDropInterfaceDown:count 0
scalar PimDmIpv6.R1.eth[1] packetDropInterfaceDown:sum(packetBytes) 0
scalar PimDmIpv6.R1.eth[1] packetDropNoCarrier:count 0
scalar PimDmIpv6.R1.eth[1] packetDropNoCarrier:sum(packetBytes) 0
scalar PimDmIpv6.R1.eth[2].queue.classifier packets:count 11
scalar PimDmIpv6.R1.eth[2].queue.classifier packetLengths:sum 7344
scalar PimDmIpv6.R1.eth[2].queue.pauseQueue queueLength:last 0
scalar PimDmIpv6.R1.eth[2].queue.pauseQueue queueLength:max 0
scalar PimDmIpv6.R1.eth[2].queue.pauseQueue queueLength:timeavg 0
scalar PimDmIpv6.R1.eth[2].queue.pauseQueue queueBitLength:last 0
scalar PimDmIpv6.R1.eth[2].queue.pauseQueue queueBitLength:max 0
scalar PimDmIpv6.R1.eth[2].queue.pauseQueue queueBitLength:timeavg 0
scalar PimDmIpv6.R1.eth[2].queue.pauseQueue outgoingPackets:count 0
scalar PimDmIpv6.R1.eth[2].queue.pauseQueue outgoingPacketLengths:sum 0
scalar PimDmIpv6.R1.eth[2].queue.pauseQueue incomingPackets:count 0
scalar PimDmIpv6.R1.eth[2].queue.pauseQueue incomingPacketLengths:sum 0
scalar PimDmIpv6.R1.eth[2].queue.pauseQueue droppedPacketsQueueOverflow:count 0
scalar PimDmIpv6.R1.eth[2].queue.pauseQueue droppedPacketLengthsQueueOverflow:sum 0
scalar PimDmIpv6.R1.eth[2].queue.dataQueue queueLength:last 0
scalar PimDmIpv6.R1.eth[2].queue.dataQueue queueLength:max 2
scalar PimDmIpv6.R1.eth[2].queue.dataQueue queueLength:timeavg 2.04e-07
scalar PimDmIpv6.R1.eth[2].queue.dataQueue queueBitLength:last 0
scalar PimDmIpv6.R1.eth[2].queue.dataQueue queueBitLength:max 1312
scalar PimDmIpv6.R1.eth[2].queue.dataQueue queueBitLength:timeavg 0.00013382399999999997
scalar PimDmIpv6.R1.eth[2].queue.dataQueue outgoingPackets:count 11
scalar PimDmIpv6.R1.eth[2].queue.dataQueue outgoingPacketLengths:sum 7344
scalar PimDmIpv6.R1.eth[2].queue.dataQueue incomingPackets:count 11
scalar PimDmIpv6.R1.eth[2].queue.dataQueue incomingPacketLengths:sum 7344
scalar PimDmIpv6.R1.eth[2].queue.dataQueue droppedPacketsQueueOverflow:count 0
scalar PimDmIpv6.R1.eth[2].queue.dataQueue droppedPacketLengthsQueueOverflow:sum 0
scalar PimDmIpv6.R1.eth[2].queue.scheduler packets:count 11
scalar PimDmIpv6.R1.eth[2].queue.scheduler packetLengths:sum 7344
scalar PimDmIpv6.R1.eth[2].queue queueLength:last -11
scalar PimDmIpv6.R1.eth[2].queue queueLength:max 0
scalar PimDmIpv6.R1.eth[2].queue queueLength:timeavg -8.987675932370033
scalar PimDmIpv6.R1.eth[2].queue queueBitLength:last -7344
scalar PimDmIpv6.R1.eth[2].queue queueBitLength:max 0
scalar PimDmIpv6.R1.eth[2].queue queueBitLength:timeavg -6098.923907211277
scalar PimDmIpv6.R1.eth[2].queue outgoingPackets:count 11
scalar PimDmIpv6.R1.eth[2].queue outgoingPacketLengths:sum 7344
scalar PimDmIpv6.R1.eth[2].queue incomingPackets:count 0
scalar PimDmIpv6.R1.eth[2].queue incomingPacketLengths:sum 0
scalar PimDmIpv6.R1.eth[2].queue droppedPacketsQueueOverflow:count 0
scalar PimDmIpv6.R1.eth[2].queue droppedPacketLengthsQueueOverflow:sum 0
scalar PimDmIpv6.R1.eth[2].mac "simulated time" 120
scalar PimDmIpv6.R1.eth[2].mac full-duplex 1
scalar PimDmIpv6.R1.eth[2].mac "frames/sec sent" 0.09166666666666666
scalar PimDmIpv6.R1.eth[2].mac "frames/sec rcvd" 0.725
scalar PimDmIpv6.R1.eth[2].mac "bits/sec sent" 61.2
scalar PimDmIpv6.R1.eth[2].mac "bits/sec rcvd" 951.0666666666667
scalar PimDmIpv6.R1.eth[2].mac "rx channel idle (%)" 99.99900253333334
scalar PimDmIpv6.R1.eth[2].mac "rx channel utilization (%)" 0.0009974666666666666
scalar PimDmIpv6.R1.eth[2].mac rxPausePkUnits:count 0
scalar PimDmIpv6.R1.eth[2].mac rxPausePkUnits:sum 0
scalar PimDmIpv6.R1.eth[2].mac txPausePkUnits:count 0
scalar PimDmIpv6.R1.eth[2].mac txPausePkUnits:sum 0
scalar PimDmIpv6.R1.eth[2].mac rxPkOk:count 87
scalar PimDmIpv6.R1.eth[2].mac rxPkOk:sum(packetBytes) 14266
scalar PimDmIpv6.R1.eth[2].mac txPk:count 11
scalar PimDmIpv6.R1.eth[2].mac txPk:sum(packetBytes) 918
scalar PimDmIpv6.R1.eth[2].mac packetReceivedFromUpper:count 11
scalar PimDmIpv6.R1.eth[2].mac packetReceivedFromUpper:sum(packetBytes) 918
scalar PimDmIpv6.R1.eth[2].mac passedUpPk:count 87
scalar PimDmIpv6.R1.eth[2].mac passedUpPk:sum(packetBytes) 14266
scalar PimDmIpv6.R1.eth[2].mac packetDropIncorrectlyReceived:count 0
scalar PimDmIpv6.R1.eth[2].mac packetDropIncorrectlyReceived:sum(packetBytes) 0
scalar PimDmIpv6.R1.eth[2].mac packetDropInterfaceDown:count 0
scalar PimDmIpv6.R1.eth[2].mac packetDropInterfaceDown:sum(packetBytes) 0
scalar PimDmIpv6.R1.eth[2].mac packetDropNotAddressedToUs:count 0
scalar PimDmIpv6.R1.eth[2].mac packetDropNotAddressedToUs:sum(packetBytes) 0
scalar PimDmIpv6.R1.eth[2] packetDropInterfaceDown:count 0
scalar PimDmIpv6.R1.eth[2] packetDropInterfaceDown:sum(packetBytes) 0
scalar PimDmIpv6.R1.eth[2] packetDropNoCarrier:count 0
scalar PimDmIpv6.R1.eth[2] packetDropNoCarrier:sum(packetBytes) 0
scalar PimDmIpv6.R1.ipv6.neighbourDiscovery dadFailed:count 0
scalar PimDmIpv6.R1.ipv6.neighbourDiscovery dadCompleted:count 3
scalar PimDmIpv6.R1.ipv6.neighbourDiscovery startDad:count 0
scalar PimDmIpv6.R2.ethernet pauseSent:count 0
scalar PimDmIpv6.R2.ethernet pauseSent:sum 0
scalar PimDmIpv6.R2.ethernet decapPk:count 101
scalar PimDmIpv6.R2.ethernet decapPk:sum(packetBytes) 13564
scalar PimDmIpv6.R2.ethernet encapPk:count 117
scalar PimDmIpv6.R2.ethernet encapPk:sum(packetBytes) 14636
scalar PimDmIpv6.R2.lo[0].lo rcvdPkFromHl:count 0
scalar PimDmIpv6.R2.lo[0].lo rcvdPkFromHl:sum(packetBytes) 0
scalar PimDmIpv6.R2.lo[0].lo passedUpPk:count 0
scalar PimDmIpv6.R2.lo[0].lo passedUpPk:sum(packetBytes) 0
scalar PimDmIpv6.R2.lo[0] packetDropInterfaceDown:count 0
scalar PimDmIpv6.R2.lo[0] packetDropInterfaceDown:sum(packetBytes) 0
scalar PimDmIpv6.R2.lo[0] packetDropNoCarrier:count 0
scalar PimDmIpv6.R2.lo[0] packetDropNoCarrier:sum(packetBytes) 0
scalar PimDmIpv6.R2.eth[0].queue.classifier packets:count 10
scalar PimDmIpv6.R2.eth[0].queue.classifier packetLengths:sum 6368
scalar PimDmIpv6.R2.eth[0].queue.pauseQueue queueLength:last 0
scalar PimDmIpv6.R2.eth[0].queue.pauseQueue queueLength:max 0
scalar PimDmIpv6.R2.eth[0].queue.pauseQueue queueLength:timeavg 0
scalar PimDmIpv6.R2.eth[0].queue.pauseQueue queueBitLength:last 0
scalar PimDmIpv6.R2.eth[0].queue.pauseQueue queueBitLength:max 0
scalar PimDmIpv6.R2.eth[0].queue.pauseQueue queueBitLength:timeavg 0
scalar PimDmIpv6.R2.eth[0].queue.pauseQueue outgoingPackets:count 0
scalar PimDmIpv6.R2.eth[0].queue.pauseQueue outgoingPacketLengths:sum 0
scalar PimDmIpv6.R2.eth[0].queue.pauseQueue incomingPackets:count 0
scalar PimDmIpv6.R2.eth[0].queue.pauseQueue incomingPacketLengths:sum 0
scalar PimDmIpv6.R2.eth[0].queue.pauseQueue droppedPacketsQueueOverflow:count 0
scalar PimDmIpv6.R2.eth[0].queue.pauseQueue droppedPacketLengthsQueueOverflow:sum 0
scalar PimDmIpv6.R2.eth[0].queue.dataQueue queueLength:last 0
scalar PimDmIpv6.R2.eth[0].queue.dataQueue queueLength:max 2
scalar PimDmIpv6.R2.eth[0].queue.dataQueue queueLength:timeavg 2.04e-07
scalar PimDmIpv6.R2.eth[0].queue.dataQueue queueBitLength:last 0
scalar PimDmIpv6.R2.eth[0].queue.dataQueue queueBitLength:max 1312
scalar PimDmIpv6.R2.eth[0].queue.dataQueue queueBitLength:timeavg 0.00013382399999999997
scalar PimDmIpv6.R2.eth[0].queue.dataQueue outgoingPackets:count 10
scalar PimDmIpv6.R2.eth[0].queue.dataQueue outgoingPacketLengths:sum 6368
scalar PimDmIpv6.R2.eth[0].queue.dataQueue incomingPackets:count 10
scalar PimDmIpv6.R2.eth[0].queue.dataQueue incomingPacketLengths:sum 6368
scalar PimDmIpv6.R2.eth[0].queue.dataQueue droppedPacketsQueueOverflow:count 0
scalar PimDmIpv6.R2.eth[0].queue.dataQueue droppedPacketLengthsQueueOverflow:sum 0
scalar PimDmIpv6.R2.eth[0].queue.scheduler packets:count 10
scalar PimDmIpv6.R2.eth[0].queue.scheduler packetLengths:sum 6368
scalar PimDmIpv6.R2.eth[0].queue queueLength:last -10
scalar PimDmIpv6.R2.eth[0].queue queueLength:max 0
scalar PimDmIpv6.R2.eth[0].queue queueLength:timeavg -7.851569571717492
scalar PimDmIpv6.R2.eth[0].queue queueBitLength:last -6368
scalar PimDmIpv6.R2.eth[0].queue queueBitLength:max 0
scalar PimDmIpv6.R2.eth[0].queue queueBitLength:timeavg -5031.77646533068
scalar PimDmIpv6.R2.eth[0].queue outgoingPackets:count 10
scalar PimDmIpv6.R2.eth[0].queue outgoingPacketLengths:sum 6368
scalar PimDmIpv6.R2.eth[0].queue incomingPackets:count 0
scalar PimDmIpv6.R2.eth[0].queue incomingPacketLengths:sum 0
scalar PimDmIpv6.R2.eth[0].queue droppedPacketsQueueOverflow:count 0
scalar PimDmIpv6.R2.eth[0].queue droppedPacketLengthsQueueOverflow:sum 0
scalar PimDmIpv6.R2.eth[0].mac "simulated time" 120
scalar PimDmIpv6.R2.eth[0].mac full-duplex 1
scalar PimDmIpv6.R2.eth[0].mac "frames/sec sent" 0.08333333333333333
scalar PimDmIpv6.R2.eth[0].mac "frames/sec rcvd" 0.7833333333333333
scalar PimDmIpv6.R2.eth[0].mac "bits/sec sent" 53.06666666666667
scalar PimDmIpv6.R2.eth[0].mac "bits/sec rcvd" 988.2666666666667
scalar PimDmIpv6.R2.eth[0].mac "rx channel idle (%)" 99.9989616
scalar PimDmIpv6.R2.eth[0].mac "rx channel utilization (%)" 0.0010383999999999999
scalar PimDmIpv6.R2.eth[0].mac rxPausePkUnits:count 0
scalar PimDmIpv6.R2.eth[0].mac rxPausePkUnits:sum 0
scalar PimDmIpv6.R2.eth[0].mac txPausePkUnits:count 0
scalar PimDmIpv6.R2.eth[0].mac txPausePkUnits:sum 0
scalar PimDmIpv6.R2.eth[0].mac rxPkOk:count 94
scalar PimDmIpv6.R2.eth[0].mac rxPkOk:sum(packetBytes) 14824
scalar PimDmIpv6.R2.eth[0].mac txPk:count 10
scalar PimDmIpv6.R2.eth[0].mac txPk:sum(packetBytes) 796
scalar PimDmIpv6.R2.eth[0].mac packetReceivedFromUpper:count 10
scalar PimDmIpv6.R2.eth[0].mac packetReceivedFromUpper:sum(packetBytes) 796
scalar PimDmIpv6.R2.eth[0].mac passedUpPk:count 94
scalar PimDmIpv6.R2.eth[0].mac passedUpPk:sum(packetBytes) 14824
scalar PimDmIpv6.R2.eth[0].mac packetDropIncorrectlyReceived:count 0
scalar PimDmIpv6.R2.eth[0].mac packetDropIncorrectlyReceived:sum(packetBytes) 0
scalar PimDmIpv6.R2.eth[0].mac packetDropInterfaceDown:count 0
scalar PimDmIpv6.R2.eth[0].mac packetDropInterfaceDown:sum(packetBytes) 0
scalar PimDmIpv6.R2.eth[0].mac packetDropNotAddressedToUs:count 0
scalar PimDmIpv6.R2.eth[0].mac packetDropNotAddressedToUs:sum(packetBytes) 0
scalar PimDmIpv6.R2.eth[0] packetDropInterfaceDown:count 0
scalar PimDmIpv6.R2.eth[0] packetDropInterfaceDown:sum(packetBytes) 0
scalar PimDmIpv6.R2.eth[0] packetDropNoCarrier:count 0
scalar PimDmIpv6.R2.eth[0] packetDropNoCarrier:sum(packetBytes) 0
scalar PimDmIpv6.R2.eth[1].queue.classifier packets:count 11
scalar PimDmIpv6.R2.eth[1].queue.classifier packetLengths:sum 7344
scalar PimDmIpv6.R2.eth[1].queue.pauseQueue queueLength:last 0
scalar PimDmIpv6.R2.eth[1].queue.pauseQueue queueLength:max 0
scalar PimDmIpv6.R2.eth[1].queue.pauseQueue queueLength:timeavg 0
scalar PimDmIpv6.R2.eth[1].queue.pauseQueue queueBitLength:last 0
scalar PimDmIpv6.R2.eth[1].queue.pauseQueue queueBitLength:max 0
scalar PimDmIpv6.R2.eth[1].queue.pauseQueue queueBitLength:timeavg 0
scalar PimDmIpv6.R2.eth[1].queue.pauseQueue outgoingPackets:count 0
scalar PimDmIpv6.R2.eth[1].queue.pauseQueue outgoingPacketLengths:sum 0
scalar PimDmIpv6.R2.eth[1].queue.pauseQueue incomingPackets:count 0
scalar PimDmIpv6.R2.eth[1].queue.pauseQueue incomingPacketLengths:sum 0
scalar PimDmIpv6.R2.eth[1].queue.pauseQueue droppedPacketsQueueOverflow:count 0
scalar PimDmIpv6.R2.eth[1].queue.pauseQueue droppedPacketLengthsQueueOverflow:sum 0
scalar PimDmIpv6.R2.eth[1].queue.dataQueue queueLength:last 0
scalar PimDmIpv6.R2.eth[1].queue.dataQueue queueLength:max 2
scalar PimDmIpv6.R2.eth[1].queue.dataQueue queueLength:timeavg 2.04e-07
scalar PimDmIpv6.R2.eth[1].queue.dataQueue queueBitLength:last 0
scalar PimDmIpv6.R2.eth[1].queue.dataQueue queueBitLength:max 1312
scalar PimDmIpv6.R2.eth[1].queue.dataQueue queueBitLength:timeavg 0.00013382399999999997
scalar PimDmIpv6.R2.eth[1].queue.dataQueue outgoingPackets:count 11
scalar PimDmIpv6.R2.eth[1].queue.dataQueue outgoingPacketLengths:sum 7344
scalar PimDmIpv6.R2.eth[1].queue.dataQueue incomingPackets:count 11
scalar PimDmIpv6.R2.eth[1].queue.dataQueue incomingPacketLengths:sum 7344
scalar PimDmIpv6.R2.eth[1].queue.dataQueue droppedPacketsQueueOverflow:count 0
scalar PimDmIpv6.R2.eth[1].queue.dataQueue droppedPacketLengthsQueueOverflow:sum 0
scalar PimDmIpv6.R2.eth[1].queue.scheduler packets:count 11
scalar PimDmIpv6.R2.eth[1].queue.scheduler packetLengths:sum 7344
scalar PimDmIpv6.R2.eth[1].queue queueLength:last -11
scalar PimDmIpv6.R2.eth[1].queue queueLength:max 0
scalar PimDmIpv6.R2.eth[1].queue queueLength:timeavg -9.099939816023634
scalar PimDmIpv6.R2.eth[1].queue queueBitLength:last -7344
scalar PimDmIpv6.R2.eth[1].queue queueBitLength:max 0
scalar PimDmIpv6.R2.eth[1].queue queueBitLength:timeavg -6165.529233209758
scalar PimDmIpv6.R2.eth[1].queue outgoingPackets:count 11
scalar PimDmIpv6.R2.eth[1].queue outgoingPacketLengths:sum 7344
scalar PimDmIpv6.R2.eth[1].queue incomingPackets:count 0
scalar PimDmIpv6.R2.eth[1].queue incomingPacketLengths:sum 0
scalar PimDmIpv6.R2.eth[1].queue droppedPacketsQueueOverflow:count 0
scalar PimDmIpv6.R2.eth[1].queue droppedPacketLengthsQueueOverflow:sum 0
scalar PimDmIpv6.R2.eth[1].mac "simulated time" 120
scalar PimDmIpv6.R2.eth[1].mac full-duplex 1
scalar PimDmIpv6.R2.eth[1].mac "frames/sec sent" 0.09166666666666666
scalar PimDmIpv6.R2.eth[1].mac "frames/sec rcvd" 0.016666666666666666
scalar PimDmIpv6.R2.eth[1].mac "bits/sec sent" 61.2
scalar PimDmIpv6.R2.eth[1].mac "bits/sec rcvd" 10.4
scalar PimDmIpv6.R2.eth[1].mac "rx channel idle (%)" 99.99998853333332
scalar PimDmIpv6.R2.eth[1].mac "rx channel utilization (%)" 1.1466666666666666e-05
scalar PimDmIpv6.R2.eth[1].mac rxPausePkUnits:count 0
scalar PimDmIpv6.R2.eth[1].mac rxPausePkUnits:sum 0
scalar PimDmIpv6.R2.eth[1].mac txPausePkUnits:count 0
scalar PimDmIpv6.R2.eth[1].mac txPausePkUnits:sum 0
scalar PimDmIpv6.R2.eth[1].mac rxPkOk:count 2
scalar PimDmIpv6.R2.eth[1].mac rxPkOk:sum(packetBytes) 156
scalar PimDmIpv6.R2.eth[1].mac txPk:count 11
scalar PimDmIpv6.R2.eth[1].mac txPk:sum(packetBytes) 918
scalar PimDmIpv6.R2.eth[1].mac packetReceivedFromUpper:count 11
scalar PimDmIpv6.R2.eth[1].mac packetReceivedFromUpper:sum(packetBytes) 918
scalar PimDmIpv6.R2.eth[1].mac passedUpPk:count 2
scalar PimDmIpv6.R2.eth[1].mac passedUpPk:sum(packetBytes) 156
scalar PimDmIpv6.R2.eth[1].mac packetDropIncorrectlyReceived:count 0
scalar PimDmIpv6.R2.eth[1].mac packetDropIncorrectlyReceived:sum(packetBytes) 0
scalar PimDmIpv6.R2.eth[1].mac packetDropInterfaceDown:count 0
scalar PimDmIpv6.R2.eth[1].mac packetDropInterfaceDown:sum(packetBytes) 0
scalar PimDmIpv6.R2.eth[1].mac packetDropNotAddressedToUs:count 0
scalar PimDmIpv6.R2.eth[1].mac packetDropNotAddressedToUs:sum(packetBytes) 0
scalar PimDmIpv6.R2.eth[1] packetDropInterfaceDown:count 0
scalar PimDmIpv6.R2.eth[1] packetDropInterfaceDown:sum(packetBytes) 0
scalar PimDmIpv6.R2.eth[1] packetDropNoCarrier:count 0
scalar PimDmIpv6.R2.eth[1] packetDropNoCarrier:sum(packetBytes) 0
scalar PimDmIpv6.R2.eth[2].queue.classifier packets:count 96
scalar PimDmIpv6.R2.eth[2].queue.classifier packetLengths:sum 120224
scalar PimDmIpv6.R2.eth[2].queue.pauseQueue queueLength:last 0
scalar PimDmIpv6.R2.eth[2].queue.pauseQueue queueLength:max 0
scalar PimDmIpv6.R2.eth[2].queue.pauseQueue queueLength:timeavg 0
scalar PimDmIpv6.R2.eth[2].queue.pauseQueue queueBitLength:last 0
scalar PimDmIpv6.R2.eth[2].queue.pauseQueue queueBitLength:max 0
scalar PimDmIpv6.R2.eth[2].queue.pauseQueue queueBitLength:timeavg 0
scalar PimDmIpv6.R2.eth[2].queue.pauseQueue outgoingPackets:count 0
scalar PimDmIpv6.R2.eth[2].queue.pauseQueue outgoingPacketLengths:sum 0
scalar PimDmIpv6.R2.eth[2].queue.pauseQueue incomingPackets:count 0
scalar PimDmIpv6.R2.eth[2].queue.pauseQueue incomingPacketLengths:sum 0
scalar PimDmIpv6.R2.eth[2].queue.pauseQueue droppedPacketsQueueOverflow:count 0
scalar PimDmIpv6.R2.eth[2].queue.pauseQueue droppedPacketLengthsQueueOverflow:sum 0
scalar PimDmIpv6.R2.eth[2].queue.dataQueue queueLength:last 0
scalar PimDmIpv6.R2.eth[2].queue.dataQueue queueLength:max 2
scalar PimDmIpv6.R2.eth[2].queue.dataQueue queueLength:timeavg 2.04e-07
scalar PimDmIpv6.R2.eth[2].queue.dataQueue queueBitLength:last 0
scalar PimDmIpv6.R2.eth[2].queue.dataQueue queueBitLength:max 1312
scalar PimDmIpv6.R2.eth[2].queue.dataQueue queueBitLength:timeavg 0.00013382399999999997
scalar PimDmIpv6.R2.eth[2].queue.dataQueue outgoingPackets:count 96
scalar PimDmIpv6.R2.eth[2].queue.dataQueue outgoingPacketLengths:sum 120224
scalar PimDmIpv6.R2.eth[2].queue.dataQueue incomingPackets:count 96
scalar PimDmIpv6.R2.eth[2].queue.dataQueue incomingPacketLengths:sum 120224
scalar PimDmIpv6.R2.eth[2].queue.dataQueue droppedPacketsQueueOverflow:count 0
scalar PimDmIpv6.R2.eth[2].queue.dataQueue droppedPacketLengthsQueueOverflow:sum 0
scalar PimDmIpv6.R2.eth[2].queue.scheduler packets:count 96
scalar PimDmIpv6.R2.eth[2].queue.scheduler packetLengths:sum 120224
scalar PimDmIpv6.R2.eth[2].queue queueLength:last -96
scalar PimDmIpv6.R2.eth[2].queue queueLength:max 0
scalar PimDmIpv6.R2.eth[2].queue queueLength:timeavg -43.104156190112185
scalar PimDmIpv6.R2.eth[2].queue queueBitLength:last -120224
scalar PimDmIpv6.R2.eth[2].queue queueBitLength:max 0
scalar PimDmIpv6.R2.eth[2].queue queueBitLength:timeavg -51322.441879056234
scalar PimDmIpv6.R2.eth[2].queue outgoingPackets:count 96
scalar PimDmIpv6.R2.eth[2].queue outgoingPacketLengths:sum 120224
scalar PimDmIpv6.R2.eth[2].queue incomingPackets:count 0
scalar PimDmIpv6.R2.eth[2].queue incomingPacketLengths:sum 0
scalar PimDmIpv6.R2.eth[2].queue droppedPacketsQueueOverflow:count 0
scalar PimDmIpv6.R2.eth[2].queue droppedPacketLengthsQueueOverflow:sum 0
scalar PimDmIpv6.R2.eth[2].mac "simulated time" 120
scalar PimDmIpv6.R2.eth[2].mac full-duplex 1
scalar PimDmIpv6.R2.eth[2].mac "frames/sec sent" 0.8
scalar PimDmIpv6.R2.eth[2].mac "frames/sec rcvd" 0.041666666666666664
scalar PimDmIpv6.R2.eth[2].mac "bits/sec sent" 1001.8666666666667
scalar PimDmIpv6.R2.eth[2].mac "bits/sec rcvd" 26.8
scalar PimDmIpv6.R2.eth[2].mac "rx channel idle (%)" 99.99997053333334
scalar PimDmIpv6.R2.eth[2].mac "rx channel utilization (%)" 2.9466666666666667e-05
scalar PimDmIpv6.R2.eth[2].mac rxPausePkUnits:count 0
scalar PimDmIpv6.R2.eth[2].mac rxPausePkUnits:sum 0
scalar PimDmIpv6.R2.eth[2].mac txPausePkUnits:count 0
scalar PimDmIpv6.R2.eth[2].mac txPausePkUnits:sum 0
scalar PimDmIpv6.R2.eth[2].mac rxPkOk:count 5
scalar PimDmIpv6.R2.eth[2].mac rxPkOk:sum(packetBytes) 402
scalar PimDmIpv6.R2.eth[2].mac txPk:count 96
scalar PimDmIpv6.R2.eth[2].mac txPk:sum(packetBytes) 15028
scalar PimDmIpv6.R2.eth[2].mac packetReceivedFromUpper:count 96
scalar PimDmIpv6.R2.eth[2].mac packetReceivedFromUpper:sum(packetBytes) 15028
scalar PimDmIpv6.R2.eth[2].mac passedUpPk:count 5
scalar PimDmIpv6.R2.eth[2].mac passedUpPk:sum(packetBytes) 402
scalar PimDmIpv6.R2.eth[2].mac packetDropIncorrectlyReceived:count 0
scalar PimDmIpv6.R2.eth[2].mac packetDropIncorrectlyReceived:sum(packetBytes) 0
scalar PimDmIpv6.R2.eth[2].mac packetDropInterfaceDown:count 0
scalar PimDmIpv6.R2.eth[2].mac packetDropInterfaceDown:sum(packetBytes) 0
scalar PimDmIpv6.R2.eth[2].mac packetDropNotAddressedToUs:count 0
scalar PimDmIpv6.R2.eth[2].mac packetDropNotAddressedToUs:sum(packetBytes) 0
scalar PimDmIpv6.R2.eth[2] packetDropInterfaceDown:count 0
scalar PimDmIpv6.R2.eth[2] packetDropInterfaceDown:sum(packetBytes) 0
scalar PimDmIpv6.R2.eth[2] packetDropNoCarrier:count 0
scalar PimDmIpv6.R2.eth[2] packetDropNoCarrier:sum(packetBytes) 0
scalar PimDmIpv6.R2.ipv6.neighbourDiscovery dadFailed:count 0
scalar PimDmIpv6.R2.ipv6.neighbourDiscovery dadCompleted:count 3
scalar PimDmIpv6.R2.ipv6.neighbourDiscovery startDad:count 0
scalar PimDmIpv6.R3.ethernet pauseSent:count 0
scalar PimDmIpv6.R3.ethernet pauseSent:sum 0
scalar PimDmIpv6.R3.ethernet decapPk:count 59
scalar PimDmIpv6.R3.ethernet decapPk:sum(packetBytes) 7570
scalar PimDmIpv6.R3.ethernet encapPk:count 67
scalar PimDmIpv6.R3.ethernet encapPk:sum(packetBytes) 8068
scalar PimDmIpv6.R3.lo[0].lo rcvdPkFromHl:count 0
scalar PimDmIpv6.R3.lo[0].lo rcvdPkFromHl:sum(packetBytes) 0
scalar PimDmIpv6.R3.lo[0].lo passedUpPk:count 0
scalar PimDmIpv6.R3.lo[0].lo passedUpPk:sum(packetBytes) 0
scalar PimDmIpv6.R3.lo[0] packetDropInterfaceDown:count 0
scalar PimDmIpv6.R3.lo[0] packetDropInterfaceDown:sum(packetBytes) 0
scalar PimDmIpv6.R3.lo[0] packetDropNoCarrier:count 0
scalar PimDmIpv6.R3.lo[0] packetDropNoCarrier:sum(packetBytes) 0
scalar PimDmIpv6.R3.eth[0].queue.classifier packets:count 12
scalar PimDmIpv6.R3.eth[0].queue.classifier packetLengths:sum 8416
scalar PimDmIpv6.R3.eth[0].queue.pauseQueue queueLength:last 0
scalar PimDmIpv6.R3.eth[0].queue.pauseQueue queueLength:max 0
scalar PimDmIpv6.R3.eth[0].queue.pauseQueue queueLength:timeavg 0
scalar PimDmIpv6.R3.eth[0].queue.pauseQueue queueBitLength:last 0
scalar PimDmIpv6.R3.eth[0].queue.pauseQueue queueBitLength:max 0
scalar PimDmIpv6.R3.eth[0].queue.pauseQueue queueBitLength:timeavg 0
scalar PimDmIpv6.R3.eth[0].queue.pauseQueue outgoingPackets:count 0
scalar PimDmIpv6.R3.eth[0].queue.pauseQueue outgoingPacketLengths:sum 0
scalar PimDmIpv6.R3.eth[0].queue.pauseQueue incomingPackets:count 0
scalar PimDmIpv6.R3.eth[0].queue.pauseQueue incomingPacketLengths:sum 0
scalar PimDmIpv6.R3.eth[0].queue.pauseQueue droppedPacketsQueueOverflow:count 0
scalar PimDmIpv6.R3.eth[0].queue.pauseQueue droppedPacketLengthsQueueOverflow:sum 0
scalar PimDmIpv6.R3.eth[0].queue.dataQueue queueLength:last 0
scalar PimDmIpv6.R3.eth[0].queue.dataQueue queueLength:max 2
scalar PimDmIpv6.R3.eth[0].queue.dataQueue queueLength:timeavg 2.04e-07
scalar PimDmIpv6.R3.eth[0].queue.dataQueue queueBitLength:last 0
scalar PimDmIpv6.R3.eth[0].queue.dataQueue queueBitLength:max 1312
scalar PimDmIpv6.R3.eth[0].queue.dataQueue queueBitLength:timeavg 0.00013382399999999997
scalar PimDmIpv6.R3.eth[0].queue.dataQueue outgoingPackets:count 12
scalar PimDmIpv6.R3.eth[0].queue.dataQueue outgoingPacketLengths:sum 8416
scalar PimDmIpv6.R3.eth[0].queue.dataQueue incomingPackets:count 12
scalar PimDmIpv6.R3.eth[0].queue.dataQueue incomingPacketLengths:sum 8416
scalar PimDmIpv6.R3.eth[0].queue.dataQueue droppedPacketsQueueOverflow:count 0
scalar PimDmIpv6.R3.eth[0].queue.dataQueue droppedPacketLengthsQueueOverflow:sum 0
scalar PimDmIpv6.R3.eth[0].queue.scheduler packets:count 12
scalar PimDmIpv6.R3.eth[0].queue.scheduler packetLengths:sum 8416
scalar PimDmIpv6.R3.eth[0].queue queueLength:last -12
scalar PimDmIpv6.R3.eth[0].queue queueLength:max 0
scalar PimDmIpv6.R3.eth[0].queue queueLength:timeavg -9.1031098674322
scalar PimDmIpv6.R3.eth[0].queue queueBitLength:last -8416
scalar PimDmIpv6.R3.eth[0].queue queueBitLength:max 0
scalar PimDmIpv6.R3.eth[0].queue queueBitLength:timeavg -6281.820559304269
scalar PimDmIpv6.R3.eth[0].queue outgoingPackets:count 12
scalar PimDmIpv6.R3.eth[0].queue outgoingPacketLengths:sum 8416
scalar PimDmIpv6.R3.eth[0].queue incomingPackets:count 0
scalar PimDmIpv6.R3.eth[0].queue incomingPacketLengths:sum 0
scalar PimDmIpv6.R3.eth[0].queue droppedPacketsQueueOverflow:count 0
scalar PimDmIpv6.R3.eth[0].queue droppedPacketLengthsQueueOverflow:sum 0
scalar PimDmIpv6.R3.eth[0].mac "simulated time" 120
scalar PimDmIpv6.R3.eth[0].mac full-duplex 1
scalar PimDmIpv6.R3.eth[0].mac "frames/sec sent" 0.1
scalar PimDmIpv6.R3.eth[0].mac "frames/sec rcvd" 0.4583333333333333
scalar PimDmIpv6.R3.eth[0].mac "bits/sec sent" 70.13333333333334
scalar PimDmIpv6.R3.eth[0].mac "bits/sec rcvd" 554.1333333333333
scalar PimDmIpv6.R3.eth[0].mac "rx channel idle (%)" 99.99941653333333
scalar PimDmIpv6.R3.eth[0].mac "rx channel utilization (%)" 0.0005834666666666667
scalar PimDmIpv6.R3.eth[0].mac rxPausePkUnits:count 0
scalar PimDmIpv6.R3.eth[0].mac rxPausePkUnits:sum 0
scalar PimDmIpv6.R3.eth[0].mac txPausePkUnits:count 0
scalar PimDmIpv6.R3.eth[0].mac txPausePkUnits:sum 0
scalar PimDmIpv6.R3.eth[0].mac rxPkOk:count 55
scalar PimDmIpv6.R3.eth[0].mac rxPkOk:sum(packetBytes) 8312
scalar PimDmIpv6.R3.eth[0].mac txPk:count 12
scalar PimDmIpv6.R3.eth[0].mac txPk:sum(packetBytes) 1052
scalar PimDmIpv6.R3.eth[0].mac packetReceivedFromUpper:count 12
scalar PimDmIpv6.R3.eth[0].mac packetReceivedFromUpper:sum(packetBytes) 1052
scalar PimDmIpv6.R3.eth[0].mac passedUpPk:count 55
scalar PimDmIpv6.R3.eth[0].mac passedUpPk:sum(packetBytes) 8312
scalar PimDmIpv6.R3.eth[0].mac packetDropIncorrectlyReceived:count 0
scalar PimDmIpv6.R3.eth[0].mac packetDropIncorrectlyReceived:sum(packetBytes) 0
scalar PimDmIpv6.R3.eth[0].mac packetDropInterfaceDown:count 0
scalar PimDmIpv6.R3.eth[0].mac packetDropInterfaceDown:sum(packetBytes) 0
scalar PimDmIpv6.R3.eth[0].mac packetDropNotAddressedToUs:count 0
scalar PimDmIpv6.R3.eth[0].mac packetDropNotAddressedToUs:sum(packetBytes) 0
scalar PimDmIpv6.R3.eth[0] packetDropInterfaceDown:count 0
scalar PimDmIpv6.R3.eth[0] packetDropInterfaceDown:sum(packetBytes) 0
scalar PimDmIpv6.R3.eth[0] packetDropNoCarrier:count 0
scalar PimDmIpv6.R3.eth[0] packetDropNoCarrier:sum(packetBytes) 0
scalar PimDmIpv6.R3.eth[1].queue.classifier packets:count 55
scalar PimDmIpv6.R3.eth[1].queue.classifier packetLengths:sum 65776
scalar PimDmIpv6.R3.eth[1].queue.pauseQueue queueLength:last 0
scalar PimDmIpv6.R3.eth[1].queue.pauseQueue queueLength:max 0
scalar PimDmIpv6.R3.eth[1].queue.pauseQueue queueLength:timeavg 0
scalar PimDmIpv6.R3.eth[1].queue.pauseQueue queueBitLength:last 0
scalar PimDmIpv6.R3.eth[1].queue.pauseQueue queueBitLength:max 0
scalar PimDmIpv6.R3.eth[1].queue.pauseQueue queueBitLength:timeavg 0
scalar PimDmIpv6.R3.eth[1].queue.pauseQueue outgoingPackets:count 0
scalar PimDmIpv6.R3.eth[1].queue.pauseQueue outgoingPacketLengths:sum 0
scalar PimDmIpv6.R3.eth[1].queue.pauseQueue incomingPackets:count 0
scalar PimDmIpv6.R3.eth[1].queue.pauseQueue incomingPacketLengths:sum 0
scalar PimDmIpv6.R3.eth[1].queue.pauseQueue droppedPacketsQueueOverflow:count 0
scalar PimDmIpv6.R3.eth[1].queue.pauseQueue droppedPacketLengthsQueueOverflow:sum 0
scalar PimDmIpv6.R3.eth[1].queue.dataQueue queueLength:last 0
scalar PimDmIpv6.R3.eth[1].queue.dataQueue queueLength:max 2
scalar PimDmIpv6.R3.eth[1].queue.dataQueue queueLength:timeavg 2.04e-07
scalar PimDmIpv6.R3.eth[1].queue.dataQueue queueBitLength:last 0
scalar PimDmIpv6.R3.eth[1].queue.dataQueue queueBitLength:max 1312
scalar PimDmIpv6.R3.eth[1].queue.dataQueue queueBitLength:timeavg 0.00013382399999999997
scalar PimDmIpv6.R3.eth[1].queue.dataQueue outgoingPackets:count 55
scalar PimDmIpv6.R3.eth[1].queue.dataQueue outgoingPacketLengths:sum 65776
scalar PimDmIpv6.R3.eth[1].queue.dataQueue incomingPackets:count 55
scalar PimDmIpv6.R3.eth[1].queue.dataQueue incomingPacketLengths:sum 65776
scalar PimDmIpv6.R3.eth[1].queue.dataQueue droppedPacketsQueueOverflow:count 0
scalar PimDmIpv6.R3.eth[1].queue.dataQueue droppedPacketLengthsQueueOverflow:sum 0
scalar PimDmIpv6.R3.eth[1].queue.scheduler packets:count 55
scalar PimDmIpv6.R3.eth[1].queue.scheduler packetLengths:sum 65776
scalar PimDmIpv6.R3.eth[1].queue queueLength:last -55
scalar PimDmIpv6.R3.eth[1].queue queueLength:max 0
scalar PimDmIpv6.R3.eth[1].queue queueLength:timeavg -19.171528825721044
scalar PimDmIpv6.R3.eth[1].queue queueBitLength:last -65776
scalar PimDmIpv6.R3.eth[1].queue queueBitLength:max 0
scalar PimDmIpv6.R3.eth[1].queue queueBitLength:timeavg -19549.506300425215
scalar PimDmIpv6.R3.eth[1].queue outgoingPackets:count 55
scalar PimDmIpv6.R3.eth[1].queue outgoingPacketLengths:sum 65776
scalar PimDmIpv6.R3.eth[1].queue incomingPackets:count 0
scalar PimDmIpv6.R3.eth[1].queue incomingPacketLengths:sum 0
scalar PimDmIpv6.R3.eth[1].queue droppedPacketsQueueOverflow:count 0
scalar PimDmIpv6.R3.eth[1].queue droppedPacketLengthsQueueOverflow:sum 0
scalar PimDmIpv6.R3.eth[1].mac "simulated time" 120
scalar PimDmIpv6.R3.eth[1].mac full-duplex 1
scalar PimDmIpv6.R3.eth[1].mac "frames/sec sent" 0.4583333333333333
scalar PimDmIpv6.R3.eth[1].mac "frames/sec rcvd" 0.03333333333333333
scalar PimDmIpv6.R3.eth[1].mac "bits/sec sent" 548.1333333333333
scalar PimDmIpv6.R3.eth[1].mac "bits/sec rcvd" 21.333333333333332
scalar PimDmIpv6.R3.eth[1].mac "rx channel idle (%)" 99.99997653333334
scalar PimDmIpv6.R3.eth[1].mac "rx channel utilization (%)" 2.3466666666666667e-05
scalar PimDmIpv6.R3.eth[1].mac rxPausePkUnits:count 0
scalar PimDmIpv6.R3.eth[1].mac rxPausePkUnits:sum 0
scalar PimDmIpv6.R3.eth[1].mac txPausePkUnits:count 0
scalar PimDmIpv6.R3.eth[1].mac txPausePkUnits:sum 0
scalar PimDmIpv6.R3.eth[1].mac rxPkOk:count 4
scalar PimDmIpv6.R3.eth[1].mac rxPkOk:sum(packetBytes) 320
scalar PimDmIpv6.R3.eth[1].mac txPk:count 55
scalar PimDmIpv6.R3.eth[1].mac txPk:sum(packetBytes) 8222
scalar PimDmIpv6.R3.eth[1].mac packetReceivedFromUpper:count 55
scalar PimDmIpv6.R3.eth[1].mac packetReceivedFromUpper:sum(packetBytes) 8222
scalar PimDmIpv6.R3.eth[1].mac passedUpPk:count 4
scalar PimDmIpv6.R3.eth[1].mac passedUpPk:sum(packetBytes) 320
scalar PimDmIpv6.R3.eth[1].mac packetDropIncorrectlyReceived:count 0
scalar PimDmIpv6.R3.eth[1].mac packetDropIncorrectlyReceived:sum(packetBytes) 0
scalar PimDmIpv6.R3.eth[1].mac packetDropInterfaceDown:count 0
scalar PimDmIpv6.R3.eth[1].mac packetDropInterfaceDown:sum(packetBytes) 0
scalar PimDmIpv6.R3.eth[1].mac packetDropNotAddressedToUs:count 0
scalar PimDmIpv6.R3.eth[1].mac packetDropNotAddressedToUs:sum(packetBytes) 0
scalar PimDmIpv6.R3.eth[1] packetDropInterfaceDown:count 0
scalar PimDmIpv6.R3.eth[1] packetDropInterfaceDown:sum(packetBytes) 0
scalar PimDmIpv6.R3.eth[1] packetDropNoCarrier:count 0
scalar PimDmIpv6.R3.eth[1] packetDropNoCarrier:sum(packetBytes) 0
scalar PimDmIpv6.R3.ipv6.neighbourDiscovery dadFailed:count 0
scalar PimDmIpv6.R3.ipv6.neighbourDiscovery dadCompleted:count 2
scalar PimDmIpv6.R3.ipv6.neighbourDiscovery startDad:count 0
scalar PimDmIpv6.Source1.ethernet pauseSent:count 0
scalar PimDmIpv6.Source1.ethernet pauseSent:sum 0
scalar PimDmIpv6.Source1.ethernet decapPk:count 11
scalar PimDmIpv6.Source1.ethernet decapPk:sum(packetBytes) 720
scalar PimDmIpv6.Source1.ethernet encapPk:count 87
scalar PimDmIpv6.Source1.ethernet encapPk:sum(packetBytes) 12700
scalar PimDmIpv6.Source1.lo[0].lo rcvdPkFromHl:count 0
scalar PimDmIpv6.Source1.lo[0].lo rcvdPkFromHl:sum(packetBytes) 0
scalar PimDmIpv6.Source1.lo[0].lo passedUpPk:count 0
scalar PimDmIpv6.Source1.lo[0].lo passedUpPk:sum(packetBytes) 0
scalar PimDmIpv6.Source1.lo[0] packetDropInterfaceDown:count 0
scalar PimDmIpv6.Source1.lo[0] packetDropInterfaceDown:sum(packetBytes) 0
scalar PimDmIpv6.Source1.lo[0] packetDropNoCarrier:count 0
scalar PimDmIpv6.Source1.lo[0] packetDropNoCarrier:sum(packetBytes) 0
scalar PimDmIpv6.Source1.eth[0].queue.classifier packets:count 87
scalar PimDmIpv6.Source1.eth[0].queue.classifier packetLengths:sum 114128
scalar PimDmIpv6.Source1.eth[0].queue.pauseQueue queueLength:last 0
scalar PimDmIpv6.Source1.eth[0].queue.pauseQueue queueLength:max 0
scalar PimDmIpv6.Source1.eth[0].queue.pauseQueue queueLength:timeavg 0
scalar PimDmIpv6.Source1.eth[0].queue.pauseQueue queueBitLength:last 0
scalar PimDmIpv6.Source1.eth[0].queue.pauseQueue queueBitLength:max 0
scalar PimDmIpv6.Source1.eth[0].queue.pauseQueue queueBitLength:timeavg 0
scalar PimDmIpv6.Source1.eth[0].queue.pauseQueue outgoingPackets:count 0
scalar PimDmIpv6.Source1.eth[0].queue.pauseQueue outgoingPacketLengths:sum 0
scalar PimDmIpv6.Source1.eth[0].queue.pauseQueue incomingPackets:count 0
scalar PimDmIpv6.Source1.eth[0].queue.pauseQueue incomingPacketLengths:sum 0
scalar PimDmIpv6.Source1.eth[0].queue.pauseQueue droppedPacketsQueueOverflow:count 0
scalar PimDmIpv6.Source1.eth[0].queue.pauseQueue droppedPacketLengthsQueueOverflow:sum 0
scalar PimDmIpv6.Source1.eth[0].queue.dataQueue queueLength:last 0
scalar PimDmIpv6.Source1.eth[0].queue.dataQueue queueLength:max 0
scalar PimDmIpv6.Source1.eth[0].queue.dataQueue queueLength:timeavg 0
scalar PimDmIpv6.Source1.eth[0].queue.dataQueue queueBitLength:last 0
scalar PimDmIpv6.Source1.eth[0].queue.dataQueue queueBitLength:max 0
scalar PimDmIpv6.Source1.eth[0].queue.dataQueue queueBitLength:timeavg 0
scalar PimDmIpv6.Source1.eth[0].queue.dataQueue outgoingPackets:count 87
scalar PimDmIpv6.Source1.eth[0].queue.dataQueue outgoingPacketLengths:sum 114128
scalar PimDmIpv6.Source1.eth[0].queue.dataQueue incomingPackets:count 87
scalar PimDmIpv6.Source1.eth[0].queue.dataQueue incomingPacketLengths:sum 114128
scalar PimDmIpv6.Source1.eth[0].queue.dataQueue droppedPacketsQueueOverflow:count 0
scalar PimDmIpv6.Source1.eth[0].queue.dataQueue droppedPacketLengthsQueueOverflow:sum 0
scalar PimDmIpv6.Source1.eth[0].queue.scheduler packets:count 87
scalar PimDmIpv6.Source1.eth[0].queue.scheduler packetLengths:sum 114128
scalar PimDmIpv6.Source1.eth[0].queue queueLength:last -87
scalar PimDmIpv6.Source1.eth[0].queue queueLength:max 0
scalar PimDmIpv6.Source1.eth[0].queue queueLength:timeavg -35.980400251836514
scalar PimDmIpv6.Source1.eth[0].queue queueBitLength:last -114128
scalar PimDmIpv6.Source1.eth[0].queue queueBitLength:max 0
scalar PimDmIpv6.Source1.eth[0].queue queueBitLength:timeavg -46387.74979594815
scalar PimDmIpv6.Source1.eth[0].queue outgoingPackets:count 87
scalar PimDmIpv6.Source1.eth[0].queue outgoingPacketLengths:sum 114128
scalar PimDmIpv6.Source1.eth[0].queue incomingPackets:count 0
scalar PimDmIpv6.Source1.eth[0].queue incomingPacketLengths:sum 0
scalar PimDmIpv6.Source1.eth[0].queue droppedPacketsQueueOverflow:count 0
scalar PimDmIpv6.Source1.eth[0].queue droppedPacketLengthsQueueOverflow:sum 0
scalar PimDmIpv6.Source1.eth[0].mac "simulated time" 120
scalar PimDmIpv6.Source1.eth[0].mac full-duplex 1
scalar PimDmIpv6.Source1.eth[0].mac "frames/sec sent" 0.725
scalar PimDmIpv6.Source1.eth[0].mac "frames/sec rcvd" 0.09166666666666666
scalar PimDmIpv6.Source1.eth[0].mac "bits/sec sent" 951.0666666666667
scalar PimDmIpv6.Source1.eth[0].mac "bits/sec rcvd" 61.2
scalar PimDmIpv6.Source1.eth[0].mac "rx channel idle (%)" 99.99993293333334
scalar PimDmIpv6.Source1.eth[0].mac "rx channel utilization (%)" 6.706666666666667e-05
scalar PimDmIpv6.Source1.eth[0].mac rxPausePkUnits:count 0
scalar PimDmIpv6.Source1.eth[0].mac rxPausePkUnits:sum 0
scalar PimDmIpv6.Source1.eth[0].mac txPausePkUnits:count 0
scalar PimDmIpv6.Source1.eth[0].mac txPausePkUnits:sum 0
scalar PimDmIpv6.Source1.eth[0].mac rxPkOk:count 11
scalar PimDmIpv6.Source1.eth[0].mac rxPkOk:sum(packetBytes) 918
scalar PimDmIpv6.Source1.eth[0].mac txPk:count 87
scalar PimDmIpv6.Source1.eth[0].mac txPk:sum(packetBytes) 14266
scalar PimDmIpv6.Source1.eth[0].mac packetReceivedFromUpper:count 87
scalar PimDmIpv6.Source1.eth[0].mac packetReceivedFromUpper:sum(packetBytes) 14266
scalar PimDmIpv6.Source1.eth[0].mac passedUpPk:count 11
scalar PimDmIpv6.Source1.eth[0].mac passedUpPk:sum(packetBytes) 918
scalar PimDmIpv6.Source1.eth[0].mac packetDropIncorrectlyReceived:count 0
scalar PimDmIpv6.Source1.eth[0].mac packetDropIncorrectlyReceived:sum(packetBytes) 0
scalar PimDmIpv6.Source1.eth[0].mac packetDropInterfaceDown:count 0
scalar PimDmIpv6.Source1.eth[0].mac packetDropInterfaceDown:sum(packetBytes) 0
scalar PimDmIpv6.Source1.eth[0].mac packetDropNotAddressedToUs:count 0
scalar PimDmIpv6.Source1.eth[0].mac packetDropNotAddressedToUs:sum(packetBytes) 0
scalar PimDmIpv6.Source1.eth[0] packetDropInterfaceDown:count 0
scalar PimDmIpv6.Source1.eth[0] packetDropInterfaceDown:sum(packetBytes) 0
scalar PimDmIpv6.Source1.eth[0] packetDropNoCarrier:count 0
scalar PimDmIpv6.Source1.eth[0] packetDropNoCarrier:sum(packetBytes) 0
scalar PimDmIpv6.Source1.ipv6.neighbourDiscovery dadFailed:count 0
scalar PimDmIpv6.Source1.ipv6.neighbourDiscovery dadCompleted:count 2
scalar PimDmIpv6.Source1.ipv6.neighbourDiscovery startDad:count 1
scalar PimDmIpv6.Source1.udp packetReceived:count 0
scalar PimDmIpv6.Source1.udp packetReceived:sum(packetBytes) 0
scalar PimDmIpv6.Source1.udp packetSent:count 85
scalar PimDmIpv6.Source1.udp packetSent:sum(packetBytes) 9180
scalar PimDmIpv6.Source1.udp passedUpPk:count 0
scalar PimDmIpv6.Source1.udp droppedPkWrongPort:count 0
scalar PimDmIpv6.Source1.udp droppedPkBadChecksum:count 0
scalar PimDmIpv6.Source1.app[0] "packets sent" 85
scalar PimDmIpv6.Source1.app[0] "packets received" 0
scalar PimDmIpv6.Source1.app[0] packetReceived:count 0
scalar PimDmIpv6.Source1.app[0] packetReceived:sum(packetBytes) 0
scalar PimDmIpv6.Source1.app[0] packetSent:count 85
scalar PimDmIpv6.Source1.app[0] packetSent:sum(packetBytes) 8500
scalar PimDmIpv6.Host1.ethernet pauseSent:count 0
scalar PimDmIpv6.Host1.ethernet pauseSent:sum 0
scalar PimDmIpv6.Host1.ethernet decapPk:count 11
scalar PimDmIpv6.Host1.ethernet decapPk:sum(packetBytes) 720
scalar PimDmIpv6.Host1.ethernet encapPk:count 2
scalar PimDmIpv6.Host1.ethernet encapPk:sum(packetBytes) 120
scalar PimDmIpv6.Host1.lo[0].lo rcvdPkFromHl:count 0
scalar PimDmIpv6.Host1.lo[0].lo rcvdPkFromHl:sum(packetBytes) 0
scalar PimDmIpv6.Host1.lo[0].lo passedUpPk:count 0
scalar PimDmIpv6.Host1.lo[0].lo passedUpPk:sum(packetBytes) 0
scalar PimDmIpv6.Host1.lo[0] packetDropInterfaceDown:count 0
scalar PimDmIpv6.Host1.lo[0] packetDropInterfaceDown:sum(packetBytes) 0
scalar PimDmIpv6.Host1.lo[0] packetDropNoCarrier:count 0
scalar PimDmIpv6.Host1.lo[0] packetDropNoCarrier:sum(packetBytes) 0
scalar PimDmIpv6.Host1.eth[0].queue.classifier packets:count 2
scalar PimDmIpv6.Host1.eth[0].queue.classifier packetLengths:sum 1248
scalar PimDmIpv6.Host1.eth[0].queue.pauseQueue queueLength:last 0
scalar PimDmIpv6.Host1.eth[0].queue.pauseQueue queueLength:max 0
scalar PimDmIpv6.Host1.eth[0].queue.pauseQueue queueLength:timeavg 0
scalar PimDmIpv6.Host1.eth[0].queue.pauseQueue queueBitLength:last 0
scalar PimDmIpv6.Host1.eth[0].queue.pauseQueue queueBitLength:max 0
scalar PimDmIpv6.Host1.eth[0].queue.pauseQueue queueBitLength:timeavg 0
scalar PimDmIpv6.Host1.eth[0].queue.pauseQueue outgoingPackets:count 0
scalar PimDmIpv6.Host1.eth[0].queue.pauseQueue outgoingPacketLengths:sum 0
scalar PimDmIpv6.Host1.eth[0].queue.pauseQueue incomingPackets:count 0
scalar PimDmIpv6.Host1.eth[0].queue.pauseQueue incomingPacketLengths:sum 0
scalar PimDmIpv6.Host1.eth[0].queue.pauseQueue droppedPacketsQueueOverflow:count 0
scalar PimDmIpv6.Host1.eth[0].queue.pauseQueue droppedPacketLengthsQueueOverflow:sum 0
scalar PimDmIpv6.Host1.eth[0].queue.dataQueue queueLength:last 0
scalar PimDmIpv6.Host1.eth[0].queue.dataQueue queueLength:max 0
scalar PimDmIpv6.Host1.eth[0].queue.dataQueue queueLength:timeavg 0
scalar PimDmIpv6.Host1.eth[0].queue.dataQueue queueBitLength:last 0
scalar PimDmIpv6.Host1.eth[0].queue.dataQueue queueBitLength:max 0
scalar PimDmIpv6.Host1.eth[0].queue.dataQueue queueBitLength:timeavg 0
scalar PimDmIpv6.Host1.eth[0].queue.dataQueue outgoingPackets:count 2
scalar PimDmIpv6.Host1.eth[0].queue.dataQueue outgoingPacketLengths:sum 1248
scalar PimDmIpv6.Host1.eth[0].queue.dataQueue incomingPackets:count 2
scalar PimDmIpv6.Host1.eth[0].queue.dataQueue incomingPacketLengths:sum 1248
scalar PimDmIpv6.Host1.eth[0].queue.dataQueue droppedPacketsQueueOverflow:count 0
scalar PimDmIpv6.Host1.eth[0].queue.dataQueue droppedPacketLengthsQueueOverflow:sum 0
scalar PimDmIpv6.Host1.eth[0].queue.scheduler packets:count 2
scalar PimDmIpv6.Host1.eth[0].queue.scheduler packetLengths:sum 1248
scalar PimDmIpv6.Host1.eth[0].queue queueLength:last -2
scalar PimDmIpv6.Host1.eth[0].queue queueLength:max 0
scalar PimDmIpv6.Host1.eth[0].queue queueLength:timeavg -1.971397592553133
scalar PimDmIpv6.Host1.eth[0].queue queueBitLength:last -1248
scalar PimDmIpv6.Host1.eth[0].queue queueBitLength:max 0
scalar PimDmIpv6.Host1.eth[0].queue queueBitLength:timeavg -1230.0317467409711
scalar PimDmIpv6.Host1.eth[0].queue outgoingPackets:count 2
scalar PimDmIpv6.Host1.eth[0].queue outgoingPacketLengths:sum 1248
scalar PimDmIpv6.Host1.eth[0].queue incomingPackets:count 0
scalar PimDmIpv6.Host1.eth[0].queue incomingPacketLengths:sum 0
scalar PimDmIpv6.Host1.eth[0].queue droppedPacketsQueueOverflow:count 0
scalar PimDmIpv6.Host1.eth[0].queue droppedPacketLengthsQueueOverflow:sum 0
scalar PimDmIpv6.Host1.eth[0].mac "simulated time" 120
scalar PimDmIpv6.Host1.eth[0].mac full-duplex 1
scalar PimDmIpv6.Host1.eth[0].mac "frames/sec sent" 0.016666666666666666
scalar PimDmIpv6.Host1.eth[0].mac "frames/sec rcvd" 0.09166666666666666
scalar PimDmIpv6.Host1.eth[0].mac "bits/sec sent" 10.4
scalar PimDmIpv6.Host1.eth[0].mac "bits/sec rcvd" 61.2
scalar PimDmIpv6.Host1.eth[0].mac "rx channel idle (%)" 99.99993293333334
scalar PimDmIpv6.Host1.eth[0].mac "rx channel utilization (%)" 6.706666666666667e-05
scalar PimDmIpv6.Host1.eth[0].mac rxPausePkUnits:count 0
scalar PimDmIpv6.Host1.eth[0].mac rxPausePkUnits:sum 0
scalar PimDmIpv6.Host1.eth[0].mac txPausePkUnits:count 0
scalar PimDmIpv6.Host1.eth[0].mac txPausePkUnits:sum 0
scalar PimDmIpv6.Host1.eth[0].mac rxPkOk:count 11
scalar PimDmIpv6.Host1.eth[0].mac rxPkOk:sum(packetBytes) 918
scalar PimDmIpv6.Host1.eth[0].mac txPk:count 2
scalar PimDmIpv6.Host1.eth[0].mac txPk:sum(packetBytes) 156
scalar PimDmIpv6.Host1.eth[0].mac packetReceivedFromUpper:count 2
scalar PimDmIpv6.Host1.eth[0].mac packetReceivedFromUpper:sum(packetBytes) 156
scalar PimDmIpv6.Host1.eth[0].mac passedUpPk:count 11
scalar PimDmIpv6.Host1.eth[0].mac passedUpPk:sum(packetBytes) 918
scalar PimDmIpv6.Host1.eth[0].mac packetDropIncorrectlyReceived:count 0
scalar PimDmIpv6.Host1.eth[0].mac packetDropIncorrectlyReceived:sum(packetBytes) 0
scalar PimDmIpv6.Host1.eth[0].mac packetDropInterfaceDown:count 0
scalar PimDmIpv6.Host1.eth[0].mac packetDropInterfaceDown:sum(packetBytes) 0
scalar PimDmIpv6.Host1.eth[0].mac packetDropNotAddressedToUs:count 0
scalar PimDmIpv6.Host1.eth[0].mac packetDropNotAddressedToUs:sum(packetBytes) 0
scalar PimDmIpv6.Host1.eth[0] packetDropInterfaceDown:count 0
scalar PimDmIpv6.Host1.eth[0] packetDropInterfaceDown:sum(packetBytes) 0
scalar PimDmIpv6.Host1.eth[0] packetDropNoCarrier:count 0
scalar PimDmIpv6.Host1.eth[0] packetDropNoCarrier:sum(packetBytes) 0
scalar PimDmIpv6.Host1.ipv6.neighbourDiscovery dadFailed:count 0
scalar PimDmIpv6.Host1.ipv6.neighbourDiscovery dadCompleted:count 2
scalar PimDmIpv6.Host1.ipv6.neighbourDiscovery startDad:count 1
scalar PimDmIpv6.Host1.udp packetReceived:count 0
scalar PimDmIpv6.Host1.udp packetReceived:sum(packetBytes) 0
scalar PimDmIpv6.Host1.udp packetSent:count 0
scalar PimDmIpv6.Host1.udp packetSent:sum(packetBytes) 0
scalar PimDmIpv6.Host1.udp passedUpPk:count 0
scalar PimDmIpv6.Host1.udp droppedPkWrongPort:count 0
scalar PimDmIpv6.Host1.udp droppedPkBadChecksum:count 0
scalar PimDmIpv6.Host2.ethernet pauseSent:count 0
scalar PimDmIpv6.Host2.ethernet pauseSent:sum 0
scalar PimDmIpv6.Host2.ethernet decapPk:count 96
scalar PimDmIpv6.Host2.ethernet decapPk:sum(packetBytes) 13300
scalar PimDmIpv6.Host2.ethernet encapPk:count 5
scalar PimDmIpv6.Host2.ethernet encapPk:sum(packetBytes) 312
scalar PimDmIpv6.Host2.lo[0].lo rcvdPkFromHl:count 0
scalar PimDmIpv6.Host2.lo[0].lo rcvdPkFromHl:sum(packetBytes) 0
scalar PimDmIpv6.Host2.lo[0].lo passedUpPk:count 0
scalar PimDmIpv6.Host2.lo[0].lo passedUpPk:sum(packetBytes) 0
scalar PimDmIpv6.Host2.lo[0] packetDropInterfaceDown:count 0
scalar PimDmIpv6.Host2.lo[0] packetDropInterfaceDown:sum(packetBytes) 0
scalar PimDmIpv6.Host2.lo[0] packetDropNoCarrier:count 0
scalar PimDmIpv6.Host2.lo[0] packetDropNoCarrier:sum(packetBytes) 0
scalar PimDmIpv6.Host2.eth[0].queue.classifier packets:count 5
scalar PimDmIpv6.Host2.eth[0].queue.classifier packetLengths:sum 3216
scalar PimDmIpv6.Host2.eth[0].queue.pauseQueue queueLength:last 0
scalar PimDmIpv6.Host2.eth[0].queue.pauseQueue queueLength:max 0
scalar PimDmIpv6.Host2.eth[0].queue.pauseQueue queueLength:timeavg 0
scalar PimDmIpv6.Host2.eth[0].queue.pauseQueue queueBitLength:last 0
scalar PimDmIpv6.Host2.eth[0].queue.pauseQueue queueBitLength:max 0
scalar PimDmIpv6.Host2.eth[0].queue.pauseQueue queueBitLength:timeavg 0
scalar PimDmIpv6.Host2.eth[0].queue.pauseQueue outgoingPackets:count 0
scalar PimDmIpv6.Host2.eth[0].queue.pauseQueue outgoingPacketLengths:sum 0
scalar PimDmIpv6.Host2.eth[0].queue.pauseQueue incomingPackets:count 0
scalar PimDmIpv6.Host2.eth[0].queue.pauseQueue incomingPacketLengths:sum 0
scalar PimDmIpv6.Host2.eth[0].queue.pauseQueue droppedPacketsQueueOverflow:count 0
scalar PimDmIpv6.Host2.eth[0].queue.pauseQueue droppedPacketLengthsQueueOverflow:sum 0
scalar PimDmIpv6.Host2.eth[0].queue.dataQueue queueLength:last 0
scalar PimDmIpv6.Host2.eth[0].queue.dataQueue queueLength:max 0
scalar PimDmIpv6.Host2.eth[0].queue.dataQueue queueLength:timeavg 0
scalar PimDmIpv6.Host2.eth[0].queue.dataQueue queueBitLength:last 0
scalar PimDmIpv6.Host2.eth[0].queue.dataQueue queueBitLength:max 0
scalar PimDmIpv6.Host2.eth[0].queue.dataQueue queueBitLength:timeavg 0
scalar PimDmIpv6.Host2.eth[0].queue.dataQueue outgoingPackets:count 5
scalar PimDmIpv6.Host2.eth[0].queue.dataQueue outgoingPacketLengths:sum 3216
scalar PimDmIpv6.Host2.eth[0].queue.dataQueue incomingPackets:count 5
scalar PimDmIpv6.Host2.eth[0].queue.dataQueue incomingPacketLengths:sum 3216
scalar PimDmIpv6.Host2.eth[0].queue.dataQueue droppedPacketsQueueOverflow:count 0
scalar PimDmIpv6.Host2.eth[0].queue.dataQueue droppedPacketLengthsQueueOverflow:sum 0
scalar PimDmIpv6.Host2.eth[0].queue.scheduler packets:count 5
scalar PimDmIpv6.Host2.eth[0].queue.scheduler packetLengths:sum 3216
scalar PimDmIpv6.Host2.eth[0].queue queueLength:last -5
scalar PimDmIpv6.Host2.eth[0].queue queueLength:max 0
scalar PimDmIpv6.Host2.eth[0].queue queueLength:timeavg -4.617541334059683
scalar PimDmIpv6.Host2.eth[0].queue queueBitLength:last -3216
scalar PimDmIpv6.Host2.eth[0].queue queueBitLength:max 0
scalar PimDmIpv6.Host2.eth[0].queue queueBitLength:timeavg -2965.7057227052865
scalar PimDmIpv6.Host2.eth[0].queue outgoingPackets:count 5
scalar PimDmIpv6.Host2.eth[0].queue outgoingPacketLengths:sum 3216
scalar PimDmIpv6.Host2.eth[0].queue incomingPackets:count 0
scalar PimDmIpv6.Host2.eth[0].queue incomingPacketLengths:sum 0
scalar PimDmIpv6.Host2.eth[0].queue droppedPacketsQueueOverflow:count 0
scalar PimDmIpv6.Host2.eth[0].queue droppedPacketLengthsQueueOverflow:sum 0
scalar PimDmIpv6.Host2.eth[0].mac "simulated time" 120
scalar PimDmIpv6.Host2.eth[0].mac full-duplex 1
scalar PimDmIpv6.Host2.eth[0].mac "frames/sec sent" 0.041666666666666664
scalar PimDmIpv6.Host2.eth[0].mac "frames/sec rcvd" 0.8
scalar PimDmIpv6.Host2.eth[0].mac "bits/sec sent" 26.8
scalar PimDmIpv6.Host2.eth[0].mac "bits/sec rcvd" 1001.8666666666667
scalar PimDmIpv6.Host2.eth[0].mac "rx channel idle (%)" 99.99894693333333
scalar PimDmIpv6.Host2.eth[0].mac "rx channel utilization (%)" 0.0010530666666666668
scalar PimDmIpv6.Host2.eth[0].mac rxPausePkUnits:count 0
scalar PimDmIpv6.Host2.eth[0].mac rxPausePkUnits:sum 0
scalar PimDmIpv6.Host2.eth[0].mac txPausePkUnits:count 0
scalar PimDmIpv6.Host2.eth[0].mac txPausePkUnits:sum 0
scalar PimDmIpv6.Host2.eth[0].mac rxPkOk:count 96
scalar PimDmIpv6.Host2.eth[0].mac rxPkOk:sum(packetBytes) 15028
scalar PimDmIpv6.Host2.eth[0].mac txPk:count 5
scalar PimDmIpv6.Host2.eth[0].mac txPk:sum(packetBytes) 402
scalar PimDmIpv6.Host2.eth[0].mac packetReceivedFromUpper:count 5
scalar PimDmIpv6.Host2.eth[0].mac packetReceivedFromUpper:sum(packetBytes) 402
scalar PimDmIpv6.Host2.eth[0].mac passedUpPk:count 96
scalar PimDmIpv6.Host2.eth[0].mac passedUpPk:sum(packetBytes) 15028
scalar PimDmIpv6.Host2.eth[0].mac packetDropIncorrectlyReceived:count 0
scalar PimDmIpv6.Host2.eth[0].mac packetDropIncorrectlyReceived:sum(packetBytes) 0
scalar PimDmIpv6.Host2.eth[0].mac packetDropInterfaceDown:count 0
scalar PimDmIpv6.Host2.eth[0].mac packetDropInterfaceDown:sum(packetBytes) 0
scalar PimDmIpv6.Host2.eth[0].mac packetDropNotAddressedToUs:count 0
scalar PimDmIpv6.Host2.eth[0].mac packetDropNotAddressedToUs:sum(packetBytes) 0
scalar PimDmIpv6.Host2.eth[0] packetDropInterfaceDown:count 0
scalar PimDmIpv6.Host2.eth[0] packetDropInterfaceDown:sum(packetBytes) 0
scalar PimDmIpv6.Host2.eth[0] packetDropNoCarrier:count 0
scalar PimDmIpv6.Host2.eth[0] packetDropNoCarrier:sum(packetBytes) 0
scalar PimDmIpv6.Host2.ipv6.neighbourDiscovery dadFailed:count 0
scalar PimDmIpv6.Host2.ipv6.neighbourDiscovery dadCompleted:count 2
scalar PimDmIpv6.Host2.ipv6.neighbourDiscovery startDad:count 1
scalar PimDmIpv6.Host2.udp packetReceived:count 85
scalar PimDmIpv6.Host2.udp packetReceived:sum(packetBytes) 9180
scalar PimDmIpv6.Host2.udp packetSent:count 0
scalar PimDmIpv6.Host2.udp packetSent:sum(packetBytes) 0
scalar PimDmIpv6.Host2.udp passedUpPk:count 85
scalar PimDmIpv6.Host2.udp droppedPkWrongPort:count 0
scalar PimDmIpv6.Host2.udp droppedPkBadChecksum:count 0
scalar PimDmIpv6.Host2.app[0] packetReceived:count 85
scalar PimDmIpv6.Host2.app[0] packetReceived:sum(packetBytes) 8500
scalar PimDmIpv6.Host3.ethernet pauseSent:count 0
scalar PimDmIpv6.Host3.ethernet pauseSent:sum 0
scalar PimDmIpv6.Host3.ethernet decapPk:count 55
scalar PimDmIpv6.Host3.ethernet decapPk:sum(packetBytes) 7232
scalar PimDmIpv6.Host3.ethernet encapPk:count 4
scalar PimDmIpv6.Host3.ethernet encapPk:sum(packetBytes) 248
scalar PimDmIpv6.Host3.lo[0].lo rcvdPkFromHl:count 0
scalar PimDmIpv6.Host3.lo[0].lo rcvdPkFromHl:sum(packetBytes) 0
scalar PimDmIpv6.Host3.lo[0].lo passedUpPk:count 0
scalar PimDmIpv6.Host3.lo[0].lo passedUpPk:sum(packetBytes) 0
scalar PimDmIpv6.Host3.lo[0] packetDropInterfaceDown:count 0
scalar PimDmIpv6.Host3.lo[0] packetDropInterfaceDown:sum(packetBytes) 0
scalar PimDmIpv6.Host3.lo[0] packetDropNoCarrier:count 0
scalar PimDmIpv6.Host3.lo[0] packetDropNoCarrier:sum(packetBytes) 0
scalar PimDmIpv6.Host3.eth[0].queue.classifier packets:count 4
scalar PimDmIpv6.Host3.eth[0].queue.classifier packetLengths:sum 2560
scalar PimDmIpv6.Host3.eth[0].queue.pauseQueue queueLength:last 0
scalar PimDmIpv6.Host3.eth[0].queue.pauseQueue queueLength:max 0
scalar PimDmIpv6.Host3.eth[0].queue.pauseQueue queueLength:timeavg 0
scalar PimDmIpv6.Host3.eth[0].queue.pauseQueue queueBitLength:last 0
scalar PimDmIpv6.Host3.eth[0].queue.pauseQueue queueBitLength:max 0
scalar PimDmIpv6.Host3.eth[0].queue.pauseQueue queueBitLength:timeavg 0
scalar PimDmIpv6.Host3.eth[0].queue.pauseQueue outgoingPackets:count 0
scalar PimDmIpv6.Host3.eth[0].queue.pauseQueue outgoingPacketLengths:sum 0
scalar PimDmIpv6.Host3.eth[0].queue.pauseQueue incomingPackets:count 0
scalar PimDmIpv6.Host3.eth[0].queue.pauseQueue incomingPacketLengths:sum 0
scalar PimDmIpv6.Host3.eth[0].queue.pauseQueue droppedPacketsQueueOverflow:count 0
scalar PimDmIpv6.Host3.eth[0].queue.pauseQueue droppedPacketLengthsQueueOverflow:sum 0
scalar PimDmIpv6.Host3.eth[0].queue.dataQueue queueLength:last 0
scalar PimDmIpv6.Host3.eth[0].queue.dataQueue queueLength:max 0
scalar PimDmIpv6.Host3.eth[0].queue.dataQueue queueLength:timeavg 0
scalar PimDmIpv6.Host3.eth[0].queue.dataQueue queueBitLength:last 0
scalar PimDmIpv6.Host3.eth[0].queue.dataQueue queueBitLength:max 0
scalar PimDmIpv6.Host3.eth[0].queue.dataQueue queueBitLength:timeavg 0
scalar PimDmIpv6.Host3.eth[0].queue.dataQueue outgoingPackets:count 4
scalar PimDmIpv6.Host3.eth[0].queue.dataQueue outgoingPacketLengths:sum 2560
scalar PimDmIpv6.Host3.eth[0].queue.dataQueue incomingPackets:count 4
scalar PimDmIpv6.Host3.eth[0].queue.dataQueue incomingPacketLengths:sum 2560
scalar PimDmIpv6.Host3.eth[0].queue.dataQueue droppedPacketsQueueOverflow:count 0
scalar PimDmIpv6.Host3.eth[0].queue.dataQueue droppedPacketLengthsQueueOverflow:sum 0
scalar PimDmIpv6.Host3.eth[0].queue.scheduler packets:count 4
scalar PimDmIpv6.Host3.eth[0].queue.scheduler packetLengths:sum 2560
scalar PimDmIpv6.Host3.eth[0].queue queueLength:last -4
scalar PimDmIpv6.Host3.eth[0].queue queueLength:max 0
scalar PimDmIpv6.Host3.eth[0].queue queueLength:timeavg -2.7810504425131914
scalar PimDmIpv6.Host3.eth[0].queue queueBitLength:last -2560
scalar PimDmIpv6.Host3.eth[0].queue queueBitLength:max 0
scalar PimDmIpv6.Host3.eth[0].queue queueBitLength:timeavg -1760.9772583739707
scalar PimDmIpv6.Host3.eth[0].queue outgoingPackets:count 4
scalar PimDmIpv6.Host3.eth[0].queue outgoingPacketLengths:sum 2560
scalar PimDmIpv6.Host3.eth[0].queue incomingPackets:count 0
scalar PimDmIpv6.Host3.eth[0].queue incomingPacketLengths:sum 0
scalar PimDmIpv6.Host3.eth[0].queue droppedPacketsQueueOverflow:count 0
scalar PimDmIpv6.Host3.eth[0].queue droppedPacketLengthsQueueOverflow:sum 0
scalar PimDmIpv6.Host3.eth[0].mac "simulated time" 120
scalar PimDmIpv6.Host3.eth[0].mac full-duplex 1
scalar PimDmIpv6.Host3.eth[0].mac "frames/sec sent" 0.03333333333333333
scalar PimDmIpv6.Host3.eth[0].mac "frames/sec rcvd" 0.4583333333333333
scalar PimDmIpv6.Host3.eth[0].mac "bits/sec sent" 21.333333333333332
scalar PimDmIpv6.Host3.eth[0].mac "bits/sec rcvd" 548.1333333333333
scalar PimDmIpv6.Host3.eth[0].mac "rx channel idle (%)" 99.99942253333333
scalar PimDmIpv6.Host3.eth[0].mac "rx channel utilization (%)" 0.0005774666666666666
scalar PimDmIpv6.Host3.eth[0].mac rxPausePkUnits:count 0
scalar PimDmIpv6.Host3.eth[0].mac rxPausePkUnits:sum 0
scalar PimDmIpv6.Host3.eth[0].mac txPausePkUnits:count 0
scalar PimDmIpv6.Host3.eth[0].mac txPausePkUnits:sum 0
scalar PimDmIpv6.Host3.eth[0].mac rxPkOk:count 55
scalar PimDmIpv6.Host3.eth[0].mac rxPkOk:sum(packetBytes) 8222
scalar PimDmIpv6.Host3.eth[0].mac txPk:count 4
scalar PimDmIpv6.Host3.eth[0].mac txPk:sum(packetBytes) 320
scalar PimDmIpv6.Host3.eth[0].mac packetReceivedFromUpper:count 4
scalar PimDmIpv6.Host3.eth[0].mac packetReceivedFromUpper:sum(packetBytes) 320
scalar PimDmIpv6.Host3.eth[0].mac passedUpPk:count 55
scalar PimDmIpv6.Host3.eth[0].mac passedUpPk:sum(packetBytes) 8222
scalar PimDmIpv6.Host3.eth[0].mac packetDropIncorrectlyReceived:count 0
scalar PimDmIpv6.Host3.eth[0].mac packetDropIncorrectlyReceived:sum(packetBytes) 0
scalar PimDmIpv6.Host3.eth[0].mac packetDropInterfaceDown:count 0
scalar PimDmIpv6.Host3.eth[0].mac packetDropInterfaceDown:sum(packetBytes) 0
scalar PimDmIpv6.Host3.eth[0].mac packetDropNotAddressedToUs:count 0
scalar PimDmIpv6.Host3.eth[0].mac packetDropNotAddressedToUs:sum(packetBytes) 0
scalar PimDmIpv6.Host3.eth[0] packetDropInterfaceDown:count 0
scalar PimDmIpv6.Host3.eth[0] packetDropInterfaceDown:sum(packetBytes) 0
scalar PimDmIpv6.Host3.eth[0] packetDropNoCarrier:count 0
scalar PimDmIpv6.Host3.eth[0] packetDropNoCarrier:sum(packetBytes) 0
scalar PimDmIpv6.Host3.ipv6.neighbourDiscovery dadFailed:count 0
scalar PimDmIpv6.Host3.ipv6.neighbourDiscovery dadCompleted:count 2
scalar PimDmIpv6.Host3.ipv6.neighbourDiscovery startDad:count 1
scalar PimDmIpv6.Host3.udp packetReceived:count 44
scalar PimDmIpv6.Host3.udp packetReceived:sum(packetBytes) 4752
scalar PimDmIpv6.Host3.udp packetSent:count 0
scalar PimDmIpv6.Host3.udp packetSent:sum(packetBytes) 0
scalar PimDmIpv6.Host3.udp passedUpPk:count 44
scalar PimDmIpv6.Host3.udp droppedPkWrongPort:count 0
scalar PimDmIpv6.Host3.udp droppedPkBadChecksum:count 0
scalar PimDmIpv6.Host3.app[0] packetReceived:count 44
scalar PimDmIpv6.Host3.app[0] packetReceived:sum(packetBytes) 4400
scalar PimDmIpv6.Source1.app[0] rcvdPkLifetime:stats:count 0
scalar PimDmIpv6.Source1.app[0] rcvdPkLifetime:stats:sumweights 0
scalar PimDmIpv6.Source1.app[0] rcvdPkLifetime:stats:mean nan
scalar PimDmIpv6.Source1.app[0] rcvdPkLifetime:stats:stddev nan
scalar PimDmIpv6.Source1.app[0] rcvdPkLifetime:stats:min nan
scalar PimDmIpv6.Source1.app[0] rcvdPkLifetime:stats:max nan
scalar PimDmIpv6.Source1.app[0] rcvdPkLifetime:stats:numbins 0
scalar PimDmIpv6.R1.eth[0].queue.classifier packetLengths:histogram:count 94
scalar PimDmIpv6.R1.eth[0].queue.classifier packetLengths:histogram:sumweights 94
scalar PimDmIpv6.R1.eth[0].queue.classifier packetLengths:histogram:mean 1261.6170212765958
scalar PimDmIpv6.R1.eth[0].queue.classifier packetLengths:histogram:stddev 205.23498760510674
scalar PimDmIpv6.R1.eth[0].queue.classifier packetLengths:histogram:min 608
scalar PimDmIpv6.R1.eth[0].queue.classifier packetLengths:histogram:max 1328
scalar PimDmIpv6.R1.eth[0].queue.classifier packetLengths:histogram:numbins 55
scalar PimDmIpv6.R1.eth[0].queue.classifier packetLengths:histogram:rangemin 420
scalar PimDmIpv6.R1.eth[0].queue.classifier packetLengths:histogram:rangemax 1520
scalar PimDmIpv6.R1.eth[0].queue.classifier packetLengths:histogram:underflows 0
scalar PimDmIpv6.R1.eth[0].queue.classifier packetLengths:histogram:overflows 0
scalar PimDmIpv6.R1.eth[0].queue.pauseQueue queueingTime:histogram:count 0
scalar PimDmIpv6.R1.eth[0].queue.pauseQueue queueingTime:histogram:sumweights 0
scalar PimDmIpv6.R1.eth[0].queue.pauseQueue queueingTime:histogram:mean nan
scalar PimDmIpv6.R1.eth[0].queue.pauseQueue queueingTime:histogram:stddev nan
scalar PimDmIpv6.R1.eth[0].queue.pauseQueue queueingTime:histogram:min nan
scalar PimDmIpv6.R1.eth[0].queue.pauseQueue queueingTime:histogram:max nan
scalar PimDmIpv6.R1.eth[0].queue.pauseQueue queueingTime:histogram:numbins 1
scalar PimDmIpv6.R1.eth[0].queue.pauseQueue queueingTime:histogram:rangemin 0
scalar PimDmIpv6.R1.eth[0].queue.pauseQueue queueingTime:histogram:rangemax 1
scalar PimDmIpv6.R1.eth[0].queue.pauseQueue queueingTime:histogram:underflows 0
scalar PimDmIpv6.R1.eth[0].queue.pauseQueue queueingTime:histogram:overflows 0
scalar PimDmIpv6.R1.eth[0].queue.pauseQueue outgoingPacketLengths:histogram:count 0
scalar PimDmIpv6.R1.eth[0].queue.pauseQueue outgoingPacketLengths:histogram:sumweights 0
scalar PimDmIpv6.R1.eth[0].queue.pauseQueue outgoingPacketLengths:histogram:mean nan
scalar PimDmIpv6.R1.eth[0].queue.pauseQueue outgoingPacketLengths:histogram:stddev nan
scalar PimDmIpv6.R1.eth[0].queue.pauseQueue outgoingPacketLengths:histogram:min nan
scalar PimDmIpv6.R1.eth[0].queue.pauseQueue outgoingPacketLengths:histogram:max nan
scalar PimDmIpv6.R1.eth[0].queue.pauseQueue outgoingPacketLengths:histogram:numbins 1
scalar PimDmIpv6.R1.eth[0].queue.pauseQueue outgoingPacketLengths:histogram:rangemin 0
scalar PimDmIpv6.R1.eth[0].queue.pauseQueue outgoingPacketLengths:histogram:rangemax 1
scalar PimDmIpv6.R1.eth[0].queue.pauseQueue outgoingPacketLengths:histogram:underflows 0
scalar PimDmIpv6.R1.eth[0].queue.pauseQueue outgoingPacketLengths:histogram:overflows 0
scalar PimDmIpv6.R1.eth[0].queue.pauseQueue flowQueueingTime:histogram:count 0
scalar PimDmIpv6.R1.eth[0].queue.pauseQueue flowQueueingTime:histogram:sumweights 0
scalar PimDmIpv6.R1.eth[0].queue.pauseQueue flowQueueingTime:histogram:mean nan
scalar PimDmIpv6.R1.eth[0].queue.pauseQueue flowQueueingTime:histogram:stddev nan
scalar PimDmIpv6.R1.eth[0].queue.pauseQueue flowQueueingTime:histogram:min nan
scalar PimDmIpv6.R1.eth[0].queue.pauseQueue flowQueueingTime:histogram:max nan
scalar PimDmIpv6.R1.eth[0].queue.pauseQueue flowQueueingTime:histogram:numbins 1
scalar PimDmIpv6.R1.eth[0].queue.pauseQueue flowQueueingTime:histogram:rangemin 0
scalar PimDmIpv6.R1.eth[0].queue.pauseQueue flowQueueingTime:histogram:rangemax 1
scalar PimDmIpv6.R1.eth[0].queue.pauseQueue flowQueueingTime:histogram:underflows 0
scalar PimDmIpv6.R1.eth[0].queue.pauseQueue flowQueueingTime:histogram:overflows 0
scalar PimDmIpv6.R1.eth[0].queue.pauseQueue incomingPacketLengths:histogram:count 0
scalar PimDmIpv6.R1.eth[0].queue.pauseQueue incomingPacketLengths:histogram:sumweights 0
scalar PimDmIpv6.R1.eth[0].queue.pauseQueue incomingPacketLengths:histogram:mean nan
scalar PimDmIpv6.R1.eth[0].queue.pauseQueue incomingPacketLengths:histogram:stddev nan
scalar PimDmIpv6.R1.eth[0].queue.pauseQueue incomingPacketLengths:histogram:min nan
scalar PimDmIpv6.R1.eth[0].queue.pauseQueue incomingPacketLengths:histogram:max nan
scalar PimDmIpv6.R1.eth[0].queue.pauseQueue incomingPacketLengths:histogram:numbins 1
scalar PimDmIpv6.R1.eth[0].queue.pauseQueue incomingPacketLengths:histogram:rangemin 0
scalar PimDmIpv6.R1.eth[0].queue.pauseQueue incomingPacketLengths:histogram:rangemax 1
scalar PimDmIpv6.R1.eth[0].queue.pauseQueue incomingPacketLengths:histogram:underflows 0
scalar PimDmIpv6.R1.eth[0].queue.pauseQueue incomingPacketLengths:histogram:overflows 0
scalar PimDmIpv6.R1.eth[0].queue.dataQueue queueingTime:histogram:count 94
scalar PimDmIpv6.R1.eth[0].queue.dataQueue queueingTime:histogram:sumweights 94
scalar PimDmIpv6.R1.eth[0].queue.dataQueue queueingTime:histogram:mean 2.604255319148936e-07
scalar PimDmIpv6.R1.eth[0].queue.dataQueue queueingTime:histogram:stddev 1.873851714272783e-06
scalar PimDmIpv6.R1.eth[0].queue.dataQueue queueingTime:histogram:min 0
scalar PimDmIpv6.R1.eth[0].queue.dataQueue queueingTime:histogram:max 1.632e-05
scalar PimDmIpv6.R1.eth[0].queue.dataQueue queueingTime:histogram:numbins 102
scalar PimDmIpv6.R1.eth[0].queue.dataQueue queueingTime:histogram:rangemin 0
scalar PimDmIpv6.R1.eth[0].queue.dataQueue queueingTime:histogram:rangemax 2.0400000000000005e-05
scalar PimDmIpv6.R1.eth[0].queue.dataQueue queueingTime:histogram:underflows 0
scalar PimDmIpv6.R1.eth[0].queue.dataQueue queueingTime:histogram:overflows 0
scalar PimDmIpv6.R1.eth[0].queue.dataQueue outgoingPacketLengths:histogram:count 94
scalar PimDmIpv6.R1.eth[0].queue.dataQueue outgoingPacketLengths:histogram:sumweights 94
scalar PimDmIpv6.R1.eth[0].queue.dataQueue outgoingPacketLengths:histogram:mean 1261.6170212765958
scalar PimDmIpv6.R1.eth[0].queue.dataQueue outgoingPacketLengths:histogram:stddev 205.23498760510674
scalar PimDmIpv6.R1.eth[0].queue.dataQueue outgoingPacketLengths:histogram:min 608
scalar PimDmIpv6.R1.eth[0].queue.dataQueue outgoingPacketLengths:histogram:max 1328
scalar PimDmIpv6.R1.eth[0].queue.dataQueue outgoingPacketLengths:histogram:numbins 55
scalar PimDmIpv6.R1.eth[0].queue.dataQueue outgoingPacketLengths:histogram:rangemin 420
scalar PimDmIpv6.R1.eth[0].queue.dataQueue outgoingPacketLengths:histogram:rangemax 1520
scalar PimDmIpv6.R1.eth[0].queue.dataQueue outgoingPacketLengths:histogram:underflows 0
scalar PimDmIpv6.R1.eth[0].queue.dataQueue outgoingPacketLengths:histogram:overflows 0
scalar PimDmIpv6.R1.eth[0].queue.dataQueue flowQueueingTime:histogram:count 0
scalar PimDmIpv6.R1.eth[0].queue.dataQueue flowQueueingTime:histogram:sumweights 0
scalar PimDmIpv6.R1.eth[0].queue.dataQueue flowQueueingTime:histogram:mean nan
scalar PimDmIpv6.R1.eth[0].queue.dataQueue flowQueueingTime:histogram:stddev nan
scalar PimDmIpv6.R1.eth[0].queue.dataQueue flowQueueingTime:histogram:min nan
scalar PimDmIpv6.R1.eth[0].queue.dataQueue flowQueueingTime:histogram:max nan
scalar PimDmIpv6.R1.eth[0].queue.dataQueue flowQueueingTime:histogram:numbins 1
scalar PimDmIpv6.R1.eth[0].queue.dataQueue flowQueueingTime:histogram:rangemin 0
scalar PimDmIpv6.R1.eth[0].queue.dataQueue flowQueueingTime:histogram:rangemax 1
scalar PimDmIpv6.R1.eth[0].queue.dataQueue flowQueueingTime:histogram:underflows 0
scalar PimDmIpv6.R1.eth[0].queue.dataQueue flowQueueingTime:histogram:overflows 0
scalar PimDmIpv6.R1.eth[0].queue.dataQueue incomingPacketLengths:histogram:count 94
scalar PimDmIpv6.R1.eth[0].queue.dataQueue incomingPacketLengths:histogram:sumweights 94
scalar PimDmIpv6.R1.eth[0].queue.dataQueue incomingPacketLengths:histogram:mean 1261.6170212765958
scalar PimDmIpv6.R1.eth[0].queue.dataQueue incomingPacketLengths:histogram:stddev 205.23498760510674
scalar PimDmIpv6.R1.eth[0].queue.dataQueue incomingPacketLengths:histogram:min 608
scalar PimDmIpv6.R1.eth[0].queue.dataQueue incomingPacketLengths:histogram:max 1328
scalar PimDmIpv6.R1.eth[0].queue.dataQueue incomingPacketLengths:histogram:numbins 55
scalar PimDmIpv6.R1.eth[0].queue.dataQueue incomingPacketLengths:histogram:rangemin 420
scalar PimDmIpv6.R1.eth[0].queue.dataQueue incomingPacketLengths:histogram:rangemax 1520
scalar PimDmIpv6.R1.eth[0].queue.dataQueue incomingPacketLengths:histogram:underflows 0
scalar PimDmIpv6.R1.eth[0].queue.dataQueue incomingPacketLengths:histogram:overflows 0
scalar PimDmIpv6.R1.eth[0].queue.scheduler packetLengths:histogram:count 94
scalar PimDmIpv6.R1.eth[0].queue.scheduler packetLengths:histogram:sumweights 94
scalar PimDmIpv6.R1.eth[0].queue.scheduler packetLengths:histogram:mean 1261.6170212765958
scalar PimDmIpv6.R1.eth[0].queue.scheduler packetLengths:histogram:stddev 205.23498760510674
scalar PimDmIpv6.R1.eth[0].queue.scheduler packetLengths:histogram:min 608
scalar PimDmIpv6.R1.eth[0].queue.scheduler packetLengths:histogram:max 1328
scalar PimDmIpv6.R1.eth[0].queue.scheduler packetLengths:histogram:numbins 55
scalar PimDmIpv6.R1.eth[0].queue.scheduler packetLengths:histogram:rangemin 420
scalar PimDmIpv6.R1.eth[0].queue.scheduler packetLengths:histogram:rangemax 1520
scalar PimDmIpv6.R1.eth[0].queue.scheduler packetLengths:histogram:underflows 0
scalar PimDmIpv6.R1.eth[0].queue.scheduler packetLengths:histogram:overflows 0
scalar PimDmIpv6.R1.eth[0].queue queueingTime:histogram:count 94
scalar PimDmIpv6.R1.eth[0].queue queueingTime:histogram:sumweights 94
scalar PimDmIpv6.R1.eth[0].queue queueingTime:histogram:mean 0
scalar PimDmIpv6.R1.eth[0].queue queueingTime:histogram:stddev 0
scalar PimDmIpv6.R1.eth[0].queue queueingTime:histogram:min 0
scalar PimDmIpv6.R1.eth[0].queue queueingTime:histogram:max 0
scalar PimDmIpv6.R1.eth[0].queue queueingTime:histogram:numbins 50
scalar PimDmIpv6.R1.eth[0].queue queueingTime:histogram:rangemin -0.5
scalar PimDmIpv6.R1.eth[0].queue queueingTime:histogram:rangemax 0.5
scalar PimDmIpv6.R1.eth[0].queue queueingTime:histogram:underflows 0
scalar PimDmIpv6.R1.eth[0].queue queueingTime:histogram:overflows 0
scalar PimDmIpv6.R1.eth[0].queue outgoingPacketLengths:histogram:count 94
scalar PimDmIpv6.R1.eth[0].queue outgoingPacketLengths:histogram:sumweights 94
scalar PimDmIpv6.R1.eth[0].queue outgoingPacketLengths:histogram:mean 1261.6170212765958
scalar PimDmIpv6.R1.eth[0].queue outgoingPacketLengths:histogram:stddev 205.23498760510674
scalar PimDmIpv6.R1.eth[0].queue outgoingPacketLengths:histogram:min 608
scalar PimDmIpv6.R1.eth[0].queue outgoingPacketLengths:histogram:max 1328
scalar PimDmIpv6.R1.eth[0].queue outgoingPacketLengths:histogram:numbins 55
scalar PimDmIpv6.R1.eth[0].queue outgoingPacketLengths:histogram:rangemin 420
scalar PimDmIpv6.R1.eth[0].queue outgoingPacketLengths:histogram:rangemax 1520
scalar PimDmIpv6.R1.eth[0].queue outgoingPacketLengths:histogram:underflows 0
scalar PimDmIpv6.R1.eth[0].queue outgoingPacketLengths:histogram:overflows 0
scalar PimDmIpv6.R1.eth[0].queue flowQueueingTime:histogram:count 0
scalar PimDmIpv6.R1.eth[0].queue flowQueueingTime:histogram:sumweights 0
scalar PimDmIpv6.R1.eth[0].queue flowQueueingTime:histogram:mean nan
scalar PimDmIpv6.R1.eth[0].queue flowQueueingTime:histogram:stddev nan
scalar PimDmIpv6.R1.eth[0].queue flowQueueingTime:histogram:min nan
scalar PimDmIpv6.R1.eth[0].queue flowQueueingTime:histogram:max nan
scalar PimDmIpv6.R1.eth[0].queue flowQueueingTime:histogram:numbins 1
scalar PimDmIpv6.R1.eth[0].queue flowQueueingTime:histogram:rangemin 0
scalar PimDmIpv6.R1.eth[0].queue flowQueueingTime:histogram:rangemax 1
scalar PimDmIpv6.R1.eth[0].queue flowQueueingTime:histogram:underflows 0
scalar PimDmIpv6.R1.eth[0].queue flowQueueingTime:histogram:overflows 0
scalar PimDmIpv6.R1.eth[0].queue incomingPacketLengths:histogram:count 0
scalar PimDmIpv6.R1.eth[0].queue incomingPacketLengths:histogram:sumweights 0
scalar PimDmIpv6.R1.eth[0].queue incomingPacketLengths:histogram:mean nan
scalar PimDmIpv6.R1.eth[0].queue incomingPacketLengths:histogram:stddev nan
scalar PimDmIpv6.R1.eth[0].queue incomingPacketLengths:histogram:min nan
scalar PimDmIpv6.R1.eth[0].queue incomingPacketLengths:histogram:max nan
scalar PimDmIpv6.R1.eth[0].queue incomingPacketLengths:histogram:numbins 1
scalar PimDmIpv6.R1.eth[0].queue incomingPacketLengths:histogram:rangemin 0
scalar PimDmIpv6.R1.eth[0].queue incomingPacketLengths:histogram:rangemax 1
scalar PimDmIpv6.R1.eth[0].queue incomingPacketLengths:histogram:underflows 0
scalar PimDmIpv6.R1.eth[0].queue incomingPacketLengths:histogram:overflows 0
scalar PimDmIpv6.R1.eth[0].mac throughput:histogram:count 1200
scalar PimDmIpv6.R1.eth[0].mac throughput:histogram:sumweights 1200
scalar PimDmIpv6.R1.eth[0].mac throughput:histogram:mean 1038.4
scalar PimDmIpv6.R1.eth[0].mac throughput:histogram:stddev 3644.6732559474863
scalar PimDmIpv6.R1.eth[0].mac throughput:histogram:min 0
scalar PimDmIpv6.R1.eth[0].mac throughput:histogram:max 21600
scalar PimDmIpv6.R1.eth[0].mac throughput:histogram:numbins 54
scalar PimDmIpv6.R1.eth[0].mac throughput:histogram:rangemin 0
scalar PimDmIpv6.R1.eth[0].mac throughput:histogram:rangemax 27000
scalar PimDmIpv6.R1.eth[0].mac throughput:histogram:underflows 0
scalar PimDmIpv6.R1.eth[0].mac throughput:histogram:overflows 0
[...]
scalar PimDmIpv6.Host3.eth[0].queue flowQueueingTime:vector:sum 0
scalar PimDmIpv6.Host3.eth[0].queue flowQueueingTime:vector:sumweights 0
scalar PimDmIpv6.Host3.eth[0].queue flowQueueingTime:vector:mean nan
scalar PimDmIpv6.Host3.eth[0].queue flowQueueingTime:vector:stddev nan
scalar PimDmIpv6.Host3.eth[0].queue flowQueueingTime:vector:min inf
scalar PimDmIpv6.Host3.eth[0].queue flowQueueingTime:vector:max -inf
scalar PimDmIpv6.Host3.eth[0].queue flowQueueingTime:vector:starttime nan
scalar PimDmIpv6.Host3.eth[0].queue flowQueueingTime:vector:endtime nan
scalar PimDmIpv6.Host3.eth[0].queue flowIncomingDataRate:vector:count 1200
scalar PimDmIpv6.Host3.eth[0].queue flowIncomingDataRate:vector:sum 0
scalar PimDmIpv6.Host3.eth[0].queue flowIncomingDataRate:vector:sumweights 1200
scalar PimDmIpv6.Host3.eth[0].queue flowIncomingDataRate:vector:mean 0
scalar PimDmIpv6.Host3.eth[0].queue flowIncomingDataRate:vector:stddev 0
scalar PimDmIpv6.Host3.eth[0].queue flowIncomingDataRate:vector:min 0
scalar PimDmIpv6.Host3.eth[0].queue flowIncomingDataRate:vector:max 0
scalar PimDmIpv6.Host3.eth[0].queue flowIncomingDataRate:vector:starttime 0.1
scalar PimDmIpv6.Host3.eth[0].queue flowIncomingDataRate:vector:endtime 120
scalar PimDmIpv6.Host3.eth[0].queue flowOutgoingDataRate:vector:count 1200
scalar PimDmIpv6.Host3.eth[0].queue flowOutgoingDataRate:vector:sum 0
scalar PimDmIpv6.Host3.eth[0].queue flowOutgoingDataRate:vector:sumweights 1200
scalar PimDmIpv6.Host3.eth[0].queue flowOutgoingDataRate:vector:mean 0
scalar PimDmIpv6.Host3.eth[0].queue flowOutgoingDataRate:vector:stddev 0
scalar PimDmIpv6.Host3.eth[0].queue flowOutgoingDataRate:vector:min 0
scalar PimDmIpv6.Host3.eth[0].queue flowOutgoingDataRate:vector:max 0
scalar PimDmIpv6.Host3.eth[0].queue flowOutgoingDataRate:vector:starttime 0.1
scalar PimDmIpv6.Host3.eth[0].queue flowOutgoingDataRate:vector:endtime 120
scalar PimDmIpv6.Host3.eth[0].mac transmitting:vector:count 10
scalar PimDmIpv6.Host3.eth[0].mac transmitting:vector:sum 4
scalar PimDmIpv6.Host3.eth[0].mac transmitting:vector:sumweights 10
scalar PimDmIpv6.Host3.eth[0].mac transmitting:vector:mean 0.4
scalar PimDmIpv6.Host3.eth[0].mac transmitting:vector:stddev 0.5163977794943222
scalar PimDmIpv6.Host3.eth[0].mac transmitting:vector:min 0
scalar PimDmIpv6.Host3.eth[0].mac transmitting:vector:max 1
scalar PimDmIpv6.Host3.eth[0].mac transmitting:vector:starttime 0
scalar PimDmIpv6.Host3.eth[0].mac transmitting:vector:endtime 73.68725885724801
scalar PimDmIpv6.Host3.eth[0].mac throughput:vector:count 1200
scalar PimDmIpv6.Host3.eth[0].mac throughput:vector:sum 28160.000000000004
scalar PimDmIpv6.Host3.eth[0].mac throughput:vector:sumweights 1200
scalar PimDmIpv6.Host3.eth[0].mac throughput:vector:mean 23.46666666666667
scalar PimDmIpv6.Host3.eth[0].mac throughput:vector:stddev 406.26123251724084
scalar PimDmIpv6.Host3.eth[0].mac throughput:vector:min 0
scalar PimDmIpv6.Host3.eth[0].mac throughput:vector:max 7200.000000000001
scalar PimDmIpv6.Host3.eth[0].mac throughput:vector:starttime 0.1
scalar PimDmIpv6.Host3.eth[0].mac throughput:vector:endtime 120
scalar PimDmIpv6.Host3.eth[0].mac utilization:vector:count 1200
scalar PimDmIpv6.Host3.eth[0].mac utilization:vector:sum 0.02816
scalar PimDmIpv6.Host3.eth[0].mac utilization:vector:sumweights 1200
scalar PimDmIpv6.Host3.eth[0].mac utilization:vector:mean 2.3466666666666667e-05
scalar PimDmIpv6.Host3.eth[0].mac utilization:vector:stddev 0.0004062612325172408
scalar PimDmIpv6.Host3.eth[0].mac utilization:vector:min 0
scalar PimDmIpv6.Host3.eth[0].mac utilization:vector:max 0.0072
scalar PimDmIpv6.Host3.eth[0].mac utilization:vector:starttime 0.1
scalar PimDmIpv6.Host3.eth[0].mac utilization:vector:endtime 120
scalar PimDmIpv6.Host3.eth[0].mac txPk:vector(packetBytes):count 4
scalar PimDmIpv6.Host3.eth[0].mac txPk:vector(packetBytes):sum 320
scalar PimDmIpv6.Host3.eth[0].mac txPk:vector(packetBytes):sumweights 4
scalar PimDmIpv6.Host3.eth[0].mac txPk:vector(packetBytes):mean 80
scalar PimDmIpv6.Host3.eth[0].mac txPk:vector(packetBytes):stddev 4
scalar PimDmIpv6.Host3.eth[0].mac txPk:vector(packetBytes):min 74
scalar PimDmIpv6.Host3.eth[0].mac txPk:vector(packetBytes):max 82
scalar PimDmIpv6.Host3.eth[0].mac txPk:vector(packetBytes):starttime 1.1403217199690001
scalar PimDmIpv6.Host3.eth[0].mac txPk:vector(packetBytes):endtime 73.68725885724801
scalar PimDmIpv6.Host3.eth[0].mac rxPkOk:vector(packetBytes):count 55
scalar PimDmIpv6.Host3.eth[0].mac rxPkOk:vector(packetBytes):sum 8222
scalar PimDmIpv6.Host3.eth[0].mac rxPkOk:vector(packetBytes):sumweights 55
scalar PimDmIpv6.Host3.eth[0].mac rxPkOk:vector(packetBytes):mean 149.4909090909091
scalar PimDmIpv6.Host3.eth[0].mac rxPkOk:vector(packetBytes):stddev 33.79725647821942
scalar PimDmIpv6.Host3.eth[0].mac rxPkOk:vector(packetBytes):min 76
scalar PimDmIpv6.Host3.eth[0].mac rxPkOk:vector(packetBytes):max 166
scalar PimDmIpv6.Host3.eth[0].mac rxPkOk:vector(packetBytes):starttime 0.04211248322700001
scalar PimDmIpv6.Host3.eth[0].mac rxPkOk:vector(packetBytes):endtime 114.00004191000002
scalar PimDmIpv6.Host3.eth[0].mac passedUpPk:vector(packetBytes):count 55
scalar PimDmIpv6.Host3.eth[0].mac passedUpPk:vector(packetBytes):sum 8222
scalar PimDmIpv6.Host3.eth[0].mac passedUpPk:vector(packetBytes):sumweights 55
scalar PimDmIpv6.Host3.eth[0].mac passedUpPk:vector(packetBytes):mean 149.4909090909091
scalar PimDmIpv6.Host3.eth[0].mac passedUpPk:vector(packetBytes):stddev 33.79725647821942
scalar PimDmIpv6.Host3.eth[0].mac passedUpPk:vector(packetBytes):min 76
scalar PimDmIpv6.Host3.eth[0].mac passedUpPk:vector(packetBytes):max 166
scalar PimDmIpv6.Host3.eth[0].mac passedUpPk:vector(packetBytes):starttime 0.04211248322700001
scalar PimDmIpv6.Host3.eth[0].mac passedUpPk:vector(packetBytes):endtime 114.00004191000002
scalar PimDmIpv6.Host3.eth[0].mac txPausePkUnits:vector:count 0
scalar PimDmIpv6.Host3.eth[0].mac txPausePkUnits:vector:sum 0
scalar PimDmIpv6.Host3.eth[0].mac txPausePkUnits:vector:sumweights 0
scalar PimDmIpv6.Host3.eth[0].mac txPausePkUnits:vector:mean nan
scalar PimDmIpv6.Host3.eth[0].mac txPausePkUnits:vector:stddev nan
scalar PimDmIpv6.Host3.eth[0].mac txPausePkUnits:vector:min inf
scalar PimDmIpv6.Host3.eth[0].mac txPausePkUnits:vector:max -inf
scalar PimDmIpv6.Host3.eth[0].mac txPausePkUnits:vector:starttime nan
scalar PimDmIpv6.Host3.eth[0].mac txPausePkUnits:vector:endtime nan
scalar PimDmIpv6.Host3.eth[0].mac rxPausePkUnits:vector:count 0
scalar PimDmIpv6.Host3.eth[0].mac rxPausePkUnits:vector:sum 0
scalar PimDmIpv6.Host3.eth[0].mac rxPausePkUnits:vector:sumweights 0
scalar PimDmIpv6.Host3.eth[0].mac rxPausePkUnits:vector:mean nan
scalar PimDmIpv6.Host3.eth[0].mac rxPausePkUnits:vector:stddev nan
scalar PimDmIpv6.Host3.eth[0].mac rxPausePkUnits:vector:min inf
scalar PimDmIpv6.Host3.eth[0].mac rxPausePkUnits:vector:max -inf
scalar PimDmIpv6.Host3.eth[0].mac rxPausePkUnits:vector:starttime nan
scalar PimDmIpv6.Host3.eth[0].mac rxPausePkUnits:vector:endtime nan
scalar PimDmIpv6.Host3.eth[0].mac packetReceivedFromUpper:vector(packetBytes):count 4
scalar PimDmIpv6.Host3.eth[0].mac packetReceivedFromUpper:vector(packetBytes):sum 320
scalar PimDmIpv6.Host3.eth[0].mac packetReceivedFromUpper:vector(packetBytes):sumweights 4
scalar PimDmIpv6.Host3.eth[0].mac packetReceivedFromUpper:vector(packetBytes):mean 80
scalar PimDmIpv6.Host3.eth[0].mac packetReceivedFromUpper:vector(packetBytes):stddev 4
scalar PimDmIpv6.Host3.eth[0].mac packetReceivedFromUpper:vector(packetBytes):min 74
scalar PimDmIpv6.Host3.eth[0].mac packetReceivedFromUpper:vector(packetBytes):max 82
scalar PimDmIpv6.Host3.eth[0].mac packetReceivedFromUpper:vector(packetBytes):starttime 1.1403151599690002
scalar PimDmIpv6.Host3.eth[0].mac packetReceivedFromUpper:vector(packetBytes):endtime 73.68725165724801
scalar PimDmIpv6.Host3.eth[0].mac packetDropIncorrectlyReceived:vector(packetBytes):count 0
scalar PimDmIpv6.Host3.eth[0].mac packetDropIncorrectlyReceived:vector(packetBytes):sum 0
scalar PimDmIpv6.Host3.eth[0].mac packetDropIncorrectlyReceived:vector(packetBytes):sumweights 0
scalar PimDmIpv6.Host3.eth[0].mac packetDropIncorrectlyReceived:vector(packetBytes):mean nan
scalar PimDmIpv6.Host3.eth[0].mac packetDropIncorrectlyReceived:vector(packetBytes):stddev nan
scalar PimDmIpv6.Host3.eth[0].mac packetDropIncorrectlyReceived:vector(packetBytes):min inf
scalar PimDmIpv6.Host3.eth[0].mac packetDropIncorrectlyReceived:vector(packetBytes):max -inf
scalar PimDmIpv6.Host3.eth[0].mac packetDropIncorrectlyReceived:vector(packetBytes):starttime nan
scalar PimDmIpv6.Host3.eth[0].mac packetDropIncorrectlyReceived:vector(packetBytes):endtime nan
scalar PimDmIpv6.Host3.eth[0].mac packetDropInterfaceDown:vector(packetBytes):count 0
scalar PimDmIpv6.Host3.eth[0].mac packetDropInterfaceDown:vector(packetBytes):sum 0
scalar PimDmIpv6.Host3.eth[0].mac packetDropInterfaceDown:vector(packetBytes):sumweights 0
scalar PimDmIpv6.Host3.eth[0].mac packetDropInterfaceDown:vector(packetBytes):mean nan
scalar PimDmIpv6.Host3.eth[0].mac packetDropInterfaceDown:vector(packetBytes):stddev nan
scalar PimDmIpv6.Host3.eth[0].mac packetDropInterfaceDown:vector(packetBytes):min inf
scalar PimDmIpv6.Host3.eth[0].mac packetDropInterfaceDown:vector(packetBytes):max -inf
scalar PimDmIpv6.Host3.eth[0].mac packetDropInterfaceDown:vector(packetBytes):starttime nan
scalar PimDmIpv6.Host3.eth[0].mac packetDropInterfaceDown:vector(packetBytes):endtime nan
scalar PimDmIpv6.Host3.eth[0].mac packetDropNotAddressedToUs:vector(packetBytes):count 0
scalar PimDmIpv6.Host3.eth[0].mac packetDropNotAddressedToUs:vector(packetBytes):sum 0
scalar PimDmIpv6.Host3.eth[0].mac packetDropNotAddressedToUs:vector(packetBytes):sumweights 0
scalar PimDmIpv6.Host3.eth[0].mac packetDropNotAddressedToUs:vector(packetBytes):mean nan
scalar PimDmIpv6.Host3.eth[0].mac packetDropNotAddressedToUs:vector(packetBytes):stddev nan
scalar PimDmIpv6.Host3.eth[0].mac packetDropNotAddressedToUs:vector(packetBytes):min inf
scalar PimDmIpv6.Host3.eth[0].mac packetDropNotAddressedToUs:vector(packetBytes):max -inf
scalar PimDmIpv6.Host3.eth[0].mac packetDropNotAddressedToUs:vector(packetBytes):starttime nan
scalar PimDmIpv6.Host3.eth[0].mac packetDropNotAddressedToUs:vector(packetBytes):endtime nan
scalar PimDmIpv6.Host3.eth[0] packetDropInterfaceDown:vector(packetBytes):count 0
scalar PimDmIpv6.Host3.eth[0] packetDropInterfaceDown:vector(packetBytes):sum 0
scalar PimDmIpv6.Host3.eth[0] packetDropInterfaceDown:vector(packetBytes):sumweights 0
scalar PimDmIpv6.Host3.eth[0] packetDropInterfaceDown:vector(packetBytes):mean nan
scalar PimDmIpv6.Host3.eth[0] packetDropInterfaceDown:vector(packetBytes):stddev nan
scalar PimDmIpv6.Host3.eth[0] packetDropInterfaceDown:vector(packetBytes):min inf
scalar PimDmIpv6.Host3.eth[0] packetDropInterfaceDown:vector(packetBytes):max -inf
scalar PimDmIpv6.Host3.eth[0] packetDropInterfaceDown:vector(packetBytes):starttime nan
scalar PimDmIpv6.Host3.eth[0] packetDropInterfaceDown:vector(packetBytes):endtime nan
scalar PimDmIpv6.Host3.eth[0] packetDropNoCarrier:vector(packetBytes):count 0
scalar PimDmIpv6.Host3.eth[0] packetDropNoCarrier:vector(packetBytes):sum 0
scalar PimDmIpv6.Host3.eth[0] packetDropNoCarrier:vector(packetBytes):sumweights 0
scalar PimDmIpv6.Host3.eth[0] packetDropNoCarrier:vector(packetBytes):mean nan
scalar PimDmIpv6.Host3.eth[0] packetDropNoCarrier:vector(packetBytes):stddev nan
scalar PimDmIpv6.Host3.eth[0] packetDropNoCarrier:vector(packetBytes):min inf
scalar PimDmIpv6.Host3.eth[0] packetDropNoCarrier:vector(packetBytes):max -inf
scalar PimDmIpv6.Host3.eth[0] packetDropNoCarrier:vector(packetBytes):starttime nan
scalar PimDmIpv6.Host3.eth[0] packetDropNoCarrier:vector(packetBytes):endtime nan
scalar PimDmIpv6.Host3.ipv6.neighbourDiscovery startDad:vector:count 1
scalar PimDmIpv6.Host3.ipv6.neighbourDiscovery startDad:vector:sum 1
scalar PimDmIpv6.Host3.ipv6.neighbourDiscovery startDad:vector:sumweights 1
scalar PimDmIpv6.Host3.ipv6.neighbourDiscovery startDad:vector:mean 1
scalar PimDmIpv6.Host3.ipv6.neighbourDiscovery startDad:vector:stddev nan
scalar PimDmIpv6.Host3.ipv6.neighbourDiscovery startDad:vector:min 1
scalar PimDmIpv6.Host3.ipv6.neighbourDiscovery startDad:vector:max 1
scalar PimDmIpv6.Host3.ipv6.neighbourDiscovery startDad:vector:starttime 1.4463800812000005
scalar PimDmIpv6.Host3.ipv6.neighbourDiscovery startDad:vector:endtime 1.4463800812000005
scalar PimDmIpv6.Host3.ipv6.neighbourDiscovery dadCompleted:vector:count 2
scalar PimDmIpv6.Host3.ipv6.neighbourDiscovery dadCompleted:vector:sum 2
scalar PimDmIpv6.Host3.ipv6.neighbourDiscovery dadCompleted:vector:sumweights 2
scalar PimDmIpv6.Host3.ipv6.neighbourDiscovery dadCompleted:vector:mean 1
scalar PimDmIpv6.Host3.ipv6.neighbourDiscovery dadCompleted:vector:stddev 0
scalar PimDmIpv6.Host3.ipv6.neighbourDiscovery dadCompleted:vector:min 1
scalar PimDmIpv6.Host3.ipv6.neighbourDiscovery dadCompleted:vector:max 1
scalar PimDmIpv6.Host3.ipv6.neighbourDiscovery dadCompleted:vector:starttime 0.6841648240110001
scalar PimDmIpv6.Host3.ipv6.neighbourDiscovery dadCompleted:vector:endtime 3.3901281564820005
scalar PimDmIpv6.Host3.ipv6.neighbourDiscovery dadFailed:vector:count 0
scalar PimDmIpv6.Host3.ipv6.neighbourDiscovery dadFailed:vector:sum 0
scalar PimDmIpv6.Host3.ipv6.neighbourDiscovery dadFailed:vector:sumweights 0
scalar PimDmIpv6.Host3.ipv6.neighbourDiscovery dadFailed:vector:mean nan
scalar PimDmIpv6.Host3.ipv6.neighbourDiscovery dadFailed:vector:stddev nan
scalar PimDmIpv6.Host3.ipv6.neighbourDiscovery dadFailed:vector:min inf
scalar PimDmIpv6.Host3.ipv6.neighbourDiscovery dadFailed:vector:max -inf
scalar PimDmIpv6.Host3.ipv6.neighbourDiscovery dadFailed:vector:starttime nan
scalar PimDmIpv6.Host3.ipv6.neighbourDiscovery dadFailed:vector:endtime nan
scalar PimDmIpv6.Host3.udp packetSent:vector(packetBytes):count 0
scalar PimDmIpv6.Host3.udp packetSent:vector(packetBytes):sum 0
scalar PimDmIpv6.Host3.udp packetSent:vector(packetBytes):sumweights 0
scalar PimDmIpv6.Host3.udp packetSent:vector(packetBytes):mean nan
scalar PimDmIpv6.Host3.udp packetSent:vector(packetBytes):stddev nan
scalar PimDmIpv6.Host3.udp packetSent:vector(packetBytes):min inf
scalar PimDmIpv6.Host3.udp packetSent:vector(packetBytes):max -inf
scalar PimDmIpv6.Host3.udp packetSent:vector(packetBytes):starttime nan
scalar PimDmIpv6.Host3.udp packetSent:vector(packetBytes):endtime nan
scalar PimDmIpv6.Host3.udp outgoingDataRate:vector:count 1200
scalar PimDmIpv6.Host3.udp outgoingDataRate:vector:sum 0
scalar PimDmIpv6.Host3.udp outgoingDataRate:vector:sumweights 1200
scalar PimDmIpv6.Host3.udp outgoingDataRate:vector:mean 0
scalar PimDmIpv6.Host3.udp outgoingDataRate:vector:stddev 0
scalar PimDmIpv6.Host3.udp outgoingDataRate:vector:min 0
scalar PimDmIpv6.Host3.udp outgoingDataRate:vector:max 0
scalar PimDmIpv6.Host3.udp outgoingDataRate:vector:starttime 0.1
scalar PimDmIpv6.Host3.udp outgoingDataRate:vector:endtime 120
scalar PimDmIpv6.Host3.udp packetReceived:vector(packetBytes):count 44
scalar PimDmIpv6.Host3.udp packetReceived:vector(packetBytes):sum 4752
scalar PimDmIpv6.Host3.udp packetReceived:vector(packetBytes):sumweights 44
scalar PimDmIpv6.Host3.udp packetReceived:vector(packetBytes):mean 108
scalar PimDmIpv6.Host3.udp packetReceived:vector(packetBytes):stddev 0
scalar PimDmIpv6.Host3.udp packetReceived:vector(packetBytes):min 108
scalar PimDmIpv6.Host3.udp packetReceived:vector(packetBytes):max 108
scalar PimDmIpv6.Host3.udp packetReceived:vector(packetBytes):starttime 71.00004191000001
scalar PimDmIpv6.Host3.udp packetReceived:vector(packetBytes):endtime 114.00004191000002
scalar PimDmIpv6.Host3.udp passedUpPk:vector(count):count 45
scalar PimDmIpv6.Host3.udp passedUpPk:vector(count):sum 990
scalar PimDmIpv6.Host3.udp passedUpPk:vector(count):sumweights 45
scalar PimDmIpv6.Host3.udp passedUpPk:vector(count):mean 22
scalar PimDmIpv6.Host3.udp passedUpPk:vector(count):stddev 13.133925536563698
scalar PimDmIpv6.Host3.udp passedUpPk:vector(count):min 0
scalar PimDmIpv6.Host3.udp passedUpPk:vector(count):max 44
scalar PimDmIpv6.Host3.udp passedUpPk:vector(count):starttime 0
scalar PimDmIpv6.Host3.udp passedUpPk:vector(count):endtime 114.00004191000002
scalar PimDmIpv6.Host3.udp droppedPkWrongPort:vector(count):count 1
scalar PimDmIpv6.Host3.udp droppedPkWrongPort:vector(count):sum 0
scalar PimDmIpv6.Host3.udp droppedPkWrongPort:vector(count):sumweights 1
scalar PimDmIpv6.Host3.udp droppedPkWrongPort:vector(count):mean 0
scalar PimDmIpv6.Host3.udp droppedPkWrongPort:vector(count):stddev nan
scalar PimDmIpv6.Host3.udp droppedPkWrongPort:vector(count):min 0
scalar PimDmIpv6.Host3.udp droppedPkWrongPort:vector(count):max 0
scalar PimDmIpv6.Host3.udp droppedPkWrongPort:vector(count):starttime 0
scalar PimDmIpv6.Host3.udp droppedPkWrongPort:vector(count):endtime 0
scalar PimDmIpv6.Host3.udp droppedPkBadChecksum:vector(count):count 1
scalar PimDmIpv6.Host3.udp droppedPkBadChecksum:vector(count):sum 0
scalar PimDmIpv6.Host3.udp droppedPkBadChecksum:vector(count):sumweights 1
scalar PimDmIpv6.Host3.udp droppedPkBadChecksum:vector(count):mean 0
scalar PimDmIpv6.Host3.udp droppedPkBadChecksum:vector(count):stddev nan
scalar PimDmIpv6.Host3.udp droppedPkBadChecksum:vector(count):min 0
scalar PimDmIpv6.Host3.udp droppedPkBadChecksum:vector(count):max 0
scalar PimDmIpv6.Host3.udp droppedPkBadChecksum:vector(count):starttime 0
scalar PimDmIpv6.Host3.udp droppedPkBadChecksum:vector(count):endtime 0
scalar PimDmIpv6.Host3.app[0] packetReceived:vector(packetBytes):count 44
scalar PimDmIpv6.Host3.app[0] packetReceived:vector(packetBytes):sum 4400
scalar PimDmIpv6.Host3.app[0] packetReceived:vector(packetBytes):sumweights 44
scalar PimDmIpv6.Host3.app[0] packetReceived:vector(packetBytes):mean 100
scalar PimDmIpv6.Host3.app[0] packetReceived:vector(packetBytes):stddev 0
scalar PimDmIpv6.Host3.app[0] packetReceived:vector(packetBytes):min 100
scalar PimDmIpv6.Host3.app[0] packetReceived:vector(packetBytes):max 100
scalar PimDmIpv6.Host3.app[0] packetReceived:vector(packetBytes):starttime 71.00004191000001
scalar PimDmIpv6.Host3.app[0] packetReceived:vector(packetBytes):endtime 114.00004191000002
scalar PimDmIpv6.Host3.app[0] throughput:vector:count 1200
scalar PimDmIpv6.Host3.app[0] throughput:vector:sum 352000.00000000006
scalar PimDmIpv6.Host3.app[0] throughput:vector:sumweights 1200
scalar PimDmIpv6.Host3.app[0] throughput:vector:mean 293.33333333333337
scalar PimDmIpv6.Host3.app[0] throughput:vector:stddev 1504.1634370173804
scalar PimDmIpv6.Host3.app[0] throughput:vector:min 0
scalar PimDmIpv6.Host3.app[0] throughput:vector:max 8000.000000000001
scalar PimDmIpv6.Host3.app[0] throughput:vector:starttime 0.1
scalar PimDmIpv6.Host3.app[0] throughput:vector:endtime 120
scalar PimDmIpv6.Host3.app[0] endToEndDelay:vector:count 44
scalar PimDmIpv6.Host3.app[0] endToEndDelay:vector:sum 0.00184404
scalar PimDmIpv6.Host3.app[0] endToEndDelay:vector:sumweights 44
scalar PimDmIpv6.Host3.app[0] endToEndDelay:vector:mean 4.191e-05
scalar PimDmIpv6.Host3.app[0] endToEndDelay:vector:stddev 0
scalar PimDmIpv6.Host3.app[0] endToEndDelay:vector:min 4.191e-05
scalar PimDmIpv6.Host3.app[0] endToEndDelay:vector:max 4.191e-05
scalar PimDmIpv6.Host3.app[0] endToEndDelay:vector:starttime 71.00004191000001
scalar PimDmIpv6.Host3.app[0] endToEndDelay:vector:endtime 114.00004191000002
scalar PimDmIpv6.Host3.app[0] rcvdPkSeqNo:vector:count 44
scalar PimDmIpv6.Host3.app[0] rcvdPkSeqNo:vector:sum 2750
scalar PimDmIpv6.Host3.app[0] rcvdPkSeqNo:vector:sumweights 44
scalar PimDmIpv6.Host3.app[0] rcvdPkSeqNo:vector:mean 62.5
scalar PimDmIpv6.Host3.app[0] rcvdPkSeqNo:vector:stddev 12.84523257866513
scalar PimDmIpv6.Host3.app[0] rcvdPkSeqNo:vector:min 41
scalar PimDmIpv6.Host3.app[0] rcvdPkSeqNo:vector:max 84
scalar PimDmIpv6.Host3.app[0] rcvdPkSeqNo:vector:starttime 71.00004191000001
scalar PimDmIpv6.Host3.app[0] rcvdPkSeqNo:vector:endtime 114.00004191000002

