version 3
run General-0-20260630-20:06:36-3560165
attr configname General
attr datetime 20260630-20:06:36
attr datetimef 20260630-200636
attr experiment General
attr inifile omnetpp.ini
attr iterationvars ""
attr iterationvarsd ""
attr iterationvarsf ""
attr measurement ""
attr network BgpDiamondFailover
attr processid 3560165
attr repetition 0
attr replication #0
attr resultdir results
attr runnumber 0
attr seedset 0
config **.param-recording false
config image-path /home/andras/projects/inet/images
config output-scalar-file results/omnetpp.ini-General-#0.sca
config output-scalar-precision 17
config output-vector-file results/omnetpp.ini-General-#0.vec
config output-vector-precision 17
config record-eventlog false
config sim-time-limit 160s
config description "IPv4 BGP diamond failover and failback with Adj-RIB-In fallback"
config network BgpDiamondFailover
config sim-time-limit 160s
config **.app[0].**.scalar-recording true
config *.hostA.app[0].**.vector-recording true
config **.bgp.**.scalar-recording true
config **.scalar-recording false
config **.vector-recording false
config **.eth[*].queue.packetCapacity 100
config **.tcp.typename Tcp
config **.tcp.mss 1024
config **.tcp.advertisedWindow 14336
config **.tcp.tcpAlgorithmClass "\"TcpReno\""
config **.bgpConfig "xmldoc(\"BGPConfig.xml\")"
config **.bgp.startDelay 2s
config **.bgp.connectRetryTime 5s
config **.bgp.holdTime 6s
config **.bgp.keepAliveTime 2s
config *.A.bgp.routerId "\"1.1.1.1\""
config *.B.bgp.routerId "\"2.2.2.2\""
config *.C.bgp.routerId "\"3.3.3.3\""
config *.D.bgp.routerId "\"4.4.4.4\""
config *.visualizer.interfaceTableVisualizer.displayInterfaceTables true
config *.hostA.numApps 1
config *.hostA.app[0].typename PingApp
config *.hostA.app[0].destAddr "\"10.0.3.100\""
config *.hostA.app[0].startTime 20s
config *.hostA.app[0].sendInterval 1s
config *.hostC.numApps 1
config *.hostC.app[0].typename PingApp
config *.hostC.app[0].destAddr "\"\""
config *.scenarioManager.script "xml(         \"<script>\\n\" +         \"<at t='60s'><shutdown module='B'/></at>\\n\" +         \"<at t='100s'><startup module='B'/></at>\\n\" +         \"<at t='140s'><crash module='B'/></at>\\n\" +         \"</script>\")"

scalar BgpDiamondFailover.hostA.app[0] "Pings sent" 141
scalar BgpDiamondFailover.hostA.app[0] "ping loss rate (%)" 4.25531914893617
scalar BgpDiamondFailover.hostA.app[0] "ping out-of-order rate (%)" 0
scalar BgpDiamondFailover.hostA.app[0] pingRxSeq:count 135
scalar BgpDiamondFailover.hostA.app[0] pingTxSeq:count 141
scalar BgpDiamondFailover.hostA.app[0] numOutOfOrderArrivals:last nan
scalar BgpDiamondFailover.hostA.app[0] numLost:last 5
scalar BgpDiamondFailover.A.bgp OPENMsgSent 3
scalar BgpDiamondFailover.A.bgp OPENMsgRecv 3
scalar BgpDiamondFailover.A.bgp KeepAliveMsgSent 124
scalar BgpDiamondFailover.A.bgp KeepAliveMsgRcv 121
scalar BgpDiamondFailover.A.bgp UpdateMsgSent 7
scalar BgpDiamondFailover.A.bgp UpdateMsgRcv 3
scalar BgpDiamondFailover.D.bgp OPENMsgSent 3
scalar BgpDiamondFailover.D.bgp OPENMsgRecv 2
scalar BgpDiamondFailover.D.bgp KeepAliveMsgSent 148
scalar BgpDiamondFailover.D.bgp KeepAliveMsgRcv 148
scalar BgpDiamondFailover.D.bgp UpdateMsgSent 3
scalar BgpDiamondFailover.D.bgp UpdateMsgRcv 6
scalar BgpDiamondFailover.C.bgp OPENMsgSent 3
scalar BgpDiamondFailover.C.bgp OPENMsgRecv 3
scalar BgpDiamondFailover.C.bgp KeepAliveMsgSent 120
scalar BgpDiamondFailover.C.bgp KeepAliveMsgRcv 117
scalar BgpDiamondFailover.C.bgp UpdateMsgSent 7
scalar BgpDiamondFailover.C.bgp UpdateMsgRcv 5
scalar BgpDiamondFailover.hostC.app[0] pingRxSeq:count 0
scalar BgpDiamondFailover.hostC.app[0] pingTxSeq:count 0
scalar BgpDiamondFailover.hostC.app[0] numOutOfOrderArrivals:last nan
scalar BgpDiamondFailover.hostC.app[0] numLost:last nan
scalar BgpDiamondFailover.hostA.app[0] rtt:histogram:count 135
scalar BgpDiamondFailover.hostA.app[0] rtt:histogram:sumweights 135
scalar BgpDiamondFailover.hostA.app[0] rtt:histogram:mean 0.0009598317037037037
scalar BgpDiamondFailover.hostA.app[0] rtt:histogram:stddev 0.0005001448804806027
scalar BgpDiamondFailover.hostA.app[0] rtt:histogram:min 0.0004704
scalar BgpDiamondFailover.hostA.app[0] rtt:histogram:max 0.00169344
scalar BgpDiamondFailover.hostA.app[0] rtt:histogram:numbins 76
scalar BgpDiamondFailover.hostA.app[0] rtt:histogram:rangemin 0.00022
scalar BgpDiamondFailover.hostA.app[0] rtt:histogram:rangemax 0.00174
scalar BgpDiamondFailover.hostA.app[0] rtt:histogram:underflows 0
scalar BgpDiamondFailover.hostA.app[0] rtt:histogram:overflows 0
scalar BgpDiamondFailover.hostC.app[0] rtt:histogram:count 0
scalar BgpDiamondFailover.hostC.app[0] rtt:histogram:sumweights 0
scalar BgpDiamondFailover.hostC.app[0] rtt:histogram:mean nan
scalar BgpDiamondFailover.hostC.app[0] rtt:histogram:stddev nan
scalar BgpDiamondFailover.hostC.app[0] rtt:histogram:min nan
scalar BgpDiamondFailover.hostC.app[0] rtt:histogram:max nan
scalar BgpDiamondFailover.hostC.app[0] rtt:histogram:numbins 1
scalar BgpDiamondFailover.hostC.app[0] rtt:histogram:rangemin 0
scalar BgpDiamondFailover.hostC.app[0] rtt:histogram:rangemax 1
scalar BgpDiamondFailover.hostC.app[0] rtt:histogram:underflows 0
scalar BgpDiamondFailover.hostC.app[0] rtt:histogram:overflows 0
statistic BgpDiamondFailover.hostA.app[0] rtt:histogram
field count 135
field mean 0.0009598317037037037
field stddev 0.0005001448804806027
field min 0.0004704
field max 0.00169344
field sum 0.12957728
field sqrsum 0.0001578917982208
bin	-inf	0
bin	0.00022	0
bin	0.00024	0
bin	0.00026000000000000003	0
bin	0.00028000000000000003	0
bin	0.00030000000000000003	0
bin	0.00032	0
bin	0.00034	0
bin	0.00036	0
bin	0.00038	0
bin	4e-04	0
bin	0.00042	0
bin	0.00044	0
bin	0.00046	68
bin	0.00048000000000000007	0
bin	5e-04	0
bin	0.0005200000000000001	0
bin	0.00054	0
bin	0.0005600000000000001	0
bin	0.00058	0
bin	0.0006000000000000001	0
bin	0.00062	0
bin	0.00064	0
bin	0.00066	0
bin	0.00068	0
bin	0.0007000000000000001	0
bin	0.00072	0
bin	0.0007400000000000001	0
bin	0.00076	0
bin	0.0007800000000000001	0
bin	8e-04	1
bin	0.0008200000000000001	0
bin	0.00084	0
bin	0.0008600000000000001	0
bin	0.0008800000000000001	0
bin	0.0009000000000000001	0
bin	0.0009200000000000001	0
bin	0.0009400000000000001	0
bin	0.0009600000000000001	1
bin	0.00098	0
bin	0.001	0
bin	0.00102	0
bin	0.0010400000000000001	0
bin	0.00106	0
bin	0.00108	0
bin	0.0011	0
bin	0.0011200000000000001	0
bin	0.00114	0
bin	0.00116	0
bin	0.00118	0
bin	0.0012000000000000001	0
bin	0.00122	0
bin	0.00124	0
bin	0.00126	0
bin	0.00128	0
bin	0.0013	0
bin	0.00132	0
bin	0.00134	0
bin	0.00136	0
bin	0.00138	0
bin	0.0014	0
bin	0.00142	0
bin	0.00144	0
bin	0.00146	64
bin	0.00148	0
bin	0.0015	0
bin	0.00152	0
bin	0.0015400000000000001	0
bin	0.00156	0
bin	0.00158	0
bin	0.0016	0
bin	0.0016200000000000001	0
bin	0.00164	0
bin	0.00166	0
bin	0.00168	1
bin	0.0017000000000000001	0
bin	0.00172	0
bin	0.00174	0
statistic BgpDiamondFailover.hostC.app[0] rtt:histogram
field count 0
field mean nan
field stddev nan
field min nan
field max nan
field sum 0
field sqrsum 0
bin	-inf	0
bin	0	0
bin	1	0
scalar BgpDiamondFailover.hostA.ethernet encapPk:vector(packetBytes):count 0
scalar BgpDiamondFailover.hostA.ethernet encapPk:vector(packetBytes):sum 0
scalar BgpDiamondFailover.hostA.ethernet encapPk:vector(packetBytes):sumweights 0
scalar BgpDiamondFailover.hostA.ethernet encapPk:vector(packetBytes):mean nan
scalar BgpDiamondFailover.hostA.ethernet encapPk:vector(packetBytes):stddev nan
scalar BgpDiamondFailover.hostA.ethernet encapPk:vector(packetBytes):min inf
scalar BgpDiamondFailover.hostA.ethernet encapPk:vector(packetBytes):max -inf
scalar BgpDiamondFailover.hostA.ethernet encapPk:vector(packetBytes):starttime nan
scalar BgpDiamondFailover.hostA.ethernet encapPk:vector(packetBytes):endtime nan
scalar BgpDiamondFailover.hostA.ethernet decapPk:vector(packetBytes):count 0
scalar BgpDiamondFailover.hostA.ethernet decapPk:vector(packetBytes):sum 0
scalar BgpDiamondFailover.hostA.ethernet decapPk:vector(packetBytes):sumweights 0
scalar BgpDiamondFailover.hostA.ethernet decapPk:vector(packetBytes):mean nan
scalar BgpDiamondFailover.hostA.ethernet decapPk:vector(packetBytes):stddev nan
scalar BgpDiamondFailover.hostA.ethernet decapPk:vector(packetBytes):min inf
scalar BgpDiamondFailover.hostA.ethernet decapPk:vector(packetBytes):max -inf
scalar BgpDiamondFailover.hostA.ethernet decapPk:vector(packetBytes):starttime nan
scalar BgpDiamondFailover.hostA.ethernet decapPk:vector(packetBytes):endtime nan
scalar BgpDiamondFailover.hostA.ethernet pauseSent:vector:count 0
scalar BgpDiamondFailover.hostA.ethernet pauseSent:vector:sum 0
scalar BgpDiamondFailover.hostA.ethernet pauseSent:vector:sumweights 0
scalar BgpDiamondFailover.hostA.ethernet pauseSent:vector:mean nan
scalar BgpDiamondFailover.hostA.ethernet pauseSent:vector:stddev nan
scalar BgpDiamondFailover.hostA.ethernet pauseSent:vector:min inf
scalar BgpDiamondFailover.hostA.ethernet pauseSent:vector:max -inf
scalar BgpDiamondFailover.hostA.ethernet pauseSent:vector:starttime nan
scalar BgpDiamondFailover.hostA.ethernet pauseSent:vector:endtime nan
scalar BgpDiamondFailover.hostA.lo[0].lo rcvdPkFromHl:vector(packetBytes):count 0
scalar BgpDiamondFailover.hostA.lo[0].lo rcvdPkFromHl:vector(packetBytes):sum 0
scalar BgpDiamondFailover.hostA.lo[0].lo rcvdPkFromHl:vector(packetBytes):sumweights 0
scalar BgpDiamondFailover.hostA.lo[0].lo rcvdPkFromHl:vector(packetBytes):mean nan
scalar BgpDiamondFailover.hostA.lo[0].lo rcvdPkFromHl:vector(packetBytes):stddev nan
scalar BgpDiamondFailover.hostA.lo[0].lo rcvdPkFromHl:vector(packetBytes):min inf
scalar BgpDiamondFailover.hostA.lo[0].lo rcvdPkFromHl:vector(packetBytes):max -inf
scalar BgpDiamondFailover.hostA.lo[0].lo rcvdPkFromHl:vector(packetBytes):starttime nan
scalar BgpDiamondFailover.hostA.lo[0].lo rcvdPkFromHl:vector(packetBytes):endtime nan
scalar BgpDiamondFailover.hostA.lo[0].lo passedUpPk:vector(packetBytes):count 0
scalar BgpDiamondFailover.hostA.lo[0].lo passedUpPk:vector(packetBytes):sum 0
scalar BgpDiamondFailover.hostA.lo[0].lo passedUpPk:vector(packetBytes):sumweights 0
scalar BgpDiamondFailover.hostA.lo[0].lo passedUpPk:vector(packetBytes):mean nan
scalar BgpDiamondFailover.hostA.lo[0].lo passedUpPk:vector(packetBytes):stddev nan
scalar BgpDiamondFailover.hostA.lo[0].lo passedUpPk:vector(packetBytes):min inf
scalar BgpDiamondFailover.hostA.lo[0].lo passedUpPk:vector(packetBytes):max -inf
scalar BgpDiamondFailover.hostA.lo[0].lo passedUpPk:vector(packetBytes):starttime nan
scalar BgpDiamondFailover.hostA.lo[0].lo passedUpPk:vector(packetBytes):endtime nan
scalar BgpDiamondFailover.hostA.lo[0] packetDropInterfaceDown:vector(packetBytes):count 0
scalar BgpDiamondFailover.hostA.lo[0] packetDropInterfaceDown:vector(packetBytes):sum 0
scalar BgpDiamondFailover.hostA.lo[0] packetDropInterfaceDown:vector(packetBytes):sumweights 0
scalar BgpDiamondFailover.hostA.lo[0] packetDropInterfaceDown:vector(packetBytes):mean nan
scalar BgpDiamondFailover.hostA.lo[0] packetDropInterfaceDown:vector(packetBytes):stddev nan
scalar BgpDiamondFailover.hostA.lo[0] packetDropInterfaceDown:vector(packetBytes):min inf
scalar BgpDiamondFailover.hostA.lo[0] packetDropInterfaceDown:vector(packetBytes):max -inf
scalar BgpDiamondFailover.hostA.lo[0] packetDropInterfaceDown:vector(packetBytes):starttime nan
scalar BgpDiamondFailover.hostA.lo[0] packetDropInterfaceDown:vector(packetBytes):endtime nan
scalar BgpDiamondFailover.hostA.lo[0] packetDropNoCarrier:vector(packetBytes):count 0
scalar BgpDiamondFailover.hostA.lo[0] packetDropNoCarrier:vector(packetBytes):sum 0
scalar BgpDiamondFailover.hostA.lo[0] packetDropNoCarrier:vector(packetBytes):sumweights 0
scalar BgpDiamondFailover.hostA.lo[0] packetDropNoCarrier:vector(packetBytes):mean nan
scalar BgpDiamondFailover.hostA.lo[0] packetDropNoCarrier:vector(packetBytes):stddev nan
scalar BgpDiamondFailover.hostA.lo[0] packetDropNoCarrier:vector(packetBytes):min inf
scalar BgpDiamondFailover.hostA.lo[0] packetDropNoCarrier:vector(packetBytes):max -inf
scalar BgpDiamondFailover.hostA.lo[0] packetDropNoCarrier:vector(packetBytes):starttime nan
scalar BgpDiamondFailover.hostA.lo[0] packetDropNoCarrier:vector(packetBytes):endtime nan
scalar BgpDiamondFailover.hostA.eth[0].queue queueLength:vector:count 0
scalar BgpDiamondFailover.hostA.eth[0].queue queueLength:vector:sum 0
scalar BgpDiamondFailover.hostA.eth[0].queue queueLength:vector:sumweights 0
scalar BgpDiamondFailover.hostA.eth[0].queue queueLength:vector:mean nan
scalar BgpDiamondFailover.hostA.eth[0].queue queueLength:vector:stddev nan
scalar BgpDiamondFailover.hostA.eth[0].queue queueLength:vector:min inf
scalar BgpDiamondFailover.hostA.eth[0].queue queueLength:vector:max -inf
scalar BgpDiamondFailover.hostA.eth[0].queue queueLength:vector:starttime nan
scalar BgpDiamondFailover.hostA.eth[0].queue queueLength:vector:endtime nan
scalar BgpDiamondFailover.hostA.eth[0].queue queueBitLength:vector:count 0
scalar BgpDiamondFailover.hostA.eth[0].queue queueBitLength:vector:sum 0
scalar BgpDiamondFailover.hostA.eth[0].queue queueBitLength:vector:sumweights 0
scalar BgpDiamondFailover.hostA.eth[0].queue queueBitLength:vector:mean nan
scalar BgpDiamondFailover.hostA.eth[0].queue queueBitLength:vector:stddev nan
scalar BgpDiamondFailover.hostA.eth[0].queue queueBitLength:vector:min inf
scalar BgpDiamondFailover.hostA.eth[0].queue queueBitLength:vector:max -inf
scalar BgpDiamondFailover.hostA.eth[0].queue queueBitLength:vector:starttime nan
scalar BgpDiamondFailover.hostA.eth[0].queue queueBitLength:vector:endtime nan
scalar BgpDiamondFailover.hostA.eth[0].queue queueingTime:vector:count 0
scalar BgpDiamondFailover.hostA.eth[0].queue queueingTime:vector:sum 0
scalar BgpDiamondFailover.hostA.eth[0].queue queueingTime:vector:sumweights 0
scalar BgpDiamondFailover.hostA.eth[0].queue queueingTime:vector:mean nan
scalar BgpDiamondFailover.hostA.eth[0].queue queueingTime:vector:stddev nan
scalar BgpDiamondFailover.hostA.eth[0].queue queueingTime:vector:min inf
scalar BgpDiamondFailover.hostA.eth[0].queue queueingTime:vector:max -inf
scalar BgpDiamondFailover.hostA.eth[0].queue queueingTime:vector:starttime nan
scalar BgpDiamondFailover.hostA.eth[0].queue queueingTime:vector:endtime nan
scalar BgpDiamondFailover.hostA.eth[0].queue incomingPacketLengths:vector:count 0
scalar BgpDiamondFailover.hostA.eth[0].queue incomingPacketLengths:vector:sum 0
scalar BgpDiamondFailover.hostA.eth[0].queue incomingPacketLengths:vector:sumweights 0
scalar BgpDiamondFailover.hostA.eth[0].queue incomingPacketLengths:vector:mean nan
scalar BgpDiamondFailover.hostA.eth[0].queue incomingPacketLengths:vector:stddev nan
scalar BgpDiamondFailover.hostA.eth[0].queue incomingPacketLengths:vector:min inf
scalar BgpDiamondFailover.hostA.eth[0].queue incomingPacketLengths:vector:max -inf
scalar BgpDiamondFailover.hostA.eth[0].queue incomingPacketLengths:vector:starttime nan
scalar BgpDiamondFailover.hostA.eth[0].queue incomingPacketLengths:vector:endtime nan
scalar BgpDiamondFailover.hostA.eth[0].queue incomingDataRate:vector:count 0
scalar BgpDiamondFailover.hostA.eth[0].queue incomingDataRate:vector:sum 0
scalar BgpDiamondFailover.hostA.eth[0].queue incomingDataRate:vector:sumweights 0
scalar BgpDiamondFailover.hostA.eth[0].queue incomingDataRate:vector:mean nan
scalar BgpDiamondFailover.hostA.eth[0].queue incomingDataRate:vector:stddev nan
scalar BgpDiamondFailover.hostA.eth[0].queue incomingDataRate:vector:min inf
scalar BgpDiamondFailover.hostA.eth[0].queue incomingDataRate:vector:max -inf
scalar BgpDiamondFailover.hostA.eth[0].queue incomingDataRate:vector:starttime nan
scalar BgpDiamondFailover.hostA.eth[0].queue incomingDataRate:vector:endtime nan
scalar BgpDiamondFailover.hostA.eth[0].queue outgoingPacketLengths:vector:count 0
scalar BgpDiamondFailover.hostA.eth[0].queue outgoingPacketLengths:vector:sum 0
scalar BgpDiamondFailover.hostA.eth[0].queue outgoingPacketLengths:vector:sumweights 0
scalar BgpDiamondFailover.hostA.eth[0].queue outgoingPacketLengths:vector:mean nan
scalar BgpDiamondFailover.hostA.eth[0].queue outgoingPacketLengths:vector:stddev nan
scalar BgpDiamondFailover.hostA.eth[0].queue outgoingPacketLengths:vector:min inf
scalar BgpDiamondFailover.hostA.eth[0].queue outgoingPacketLengths:vector:max -inf
scalar BgpDiamondFailover.hostA.eth[0].queue outgoingPacketLengths:vector:starttime nan
scalar BgpDiamondFailover.hostA.eth[0].queue outgoingPacketLengths:vector:endtime nan
scalar BgpDiamondFailover.hostA.eth[0].queue outgoingDataRate:vector:count 0
scalar BgpDiamondFailover.hostA.eth[0].queue outgoingDataRate:vector:sum 0
scalar BgpDiamondFailover.hostA.eth[0].queue outgoingDataRate:vector:sumweights 0
scalar BgpDiamondFailover.hostA.eth[0].queue outgoingDataRate:vector:mean nan
scalar BgpDiamondFailover.hostA.eth[0].queue outgoingDataRate:vector:stddev nan
scalar BgpDiamondFailover.hostA.eth[0].queue outgoingDataRate:vector:min inf
scalar BgpDiamondFailover.hostA.eth[0].queue outgoingDataRate:vector:max -inf
scalar BgpDiamondFailover.hostA.eth[0].queue outgoingDataRate:vector:starttime nan
scalar BgpDiamondFailover.hostA.eth[0].queue outgoingDataRate:vector:endtime nan
scalar BgpDiamondFailover.hostA.eth[0].queue droppedPacketLengthsQueueOverflow:vector:count 0
scalar BgpDiamondFailover.hostA.eth[0].queue droppedPacketLengthsQueueOverflow:vector:sum 0
scalar BgpDiamondFailover.hostA.eth[0].queue droppedPacketLengthsQueueOverflow:vector:sumweights 0
scalar BgpDiamondFailover.hostA.eth[0].queue droppedPacketLengthsQueueOverflow:vector:mean nan
scalar BgpDiamondFailover.hostA.eth[0].queue droppedPacketLengthsQueueOverflow:vector:stddev nan
scalar BgpDiamondFailover.hostA.eth[0].queue droppedPacketLengthsQueueOverflow:vector:min inf
scalar BgpDiamondFailover.hostA.eth[0].queue droppedPacketLengthsQueueOverflow:vector:max -inf
scalar BgpDiamondFailover.hostA.eth[0].queue droppedPacketLengthsQueueOverflow:vector:starttime nan
scalar BgpDiamondFailover.hostA.eth[0].queue droppedPacketLengthsQueueOverflow:vector:endtime nan
scalar BgpDiamondFailover.hostA.eth[0].queue flowQueueingTime:vector:count 0
scalar BgpDiamondFailover.hostA.eth[0].queue flowQueueingTime:vector:sum 0
scalar BgpDiamondFailover.hostA.eth[0].queue flowQueueingTime:vector:sumweights 0
scalar BgpDiamondFailover.hostA.eth[0].queue flowQueueingTime:vector:mean nan
scalar BgpDiamondFailover.hostA.eth[0].queue flowQueueingTime:vector:stddev nan
scalar BgpDiamondFailover.hostA.eth[0].queue flowQueueingTime:vector:min inf
scalar BgpDiamondFailover.hostA.eth[0].queue flowQueueingTime:vector:max -inf
scalar BgpDiamondFailover.hostA.eth[0].queue flowQueueingTime:vector:starttime nan
scalar BgpDiamondFailover.hostA.eth[0].queue flowQueueingTime:vector:endtime nan
scalar BgpDiamondFailover.hostA.eth[0].queue flowIncomingDataRate:vector:count 0
scalar BgpDiamondFailover.hostA.eth[0].queue flowIncomingDataRate:vector:sum 0
scalar BgpDiamondFailover.hostA.eth[0].queue flowIncomingDataRate:vector:sumweights 0
scalar BgpDiamondFailover.hostA.eth[0].queue flowIncomingDataRate:vector:mean nan
scalar BgpDiamondFailover.hostA.eth[0].queue flowIncomingDataRate:vector:stddev nan
scalar BgpDiamondFailover.hostA.eth[0].queue flowIncomingDataRate:vector:min inf
scalar BgpDiamondFailover.hostA.eth[0].queue flowIncomingDataRate:vector:max -inf
scalar BgpDiamondFailover.hostA.eth[0].queue flowIncomingDataRate:vector:starttime nan
scalar BgpDiamondFailover.hostA.eth[0].queue flowIncomingDataRate:vector:endtime nan
scalar BgpDiamondFailover.hostA.eth[0].queue flowOutgoingDataRate:vector:count 0
scalar BgpDiamondFailover.hostA.eth[0].queue flowOutgoingDataRate:vector:sum 0
scalar BgpDiamondFailover.hostA.eth[0].queue flowOutgoingDataRate:vector:sumweights 0
scalar BgpDiamondFailover.hostA.eth[0].queue flowOutgoingDataRate:vector:mean nan
scalar BgpDiamondFailover.hostA.eth[0].queue flowOutgoingDataRate:vector:stddev nan
scalar BgpDiamondFailover.hostA.eth[0].queue flowOutgoingDataRate:vector:min inf
scalar BgpDiamondFailover.hostA.eth[0].queue flowOutgoingDataRate:vector:max -inf
scalar BgpDiamondFailover.hostA.eth[0].queue flowOutgoingDataRate:vector:starttime nan
scalar BgpDiamondFailover.hostA.eth[0].queue flowOutgoingDataRate:vector:endtime nan
scalar BgpDiamondFailover.hostA.eth[0].mac transmitting:vector:count 0
scalar BgpDiamondFailover.hostA.eth[0].mac transmitting:vector:sum 0
scalar BgpDiamondFailover.hostA.eth[0].mac transmitting:vector:sumweights 0
scalar BgpDiamondFailover.hostA.eth[0].mac transmitting:vector:mean nan
scalar BgpDiamondFailover.hostA.eth[0].mac transmitting:vector:stddev nan
scalar BgpDiamondFailover.hostA.eth[0].mac transmitting:vector:min inf
scalar BgpDiamondFailover.hostA.eth[0].mac transmitting:vector:max -inf
scalar BgpDiamondFailover.hostA.eth[0].mac transmitting:vector:starttime nan
scalar BgpDiamondFailover.hostA.eth[0].mac transmitting:vector:endtime nan
scalar BgpDiamondFailover.hostA.eth[0].mac throughput:vector:count 0
scalar BgpDiamondFailover.hostA.eth[0].mac throughput:vector:sum 0
scalar BgpDiamondFailover.hostA.eth[0].mac throughput:vector:sumweights 0
scalar BgpDiamondFailover.hostA.eth[0].mac throughput:vector:mean nan
scalar BgpDiamondFailover.hostA.eth[0].mac throughput:vector:stddev nan
scalar BgpDiamondFailover.hostA.eth[0].mac throughput:vector:min inf
scalar BgpDiamondFailover.hostA.eth[0].mac throughput:vector:max -inf
scalar BgpDiamondFailover.hostA.eth[0].mac throughput:vector:starttime nan
scalar BgpDiamondFailover.hostA.eth[0].mac throughput:vector:endtime nan
scalar BgpDiamondFailover.hostA.eth[0].mac utilization:vector:count 0
scalar BgpDiamondFailover.hostA.eth[0].mac utilization:vector:sum 0
scalar BgpDiamondFailover.hostA.eth[0].mac utilization:vector:sumweights 0
scalar BgpDiamondFailover.hostA.eth[0].mac utilization:vector:mean nan
scalar BgpDiamondFailover.hostA.eth[0].mac utilization:vector:stddev nan
scalar BgpDiamondFailover.hostA.eth[0].mac utilization:vector:min inf
scalar BgpDiamondFailover.hostA.eth[0].mac utilization:vector:max -inf
scalar BgpDiamondFailover.hostA.eth[0].mac utilization:vector:starttime nan
scalar BgpDiamondFailover.hostA.eth[0].mac utilization:vector:endtime nan
scalar BgpDiamondFailover.hostA.eth[0].mac txPk:vector(packetBytes):count 0
scalar BgpDiamondFailover.hostA.eth[0].mac txPk:vector(packetBytes):sum 0
scalar BgpDiamondFailover.hostA.eth[0].mac txPk:vector(packetBytes):sumweights 0
scalar BgpDiamondFailover.hostA.eth[0].mac txPk:vector(packetBytes):mean nan
scalar BgpDiamondFailover.hostA.eth[0].mac txPk:vector(packetBytes):stddev nan
scalar BgpDiamondFailover.hostA.eth[0].mac txPk:vector(packetBytes):min inf
scalar BgpDiamondFailover.hostA.eth[0].mac txPk:vector(packetBytes):max -inf
scalar BgpDiamondFailover.hostA.eth[0].mac txPk:vector(packetBytes):starttime nan
scalar BgpDiamondFailover.hostA.eth[0].mac txPk:vector(packetBytes):endtime nan
scalar BgpDiamondFailover.hostA.eth[0].mac rxPkOk:vector(packetBytes):count 0
scalar BgpDiamondFailover.hostA.eth[0].mac rxPkOk:vector(packetBytes):sum 0
scalar BgpDiamondFailover.hostA.eth[0].mac rxPkOk:vector(packetBytes):sumweights 0
scalar BgpDiamondFailover.hostA.eth[0].mac rxPkOk:vector(packetBytes):mean nan
scalar BgpDiamondFailover.hostA.eth[0].mac rxPkOk:vector(packetBytes):stddev nan
scalar BgpDiamondFailover.hostA.eth[0].mac rxPkOk:vector(packetBytes):min inf
scalar BgpDiamondFailover.hostA.eth[0].mac rxPkOk:vector(packetBytes):max -inf
scalar BgpDiamondFailover.hostA.eth[0].mac rxPkOk:vector(packetBytes):starttime nan
scalar BgpDiamondFailover.hostA.eth[0].mac rxPkOk:vector(packetBytes):endtime nan
scalar BgpDiamondFailover.hostA.eth[0].mac passedUpPk:vector(packetBytes):count 0
scalar BgpDiamondFailover.hostA.eth[0].mac passedUpPk:vector(packetBytes):sum 0
scalar BgpDiamondFailover.hostA.eth[0].mac passedUpPk:vector(packetBytes):sumweights 0
scalar BgpDiamondFailover.hostA.eth[0].mac passedUpPk:vector(packetBytes):mean nan
scalar BgpDiamondFailover.hostA.eth[0].mac passedUpPk:vector(packetBytes):stddev nan
scalar BgpDiamondFailover.hostA.eth[0].mac passedUpPk:vector(packetBytes):min inf
scalar BgpDiamondFailover.hostA.eth[0].mac passedUpPk:vector(packetBytes):max -inf
scalar BgpDiamondFailover.hostA.eth[0].mac passedUpPk:vector(packetBytes):starttime nan
scalar BgpDiamondFailover.hostA.eth[0].mac passedUpPk:vector(packetBytes):endtime nan
scalar BgpDiamondFailover.hostA.eth[0].mac txPausePkUnits:vector:count 0
scalar BgpDiamondFailover.hostA.eth[0].mac txPausePkUnits:vector:sum 0
scalar BgpDiamondFailover.hostA.eth[0].mac txPausePkUnits:vector:sumweights 0
scalar BgpDiamondFailover.hostA.eth[0].mac txPausePkUnits:vector:mean nan
scalar BgpDiamondFailover.hostA.eth[0].mac txPausePkUnits:vector:stddev nan
scalar BgpDiamondFailover.hostA.eth[0].mac txPausePkUnits:vector:min inf
scalar BgpDiamondFailover.hostA.eth[0].mac txPausePkUnits:vector:max -inf
scalar BgpDiamondFailover.hostA.eth[0].mac txPausePkUnits:vector:starttime nan
scalar BgpDiamondFailover.hostA.eth[0].mac txPausePkUnits:vector:endtime nan
scalar BgpDiamondFailover.hostA.eth[0].mac rxPausePkUnits:vector:count 0
scalar BgpDiamondFailover.hostA.eth[0].mac rxPausePkUnits:vector:sum 0
scalar BgpDiamondFailover.hostA.eth[0].mac rxPausePkUnits:vector:sumweights 0
scalar BgpDiamondFailover.hostA.eth[0].mac rxPausePkUnits:vector:mean nan
scalar BgpDiamondFailover.hostA.eth[0].mac rxPausePkUnits:vector:stddev nan
scalar BgpDiamondFailover.hostA.eth[0].mac rxPausePkUnits:vector:min inf
scalar BgpDiamondFailover.hostA.eth[0].mac rxPausePkUnits:vector:max -inf
scalar BgpDiamondFailover.hostA.eth[0].mac rxPausePkUnits:vector:starttime nan
scalar BgpDiamondFailover.hostA.eth[0].mac rxPausePkUnits:vector:endtime nan
scalar BgpDiamondFailover.hostA.eth[0].mac packetReceivedFromUpper:vector(packetBytes):count 0
scalar BgpDiamondFailover.hostA.eth[0].mac packetReceivedFromUpper:vector(packetBytes):sum 0
scalar BgpDiamondFailover.hostA.eth[0].mac packetReceivedFromUpper:vector(packetBytes):sumweights 0
scalar BgpDiamondFailover.hostA.eth[0].mac packetReceivedFromUpper:vector(packetBytes):mean nan
scalar BgpDiamondFailover.hostA.eth[0].mac packetReceivedFromUpper:vector(packetBytes):stddev nan
scalar BgpDiamondFailover.hostA.eth[0].mac packetReceivedFromUpper:vector(packetBytes):min inf
scalar BgpDiamondFailover.hostA.eth[0].mac packetReceivedFromUpper:vector(packetBytes):max -inf
scalar BgpDiamondFailover.hostA.eth[0].mac packetReceivedFromUpper:vector(packetBytes):starttime nan
scalar BgpDiamondFailover.hostA.eth[0].mac packetReceivedFromUpper:vector(packetBytes):endtime nan
scalar BgpDiamondFailover.hostA.eth[0].mac packetDropIncorrectlyReceived:vector(packetBytes):count 0
scalar BgpDiamondFailover.hostA.eth[0].mac packetDropIncorrectlyReceived:vector(packetBytes):sum 0
scalar BgpDiamondFailover.hostA.eth[0].mac packetDropIncorrectlyReceived:vector(packetBytes):sumweights 0
scalar BgpDiamondFailover.hostA.eth[0].mac packetDropIncorrectlyReceived:vector(packetBytes):mean nan
scalar BgpDiamondFailover.hostA.eth[0].mac packetDropIncorrectlyReceived:vector(packetBytes):stddev nan
scalar BgpDiamondFailover.hostA.eth[0].mac packetDropIncorrectlyReceived:vector(packetBytes):min inf
scalar BgpDiamondFailover.hostA.eth[0].mac packetDropIncorrectlyReceived:vector(packetBytes):max -inf
scalar BgpDiamondFailover.hostA.eth[0].mac packetDropIncorrectlyReceived:vector(packetBytes):starttime nan
scalar BgpDiamondFailover.hostA.eth[0].mac packetDropIncorrectlyReceived:vector(packetBytes):endtime nan
scalar BgpDiamondFailover.hostA.eth[0].mac packetDropInterfaceDown:vector(packetBytes):count 0
scalar BgpDiamondFailover.hostA.eth[0].mac packetDropInterfaceDown:vector(packetBytes):sum 0
scalar BgpDiamondFailover.hostA.eth[0].mac packetDropInterfaceDown:vector(packetBytes):sumweights 0
scalar BgpDiamondFailover.hostA.eth[0].mac packetDropInterfaceDown:vector(packetBytes):mean nan
scalar BgpDiamondFailover.hostA.eth[0].mac packetDropInterfaceDown:vector(packetBytes):stddev nan
scalar BgpDiamondFailover.hostA.eth[0].mac packetDropInterfaceDown:vector(packetBytes):min inf
scalar BgpDiamondFailover.hostA.eth[0].mac packetDropInterfaceDown:vector(packetBytes):max -inf
scalar BgpDiamondFailover.hostA.eth[0].mac packetDropInterfaceDown:vector(packetBytes):starttime nan
scalar BgpDiamondFailover.hostA.eth[0].mac packetDropInterfaceDown:vector(packetBytes):endtime nan
scalar BgpDiamondFailover.hostA.eth[0].mac packetDropNotAddressedToUs:vector(packetBytes):count 0
scalar BgpDiamondFailover.hostA.eth[0].mac packetDropNotAddressedToUs:vector(packetBytes):sum 0
scalar BgpDiamondFailover.hostA.eth[0].mac packetDropNotAddressedToUs:vector(packetBytes):sumweights 0
scalar BgpDiamondFailover.hostA.eth[0].mac packetDropNotAddressedToUs:vector(packetBytes):mean nan
scalar BgpDiamondFailover.hostA.eth[0].mac packetDropNotAddressedToUs:vector(packetBytes):stddev nan
scalar BgpDiamondFailover.hostA.eth[0].mac packetDropNotAddressedToUs:vector(packetBytes):min inf
scalar BgpDiamondFailover.hostA.eth[0].mac packetDropNotAddressedToUs:vector(packetBytes):max -inf
scalar BgpDiamondFailover.hostA.eth[0].mac packetDropNotAddressedToUs:vector(packetBytes):starttime nan
scalar BgpDiamondFailover.hostA.eth[0].mac packetDropNotAddressedToUs:vector(packetBytes):endtime nan
scalar BgpDiamondFailover.hostA.eth[0] packetDropInterfaceDown:vector(packetBytes):count 0
scalar BgpDiamondFailover.hostA.eth[0] packetDropInterfaceDown:vector(packetBytes):sum 0
scalar BgpDiamondFailover.hostA.eth[0] packetDropInterfaceDown:vector(packetBytes):sumweights 0
scalar BgpDiamondFailover.hostA.eth[0] packetDropInterfaceDown:vector(packetBytes):mean nan
scalar BgpDiamondFailover.hostA.eth[0] packetDropInterfaceDown:vector(packetBytes):stddev nan
scalar BgpDiamondFailover.hostA.eth[0] packetDropInterfaceDown:vector(packetBytes):min inf
scalar BgpDiamondFailover.hostA.eth[0] packetDropInterfaceDown:vector(packetBytes):max -inf
scalar BgpDiamondFailover.hostA.eth[0] packetDropInterfaceDown:vector(packetBytes):starttime nan
scalar BgpDiamondFailover.hostA.eth[0] packetDropInterfaceDown:vector(packetBytes):endtime nan
scalar BgpDiamondFailover.hostA.eth[0] packetDropNoCarrier:vector(packetBytes):count 0
scalar BgpDiamondFailover.hostA.eth[0] packetDropNoCarrier:vector(packetBytes):sum 0
scalar BgpDiamondFailover.hostA.eth[0] packetDropNoCarrier:vector(packetBytes):sumweights 0
scalar BgpDiamondFailover.hostA.eth[0] packetDropNoCarrier:vector(packetBytes):mean nan
scalar BgpDiamondFailover.hostA.eth[0] packetDropNoCarrier:vector(packetBytes):stddev nan
scalar BgpDiamondFailover.hostA.eth[0] packetDropNoCarrier:vector(packetBytes):min inf
scalar BgpDiamondFailover.hostA.eth[0] packetDropNoCarrier:vector(packetBytes):max -inf
scalar BgpDiamondFailover.hostA.eth[0] packetDropNoCarrier:vector(packetBytes):starttime nan
scalar BgpDiamondFailover.hostA.eth[0] packetDropNoCarrier:vector(packetBytes):endtime nan
scalar BgpDiamondFailover.hostA.ipv4.ip packetDropAddressResolutionFailed:vector(packetBytes):count 0
scalar BgpDiamondFailover.hostA.ipv4.ip packetDropAddressResolutionFailed:vector(packetBytes):sum 0
scalar BgpDiamondFailover.hostA.ipv4.ip packetDropAddressResolutionFailed:vector(packetBytes):sumweights 0
scalar BgpDiamondFailover.hostA.ipv4.ip packetDropAddressResolutionFailed:vector(packetBytes):mean nan
scalar BgpDiamondFailover.hostA.ipv4.ip packetDropAddressResolutionFailed:vector(packetBytes):stddev nan
scalar BgpDiamondFailover.hostA.ipv4.ip packetDropAddressResolutionFailed:vector(packetBytes):min inf
scalar BgpDiamondFailover.hostA.ipv4.ip packetDropAddressResolutionFailed:vector(packetBytes):max -inf
scalar BgpDiamondFailover.hostA.ipv4.ip packetDropAddressResolutionFailed:vector(packetBytes):starttime nan
scalar BgpDiamondFailover.hostA.ipv4.ip packetDropAddressResolutionFailed:vector(packetBytes):endtime nan
scalar BgpDiamondFailover.hostA.ipv4.ip packetDropHopLimitReached:vector(packetBytes):count 0
scalar BgpDiamondFailover.hostA.ipv4.ip packetDropHopLimitReached:vector(packetBytes):sum 0
scalar BgpDiamondFailover.hostA.ipv4.ip packetDropHopLimitReached:vector(packetBytes):sumweights 0
scalar BgpDiamondFailover.hostA.ipv4.ip packetDropHopLimitReached:vector(packetBytes):mean nan
scalar BgpDiamondFailover.hostA.ipv4.ip packetDropHopLimitReached:vector(packetBytes):stddev nan
scalar BgpDiamondFailover.hostA.ipv4.ip packetDropHopLimitReached:vector(packetBytes):min inf
scalar BgpDiamondFailover.hostA.ipv4.ip packetDropHopLimitReached:vector(packetBytes):max -inf
scalar BgpDiamondFailover.hostA.ipv4.ip packetDropHopLimitReached:vector(packetBytes):starttime nan
scalar BgpDiamondFailover.hostA.ipv4.ip packetDropHopLimitReached:vector(packetBytes):endtime nan
scalar BgpDiamondFailover.hostA.ipv4.ip packetDropForwardingDisabled:vector(packetBytes):count 0
scalar BgpDiamondFailover.hostA.ipv4.ip packetDropForwardingDisabled:vector(packetBytes):sum 0
scalar BgpDiamondFailover.hostA.ipv4.ip packetDropForwardingDisabled:vector(packetBytes):sumweights 0
scalar BgpDiamondFailover.hostA.ipv4.ip packetDropForwardingDisabled:vector(packetBytes):mean nan
scalar BgpDiamondFailover.hostA.ipv4.ip packetDropForwardingDisabled:vector(packetBytes):stddev nan
scalar BgpDiamondFailover.hostA.ipv4.ip packetDropForwardingDisabled:vector(packetBytes):min inf
scalar BgpDiamondFailover.hostA.ipv4.ip packetDropForwardingDisabled:vector(packetBytes):max -inf
scalar BgpDiamondFailover.hostA.ipv4.ip packetDropForwardingDisabled:vector(packetBytes):starttime nan
scalar BgpDiamondFailover.hostA.ipv4.ip packetDropForwardingDisabled:vector(packetBytes):endtime nan
scalar BgpDiamondFailover.hostA.ipv4.ip packetDropLifetimeExpired:vector(packetBytes):count 0
scalar BgpDiamondFailover.hostA.ipv4.ip packetDropLifetimeExpired:vector(packetBytes):sum 0
scalar BgpDiamondFailover.hostA.ipv4.ip packetDropLifetimeExpired:vector(packetBytes):sumweights 0
scalar BgpDiamondFailover.hostA.ipv4.ip packetDropLifetimeExpired:vector(packetBytes):mean nan
scalar BgpDiamondFailover.hostA.ipv4.ip packetDropLifetimeExpired:vector(packetBytes):stddev nan
scalar BgpDiamondFailover.hostA.ipv4.ip packetDropLifetimeExpired:vector(packetBytes):min inf
scalar BgpDiamondFailover.hostA.ipv4.ip packetDropLifetimeExpired:vector(packetBytes):max -inf
scalar BgpDiamondFailover.hostA.ipv4.ip packetDropLifetimeExpired:vector(packetBytes):starttime nan
scalar BgpDiamondFailover.hostA.ipv4.ip packetDropLifetimeExpired:vector(packetBytes):endtime nan
scalar BgpDiamondFailover.hostA.ipv4.ip packetDropNoInterfaceFound:vector(packetBytes):count 0
scalar BgpDiamondFailover.hostA.ipv4.ip packetDropNoInterfaceFound:vector(packetBytes):sum 0
scalar BgpDiamondFailover.hostA.ipv4.ip packetDropNoInterfaceFound:vector(packetBytes):sumweights 0
scalar BgpDiamondFailover.hostA.ipv4.ip packetDropNoInterfaceFound:vector(packetBytes):mean nan
scalar BgpDiamondFailover.hostA.ipv4.ip packetDropNoInterfaceFound:vector(packetBytes):stddev nan
scalar BgpDiamondFailover.hostA.ipv4.ip packetDropNoInterfaceFound:vector(packetBytes):min inf
scalar BgpDiamondFailover.hostA.ipv4.ip packetDropNoInterfaceFound:vector(packetBytes):max -inf
scalar BgpDiamondFailover.hostA.ipv4.ip packetDropNoInterfaceFound:vector(packetBytes):starttime nan
scalar BgpDiamondFailover.hostA.ipv4.ip packetDropNoInterfaceFound:vector(packetBytes):endtime nan
scalar BgpDiamondFailover.hostA.ipv4.ip packetDropNoRouteFound:vector(packetBytes):count 0
scalar BgpDiamondFailover.hostA.ipv4.ip packetDropNoRouteFound:vector(packetBytes):sum 0
scalar BgpDiamondFailover.hostA.ipv4.ip packetDropNoRouteFound:vector(packetBytes):sumweights 0
scalar BgpDiamondFailover.hostA.ipv4.ip packetDropNoRouteFound:vector(packetBytes):mean nan
scalar BgpDiamondFailover.hostA.ipv4.ip packetDropNoRouteFound:vector(packetBytes):stddev nan
scalar BgpDiamondFailover.hostA.ipv4.ip packetDropNoRouteFound:vector(packetBytes):min inf
scalar BgpDiamondFailover.hostA.ipv4.ip packetDropNoRouteFound:vector(packetBytes):max -inf
scalar BgpDiamondFailover.hostA.ipv4.ip packetDropNoRouteFound:vector(packetBytes):starttime nan
scalar BgpDiamondFailover.hostA.ipv4.ip packetDropNoRouteFound:vector(packetBytes):endtime nan
scalar BgpDiamondFailover.hostA.ipv4.ip packetDropUndefined:vector(packetBytes):count 0
scalar BgpDiamondFailover.hostA.ipv4.ip packetDropUndefined:vector(packetBytes):sum 0
scalar BgpDiamondFailover.hostA.ipv4.ip packetDropUndefined:vector(packetBytes):sumweights 0
scalar BgpDiamondFailover.hostA.ipv4.ip packetDropUndefined:vector(packetBytes):mean nan
scalar BgpDiamondFailover.hostA.ipv4.ip packetDropUndefined:vector(packetBytes):stddev nan
scalar BgpDiamondFailover.hostA.ipv4.ip packetDropUndefined:vector(packetBytes):min inf
scalar BgpDiamondFailover.hostA.ipv4.ip packetDropUndefined:vector(packetBytes):max -inf
scalar BgpDiamondFailover.hostA.ipv4.ip packetDropUndefined:vector(packetBytes):starttime nan
scalar BgpDiamondFailover.hostA.ipv4.ip packetDropUndefined:vector(packetBytes):endtime nan
scalar BgpDiamondFailover.hostA.ipv4.arp arpRequestSent:vector(packetBytes):count 0
scalar BgpDiamondFailover.hostA.ipv4.arp arpRequestSent:vector(packetBytes):sum 0
scalar BgpDiamondFailover.hostA.ipv4.arp arpRequestSent:vector(packetBytes):sumweights 0
scalar BgpDiamondFailover.hostA.ipv4.arp arpRequestSent:vector(packetBytes):mean nan
scalar BgpDiamondFailover.hostA.ipv4.arp arpRequestSent:vector(packetBytes):stddev nan
scalar BgpDiamondFailover.hostA.ipv4.arp arpRequestSent:vector(packetBytes):min inf
scalar BgpDiamondFailover.hostA.ipv4.arp arpRequestSent:vector(packetBytes):max -inf
scalar BgpDiamondFailover.hostA.ipv4.arp arpRequestSent:vector(packetBytes):starttime nan
scalar BgpDiamondFailover.hostA.ipv4.arp arpRequestSent:vector(packetBytes):endtime nan
scalar BgpDiamondFailover.hostA.ipv4.arp arpReplySent:vector(packetBytes):count 0
scalar BgpDiamondFailover.hostA.ipv4.arp arpReplySent:vector(packetBytes):sum 0
scalar BgpDiamondFailover.hostA.ipv4.arp arpReplySent:vector(packetBytes):sumweights 0
scalar BgpDiamondFailover.hostA.ipv4.arp arpReplySent:vector(packetBytes):mean nan
scalar BgpDiamondFailover.hostA.ipv4.arp arpReplySent:vector(packetBytes):stddev nan
scalar BgpDiamondFailover.hostA.ipv4.arp arpReplySent:vector(packetBytes):min inf
scalar BgpDiamondFailover.hostA.ipv4.arp arpReplySent:vector(packetBytes):max -inf
scalar BgpDiamondFailover.hostA.ipv4.arp arpReplySent:vector(packetBytes):starttime nan
scalar BgpDiamondFailover.hostA.ipv4.arp arpReplySent:vector(packetBytes):endtime nan
scalar BgpDiamondFailover.hostA.udp packetSent:vector(packetBytes):count 0
scalar BgpDiamondFailover.hostA.udp packetSent:vector(packetBytes):sum 0
scalar BgpDiamondFailover.hostA.udp packetSent:vector(packetBytes):sumweights 0
scalar BgpDiamondFailover.hostA.udp packetSent:vector(packetBytes):mean nan
scalar BgpDiamondFailover.hostA.udp packetSent:vector(packetBytes):stddev nan
scalar BgpDiamondFailover.hostA.udp packetSent:vector(packetBytes):min inf
scalar BgpDiamondFailover.hostA.udp packetSent:vector(packetBytes):max -inf
scalar BgpDiamondFailover.hostA.udp packetSent:vector(packetBytes):starttime nan
scalar BgpDiamondFailover.hostA.udp packetSent:vector(packetBytes):endtime nan
scalar BgpDiamondFailover.hostA.udp outgoingDataRate:vector:count 0
scalar BgpDiamondFailover.hostA.udp outgoingDataRate:vector:sum 0
scalar BgpDiamondFailover.hostA.udp outgoingDataRate:vector:sumweights 0
scalar BgpDiamondFailover.hostA.udp outgoingDataRate:vector:mean nan
scalar BgpDiamondFailover.hostA.udp outgoingDataRate:vector:stddev nan
scalar BgpDiamondFailover.hostA.udp outgoingDataRate:vector:min inf
scalar BgpDiamondFailover.hostA.udp outgoingDataRate:vector:max -inf
scalar BgpDiamondFailover.hostA.udp outgoingDataRate:vector:starttime nan
scalar BgpDiamondFailover.hostA.udp outgoingDataRate:vector:endtime nan
scalar BgpDiamondFailover.hostA.udp packetReceived:vector(packetBytes):count 0
scalar BgpDiamondFailover.hostA.udp packetReceived:vector(packetBytes):sum 0
scalar BgpDiamondFailover.hostA.udp packetReceived:vector(packetBytes):sumweights 0
scalar BgpDiamondFailover.hostA.udp packetReceived:vector(packetBytes):mean nan
scalar BgpDiamondFailover.hostA.udp packetReceived:vector(packetBytes):stddev nan
scalar BgpDiamondFailover.hostA.udp packetReceived:vector(packetBytes):min inf
scalar BgpDiamondFailover.hostA.udp packetReceived:vector(packetBytes):max -inf
scalar BgpDiamondFailover.hostA.udp packetReceived:vector(packetBytes):starttime nan
scalar BgpDiamondFailover.hostA.udp packetReceived:vector(packetBytes):endtime nan
scalar BgpDiamondFailover.hostA.udp passedUpPk:vector(count):count 0
scalar BgpDiamondFailover.hostA.udp passedUpPk:vector(count):sum 0
scalar BgpDiamondFailover.hostA.udp passedUpPk:vector(count):sumweights 0
scalar BgpDiamondFailover.hostA.udp passedUpPk:vector(count):mean nan
scalar BgpDiamondFailover.hostA.udp passedUpPk:vector(count):stddev nan
scalar BgpDiamondFailover.hostA.udp passedUpPk:vector(count):min inf
scalar BgpDiamondFailover.hostA.udp passedUpPk:vector(count):max -inf
scalar BgpDiamondFailover.hostA.udp passedUpPk:vector(count):starttime nan
scalar BgpDiamondFailover.hostA.udp passedUpPk:vector(count):endtime nan
scalar BgpDiamondFailover.hostA.udp droppedPkWrongPort:vector(count):count 0
scalar BgpDiamondFailover.hostA.udp droppedPkWrongPort:vector(count):sum 0
scalar BgpDiamondFailover.hostA.udp droppedPkWrongPort:vector(count):sumweights 0
scalar BgpDiamondFailover.hostA.udp droppedPkWrongPort:vector(count):mean nan
scalar BgpDiamondFailover.hostA.udp droppedPkWrongPort:vector(count):stddev nan
scalar BgpDiamondFailover.hostA.udp droppedPkWrongPort:vector(count):min inf
scalar BgpDiamondFailover.hostA.udp droppedPkWrongPort:vector(count):max -inf
scalar BgpDiamondFailover.hostA.udp droppedPkWrongPort:vector(count):starttime nan
scalar BgpDiamondFailover.hostA.udp droppedPkWrongPort:vector(count):endtime nan
scalar BgpDiamondFailover.hostA.udp droppedPkBadChecksum:vector(count):count 0
scalar BgpDiamondFailover.hostA.udp droppedPkBadChecksum:vector(count):sum 0
scalar BgpDiamondFailover.hostA.udp droppedPkBadChecksum:vector(count):sumweights 0
scalar BgpDiamondFailover.hostA.udp droppedPkBadChecksum:vector(count):mean nan
scalar BgpDiamondFailover.hostA.udp droppedPkBadChecksum:vector(count):stddev nan
scalar BgpDiamondFailover.hostA.udp droppedPkBadChecksum:vector(count):min inf
scalar BgpDiamondFailover.hostA.udp droppedPkBadChecksum:vector(count):max -inf
scalar BgpDiamondFailover.hostA.udp droppedPkBadChecksum:vector(count):starttime nan
scalar BgpDiamondFailover.hostA.udp droppedPkBadChecksum:vector(count):endtime nan
scalar BgpDiamondFailover.hostA.app[0] rtt:vector:count 135
scalar BgpDiamondFailover.hostA.app[0] rtt:vector:sum 0.12957728
scalar BgpDiamondFailover.hostA.app[0] rtt:vector:sumweights 135
scalar BgpDiamondFailover.hostA.app[0] rtt:vector:mean 0.0009598317037037037
scalar BgpDiamondFailover.hostA.app[0] rtt:vector:stddev 0.0005001448804806027
scalar BgpDiamondFailover.hostA.app[0] rtt:vector:min 0.0004704
scalar BgpDiamondFailover.hostA.app[0] rtt:vector:max 0.00169344
scalar BgpDiamondFailover.hostA.app[0] rtt:vector:starttime 20.000804960000004
scalar BgpDiamondFailover.hostA.app[0] rtt:vector:endtime 159.00147040000004
scalar BgpDiamondFailover.hostA.app[0] numLost:vector:count 1
scalar BgpDiamondFailover.hostA.app[0] numLost:vector:sum 5
scalar BgpDiamondFailover.hostA.app[0] numLost:vector:sumweights 1
scalar BgpDiamondFailover.hostA.app[0] numLost:vector:mean 5
scalar BgpDiamondFailover.hostA.app[0] numLost:vector:stddev nan
scalar BgpDiamondFailover.hostA.app[0] numLost:vector:min 5
scalar BgpDiamondFailover.hostA.app[0] numLost:vector:max 5
scalar BgpDiamondFailover.hostA.app[0] numLost:vector:starttime 145.00169344000003
scalar BgpDiamondFailover.hostA.app[0] numLost:vector:endtime 145.00169344000003
scalar BgpDiamondFailover.hostA.app[0] numOutOfOrderArrivals:vector:count 0
scalar BgpDiamondFailover.hostA.app[0] numOutOfOrderArrivals:vector:sum 0
scalar BgpDiamondFailover.hostA.app[0] numOutOfOrderArrivals:vector:sumweights 0
scalar BgpDiamondFailover.hostA.app[0] numOutOfOrderArrivals:vector:mean nan
scalar BgpDiamondFailover.hostA.app[0] numOutOfOrderArrivals:vector:stddev nan
scalar BgpDiamondFailover.hostA.app[0] numOutOfOrderArrivals:vector:min inf
scalar BgpDiamondFailover.hostA.app[0] numOutOfOrderArrivals:vector:max -inf
scalar BgpDiamondFailover.hostA.app[0] numOutOfOrderArrivals:vector:starttime nan
scalar BgpDiamondFailover.hostA.app[0] numOutOfOrderArrivals:vector:endtime nan
scalar BgpDiamondFailover.hostA.app[0] pingTxSeq:vector:count 141
scalar BgpDiamondFailover.hostA.app[0] pingTxSeq:vector:sum 9870
scalar BgpDiamondFailover.hostA.app[0] pingTxSeq:vector:sumweights 141
scalar BgpDiamondFailover.hostA.app[0] pingTxSeq:vector:mean 70
scalar BgpDiamondFailover.hostA.app[0] pingTxSeq:vector:stddev 40.847276531000205
scalar BgpDiamondFailover.hostA.app[0] pingTxSeq:vector:min 0
scalar BgpDiamondFailover.hostA.app[0] pingTxSeq:vector:max 140
scalar BgpDiamondFailover.hostA.app[0] pingTxSeq:vector:starttime 20
scalar BgpDiamondFailover.hostA.app[0] pingTxSeq:vector:endtime 160
scalar BgpDiamondFailover.hostA.app[0] pingRxSeq:vector:count 135
scalar BgpDiamondFailover.hostA.app[0] pingRxSeq:vector:sum 9120
scalar BgpDiamondFailover.hostA.app[0] pingRxSeq:vector:sumweights 135
scalar BgpDiamondFailover.hostA.app[0] pingRxSeq:vector:mean 67.55555555555556
scalar BgpDiamondFailover.hostA.app[0] pingRxSeq:vector:stddev 39.99564652926031
scalar BgpDiamondFailover.hostA.app[0] pingRxSeq:vector:min 0
scalar BgpDiamondFailover.hostA.app[0] pingRxSeq:vector:max 139
scalar BgpDiamondFailover.hostA.app[0] pingRxSeq:vector:starttime 20.000804960000004
scalar BgpDiamondFailover.hostA.app[0] pingRxSeq:vector:endtime 159.00147040000004
scalar BgpDiamondFailover.A.ethernet encapPk:vector(packetBytes):count 0
scalar BgpDiamondFailover.A.ethernet encapPk:vector(packetBytes):sum 0
scalar BgpDiamondFailover.A.ethernet encapPk:vector(packetBytes):sumweights 0
scalar BgpDiamondFailover.A.ethernet encapPk:vector(packetBytes):mean nan
scalar BgpDiamondFailover.A.ethernet encapPk:vector(packetBytes):stddev nan
scalar BgpDiamondFailover.A.ethernet encapPk:vector(packetBytes):min inf
scalar BgpDiamondFailover.A.ethernet encapPk:vector(packetBytes):max -inf
scalar BgpDiamondFailover.A.ethernet encapPk:vector(packetBytes):starttime nan
scalar BgpDiamondFailover.A.ethernet encapPk:vector(packetBytes):endtime nan
scalar BgpDiamondFailover.A.ethernet decapPk:vector(packetBytes):count 0
scalar BgpDiamondFailover.A.ethernet decapPk:vector(packetBytes):sum 0
scalar BgpDiamondFailover.A.ethernet decapPk:vector(packetBytes):sumweights 0
scalar BgpDiamondFailover.A.ethernet decapPk:vector(packetBytes):mean nan
scalar BgpDiamondFailover.A.ethernet decapPk:vector(packetBytes):stddev nan
scalar BgpDiamondFailover.A.ethernet decapPk:vector(packetBytes):min inf
scalar BgpDiamondFailover.A.ethernet decapPk:vector(packetBytes):max -inf
scalar BgpDiamondFailover.A.ethernet decapPk:vector(packetBytes):starttime nan
scalar BgpDiamondFailover.A.ethernet decapPk:vector(packetBytes):endtime nan
scalar BgpDiamondFailover.A.ethernet pauseSent:vector:count 0
scalar BgpDiamondFailover.A.ethernet pauseSent:vector:sum 0
scalar BgpDiamondFailover.A.ethernet pauseSent:vector:sumweights 0
scalar BgpDiamondFailover.A.ethernet pauseSent:vector:mean nan
scalar BgpDiamondFailover.A.ethernet pauseSent:vector:stddev nan
scalar BgpDiamondFailover.A.ethernet pauseSent:vector:min inf
scalar BgpDiamondFailover.A.ethernet pauseSent:vector:max -inf
scalar BgpDiamondFailover.A.ethernet pauseSent:vector:starttime nan
scalar BgpDiamondFailover.A.ethernet pauseSent:vector:endtime nan
scalar BgpDiamondFailover.A.lo[0].lo rcvdPkFromHl:vector(packetBytes):count 0
scalar BgpDiamondFailover.A.lo[0].lo rcvdPkFromHl:vector(packetBytes):sum 0
scalar BgpDiamondFailover.A.lo[0].lo rcvdPkFromHl:vector(packetBytes):sumweights 0
scalar BgpDiamondFailover.A.lo[0].lo rcvdPkFromHl:vector(packetBytes):mean nan
scalar BgpDiamondFailover.A.lo[0].lo rcvdPkFromHl:vector(packetBytes):stddev nan
scalar BgpDiamondFailover.A.lo[0].lo rcvdPkFromHl:vector(packetBytes):min inf
scalar BgpDiamondFailover.A.lo[0].lo rcvdPkFromHl:vector(packetBytes):max -inf
scalar BgpDiamondFailover.A.lo[0].lo rcvdPkFromHl:vector(packetBytes):starttime nan
scalar BgpDiamondFailover.A.lo[0].lo rcvdPkFromHl:vector(packetBytes):endtime nan
scalar BgpDiamondFailover.A.lo[0].lo passedUpPk:vector(packetBytes):count 0
scalar BgpDiamondFailover.A.lo[0].lo passedUpPk:vector(packetBytes):sum 0
scalar BgpDiamondFailover.A.lo[0].lo passedUpPk:vector(packetBytes):sumweights 0
scalar BgpDiamondFailover.A.lo[0].lo passedUpPk:vector(packetBytes):mean nan
scalar BgpDiamondFailover.A.lo[0].lo passedUpPk:vector(packetBytes):stddev nan
scalar BgpDiamondFailover.A.lo[0].lo passedUpPk:vector(packetBytes):min inf
scalar BgpDiamondFailover.A.lo[0].lo passedUpPk:vector(packetBytes):max -inf
scalar BgpDiamondFailover.A.lo[0].lo passedUpPk:vector(packetBytes):starttime nan
scalar BgpDiamondFailover.A.lo[0].lo passedUpPk:vector(packetBytes):endtime nan
scalar BgpDiamondFailover.A.lo[0] packetDropInterfaceDown:vector(packetBytes):count 0
scalar BgpDiamondFailover.A.lo[0] packetDropInterfaceDown:vector(packetBytes):sum 0
scalar BgpDiamondFailover.A.lo[0] packetDropInterfaceDown:vector(packetBytes):sumweights 0
scalar BgpDiamondFailover.A.lo[0] packetDropInterfaceDown:vector(packetBytes):mean nan
scalar BgpDiamondFailover.A.lo[0] packetDropInterfaceDown:vector(packetBytes):stddev nan
scalar BgpDiamondFailover.A.lo[0] packetDropInterfaceDown:vector(packetBytes):min inf
scalar BgpDiamondFailover.A.lo[0] packetDropInterfaceDown:vector(packetBytes):max -inf
scalar BgpDiamondFailover.A.lo[0] packetDropInterfaceDown:vector(packetBytes):starttime nan
scalar BgpDiamondFailover.A.lo[0] packetDropInterfaceDown:vector(packetBytes):endtime nan
scalar BgpDiamondFailover.A.lo[0] packetDropNoCarrier:vector(packetBytes):count 0
scalar BgpDiamondFailover.A.lo[0] packetDropNoCarrier:vector(packetBytes):sum 0
scalar BgpDiamondFailover.A.lo[0] packetDropNoCarrier:vector(packetBytes):sumweights 0
scalar BgpDiamondFailover.A.lo[0] packetDropNoCarrier:vector(packetBytes):mean nan
scalar BgpDiamondFailover.A.lo[0] packetDropNoCarrier:vector(packetBytes):stddev nan
scalar BgpDiamondFailover.A.lo[0] packetDropNoCarrier:vector(packetBytes):min inf
scalar BgpDiamondFailover.A.lo[0] packetDropNoCarrier:vector(packetBytes):max -inf
scalar BgpDiamondFailover.A.lo[0] packetDropNoCarrier:vector(packetBytes):starttime nan
scalar BgpDiamondFailover.A.lo[0] packetDropNoCarrier:vector(packetBytes):endtime nan
scalar BgpDiamondFailover.A.eth[0].queue queueLength:vector:count 0
scalar BgpDiamondFailover.A.eth[0].queue queueLength:vector:sum 0
scalar BgpDiamondFailover.A.eth[0].queue queueLength:vector:sumweights 0
scalar BgpDiamondFailover.A.eth[0].queue queueLength:vector:mean nan
scalar BgpDiamondFailover.A.eth[0].queue queueLength:vector:stddev nan
scalar BgpDiamondFailover.A.eth[0].queue queueLength:vector:min inf
scalar BgpDiamondFailover.A.eth[0].queue queueLength:vector:max -inf
scalar BgpDiamondFailover.A.eth[0].queue queueLength:vector:starttime nan
scalar BgpDiamondFailover.A.eth[0].queue queueLength:vector:endtime nan
scalar BgpDiamondFailover.A.eth[0].queue queueBitLength:vector:count 0
scalar BgpDiamondFailover.A.eth[0].queue queueBitLength:vector:sum 0
scalar BgpDiamondFailover.A.eth[0].queue queueBitLength:vector:sumweights 0
scalar BgpDiamondFailover.A.eth[0].queue queueBitLength:vector:mean nan
scalar BgpDiamondFailover.A.eth[0].queue queueBitLength:vector:stddev nan
scalar BgpDiamondFailover.A.eth[0].queue queueBitLength:vector:min inf
scalar BgpDiamondFailover.A.eth[0].queue queueBitLength:vector:max -inf
scalar BgpDiamondFailover.A.eth[0].queue queueBitLength:vector:starttime nan
scalar BgpDiamondFailover.A.eth[0].queue queueBitLength:vector:endtime nan
scalar BgpDiamondFailover.A.eth[0].queue queueingTime:vector:count 0
scalar BgpDiamondFailover.A.eth[0].queue queueingTime:vector:sum 0
scalar BgpDiamondFailover.A.eth[0].queue queueingTime:vector:sumweights 0
scalar BgpDiamondFailover.A.eth[0].queue queueingTime:vector:mean nan
scalar BgpDiamondFailover.A.eth[0].queue queueingTime:vector:stddev nan
scalar BgpDiamondFailover.A.eth[0].queue queueingTime:vector:min inf
scalar BgpDiamondFailover.A.eth[0].queue queueingTime:vector:max -inf
scalar BgpDiamondFailover.A.eth[0].queue queueingTime:vector:starttime nan
scalar BgpDiamondFailover.A.eth[0].queue queueingTime:vector:endtime nan
scalar BgpDiamondFailover.A.eth[0].queue incomingPacketLengths:vector:count 0
scalar BgpDiamondFailover.A.eth[0].queue incomingPacketLengths:vector:sum 0
scalar BgpDiamondFailover.A.eth[0].queue incomingPacketLengths:vector:sumweights 0
scalar BgpDiamondFailover.A.eth[0].queue incomingPacketLengths:vector:mean nan
scalar BgpDiamondFailover.A.eth[0].queue incomingPacketLengths:vector:stddev nan
scalar BgpDiamondFailover.A.eth[0].queue incomingPacketLengths:vector:min inf
scalar BgpDiamondFailover.A.eth[0].queue incomingPacketLengths:vector:max -inf
scalar BgpDiamondFailover.A.eth[0].queue incomingPacketLengths:vector:starttime nan
scalar BgpDiamondFailover.A.eth[0].queue incomingPacketLengths:vector:endtime nan
scalar BgpDiamondFailover.A.eth[0].queue incomingDataRate:vector:count 0
scalar BgpDiamondFailover.A.eth[0].queue incomingDataRate:vector:sum 0
scalar BgpDiamondFailover.A.eth[0].queue incomingDataRate:vector:sumweights 0
scalar BgpDiamondFailover.A.eth[0].queue incomingDataRate:vector:mean nan
scalar BgpDiamondFailover.A.eth[0].queue incomingDataRate:vector:stddev nan
scalar BgpDiamondFailover.A.eth[0].queue incomingDataRate:vector:min inf
scalar BgpDiamondFailover.A.eth[0].queue incomingDataRate:vector:max -inf
scalar BgpDiamondFailover.A.eth[0].queue incomingDataRate:vector:starttime nan
scalar BgpDiamondFailover.A.eth[0].queue incomingDataRate:vector:endtime nan
scalar BgpDiamondFailover.A.eth[0].queue outgoingPacketLengths:vector:count 0
scalar BgpDiamondFailover.A.eth[0].queue outgoingPacketLengths:vector:sum 0
scalar BgpDiamondFailover.A.eth[0].queue outgoingPacketLengths:vector:sumweights 0
scalar BgpDiamondFailover.A.eth[0].queue outgoingPacketLengths:vector:mean nan
scalar BgpDiamondFailover.A.eth[0].queue outgoingPacketLengths:vector:stddev nan
scalar BgpDiamondFailover.A.eth[0].queue outgoingPacketLengths:vector:min inf
scalar BgpDiamondFailover.A.eth[0].queue outgoingPacketLengths:vector:max -inf
scalar BgpDiamondFailover.A.eth[0].queue outgoingPacketLengths:vector:starttime nan
scalar BgpDiamondFailover.A.eth[0].queue outgoingPacketLengths:vector:endtime nan
scalar BgpDiamondFailover.A.eth[0].queue outgoingDataRate:vector:count 0
scalar BgpDiamondFailover.A.eth[0].queue outgoingDataRate:vector:sum 0
scalar BgpDiamondFailover.A.eth[0].queue outgoingDataRate:vector:sumweights 0
scalar BgpDiamondFailover.A.eth[0].queue outgoingDataRate:vector:mean nan
scalar BgpDiamondFailover.A.eth[0].queue outgoingDataRate:vector:stddev nan
scalar BgpDiamondFailover.A.eth[0].queue outgoingDataRate:vector:min inf
scalar BgpDiamondFailover.A.eth[0].queue outgoingDataRate:vector:max -inf
scalar BgpDiamondFailover.A.eth[0].queue outgoingDataRate:vector:starttime nan
scalar BgpDiamondFailover.A.eth[0].queue outgoingDataRate:vector:endtime nan
scalar BgpDiamondFailover.A.eth[0].queue droppedPacketLengthsQueueOverflow:vector:count 0
scalar BgpDiamondFailover.A.eth[0].queue droppedPacketLengthsQueueOverflow:vector:sum 0
scalar BgpDiamondFailover.A.eth[0].queue droppedPacketLengthsQueueOverflow:vector:sumweights 0
scalar BgpDiamondFailover.A.eth[0].queue droppedPacketLengthsQueueOverflow:vector:mean nan
scalar BgpDiamondFailover.A.eth[0].queue droppedPacketLengthsQueueOverflow:vector:stddev nan
scalar BgpDiamondFailover.A.eth[0].queue droppedPacketLengthsQueueOverflow:vector:min inf
scalar BgpDiamondFailover.A.eth[0].queue droppedPacketLengthsQueueOverflow:vector:max -inf
scalar BgpDiamondFailover.A.eth[0].queue droppedPacketLengthsQueueOverflow:vector:starttime nan
scalar BgpDiamondFailover.A.eth[0].queue droppedPacketLengthsQueueOverflow:vector:endtime nan
scalar BgpDiamondFailover.A.eth[0].queue flowQueueingTime:vector:count 0
scalar BgpDiamondFailover.A.eth[0].queue flowQueueingTime:vector:sum 0
scalar BgpDiamondFailover.A.eth[0].queue flowQueueingTime:vector:sumweights 0
scalar BgpDiamondFailover.A.eth[0].queue flowQueueingTime:vector:mean nan
scalar BgpDiamondFailover.A.eth[0].queue flowQueueingTime:vector:stddev nan
scalar BgpDiamondFailover.A.eth[0].queue flowQueueingTime:vector:min inf
scalar BgpDiamondFailover.A.eth[0].queue flowQueueingTime:vector:max -inf
scalar BgpDiamondFailover.A.eth[0].queue flowQueueingTime:vector:starttime nan
scalar BgpDiamondFailover.A.eth[0].queue flowQueueingTime:vector:endtime nan
scalar BgpDiamondFailover.A.eth[0].queue flowIncomingDataRate:vector:count 0
scalar BgpDiamondFailover.A.eth[0].queue flowIncomingDataRate:vector:sum 0
scalar BgpDiamondFailover.A.eth[0].queue flowIncomingDataRate:vector:sumweights 0
scalar BgpDiamondFailover.A.eth[0].queue flowIncomingDataRate:vector:mean nan
scalar BgpDiamondFailover.A.eth[0].queue flowIncomingDataRate:vector:stddev nan
scalar BgpDiamondFailover.A.eth[0].queue flowIncomingDataRate:vector:min inf
scalar BgpDiamondFailover.A.eth[0].queue flowIncomingDataRate:vector:max -inf
scalar BgpDiamondFailover.A.eth[0].queue flowIncomingDataRate:vector:starttime nan
scalar BgpDiamondFailover.A.eth[0].queue flowIncomingDataRate:vector:endtime nan
scalar BgpDiamondFailover.A.eth[0].queue flowOutgoingDataRate:vector:count 0
scalar BgpDiamondFailover.A.eth[0].queue flowOutgoingDataRate:vector:sum 0
scalar BgpDiamondFailover.A.eth[0].queue flowOutgoingDataRate:vector:sumweights 0
scalar BgpDiamondFailover.A.eth[0].queue flowOutgoingDataRate:vector:mean nan
scalar BgpDiamondFailover.A.eth[0].queue flowOutgoingDataRate:vector:stddev nan
scalar BgpDiamondFailover.A.eth[0].queue flowOutgoingDataRate:vector:min inf
scalar BgpDiamondFailover.A.eth[0].queue flowOutgoingDataRate:vector:max -inf
scalar BgpDiamondFailover.A.eth[0].queue flowOutgoingDataRate:vector:starttime nan
scalar BgpDiamondFailover.A.eth[0].queue flowOutgoingDataRate:vector:endtime nan
scalar BgpDiamondFailover.A.eth[0].mac transmitting:vector:count 0
scalar BgpDiamondFailover.A.eth[0].mac transmitting:vector:sum 0
scalar BgpDiamondFailover.A.eth[0].mac transmitting:vector:sumweights 0
scalar BgpDiamondFailover.A.eth[0].mac transmitting:vector:mean nan
scalar BgpDiamondFailover.A.eth[0].mac transmitting:vector:stddev nan
scalar BgpDiamondFailover.A.eth[0].mac transmitting:vector:min inf
scalar BgpDiamondFailover.A.eth[0].mac transmitting:vector:max -inf
scalar BgpDiamondFailover.A.eth[0].mac transmitting:vector:starttime nan
scalar BgpDiamondFailover.A.eth[0].mac transmitting:vector:endtime nan
scalar BgpDiamondFailover.A.eth[0].mac throughput:vector:count 0
scalar BgpDiamondFailover.A.eth[0].mac throughput:vector:sum 0
scalar BgpDiamondFailover.A.eth[0].mac throughput:vector:sumweights 0
scalar BgpDiamondFailover.A.eth[0].mac throughput:vector:mean nan
scalar BgpDiamondFailover.A.eth[0].mac throughput:vector:stddev nan
scalar BgpDiamondFailover.A.eth[0].mac throughput:vector:min inf
scalar BgpDiamondFailover.A.eth[0].mac throughput:vector:max -inf
scalar BgpDiamondFailover.A.eth[0].mac throughput:vector:starttime nan
scalar BgpDiamondFailover.A.eth[0].mac throughput:vector:endtime nan
scalar BgpDiamondFailover.A.eth[0].mac utilization:vector:count 0
scalar BgpDiamondFailover.A.eth[0].mac utilization:vector:sum 0
scalar BgpDiamondFailover.A.eth[0].mac utilization:vector:sumweights 0
scalar BgpDiamondFailover.A.eth[0].mac utilization:vector:mean nan
scalar BgpDiamondFailover.A.eth[0].mac utilization:vector:stddev nan
scalar BgpDiamondFailover.A.eth[0].mac utilization:vector:min inf
scalar BgpDiamondFailover.A.eth[0].mac utilization:vector:max -inf
scalar BgpDiamondFailover.A.eth[0].mac utilization:vector:starttime nan
scalar BgpDiamondFailover.A.eth[0].mac utilization:vector:endtime nan
scalar BgpDiamondFailover.A.eth[0].mac txPk:vector(packetBytes):count 0
scalar BgpDiamondFailover.A.eth[0].mac txPk:vector(packetBytes):sum 0
scalar BgpDiamondFailover.A.eth[0].mac txPk:vector(packetBytes):sumweights 0
scalar BgpDiamondFailover.A.eth[0].mac txPk:vector(packetBytes):mean nan
scalar BgpDiamondFailover.A.eth[0].mac txPk:vector(packetBytes):stddev nan
scalar BgpDiamondFailover.A.eth[0].mac txPk:vector(packetBytes):min inf
scalar BgpDiamondFailover.A.eth[0].mac txPk:vector(packetBytes):max -inf
scalar BgpDiamondFailover.A.eth[0].mac txPk:vector(packetBytes):starttime nan
scalar BgpDiamondFailover.A.eth[0].mac txPk:vector(packetBytes):endtime nan
scalar BgpDiamondFailover.A.eth[0].mac rxPkOk:vector(packetBytes):count 0
scalar BgpDiamondFailover.A.eth[0].mac rxPkOk:vector(packetBytes):sum 0
scalar BgpDiamondFailover.A.eth[0].mac rxPkOk:vector(packetBytes):sumweights 0
scalar BgpDiamondFailover.A.eth[0].mac rxPkOk:vector(packetBytes):mean nan
scalar BgpDiamondFailover.A.eth[0].mac rxPkOk:vector(packetBytes):stddev nan
scalar BgpDiamondFailover.A.eth[0].mac rxPkOk:vector(packetBytes):min inf
scalar BgpDiamondFailover.A.eth[0].mac rxPkOk:vector(packetBytes):max -inf
scalar BgpDiamondFailover.A.eth[0].mac rxPkOk:vector(packetBytes):starttime nan
scalar BgpDiamondFailover.A.eth[0].mac rxPkOk:vector(packetBytes):endtime nan
scalar BgpDiamondFailover.A.eth[0].mac passedUpPk:vector(packetBytes):count 0
scalar BgpDiamondFailover.A.eth[0].mac passedUpPk:vector(packetBytes):sum 0
scalar BgpDiamondFailover.A.eth[0].mac passedUpPk:vector(packetBytes):sumweights 0
scalar BgpDiamondFailover.A.eth[0].mac passedUpPk:vector(packetBytes):mean nan
scalar BgpDiamondFailover.A.eth[0].mac passedUpPk:vector(packetBytes):stddev nan
scalar BgpDiamondFailover.A.eth[0].mac passedUpPk:vector(packetBytes):min inf
scalar BgpDiamondFailover.A.eth[0].mac passedUpPk:vector(packetBytes):max -inf
scalar BgpDiamondFailover.A.eth[0].mac passedUpPk:vector(packetBytes):starttime nan
scalar BgpDiamondFailover.A.eth[0].mac passedUpPk:vector(packetBytes):endtime nan
scalar BgpDiamondFailover.A.eth[0].mac txPausePkUnits:vector:count 0
scalar BgpDiamondFailover.A.eth[0].mac txPausePkUnits:vector:sum 0
scalar BgpDiamondFailover.A.eth[0].mac txPausePkUnits:vector:sumweights 0
scalar BgpDiamondFailover.A.eth[0].mac txPausePkUnits:vector:mean nan
scalar BgpDiamondFailover.A.eth[0].mac txPausePkUnits:vector:stddev nan
scalar BgpDiamondFailover.A.eth[0].mac txPausePkUnits:vector:min inf
scalar BgpDiamondFailover.A.eth[0].mac txPausePkUnits:vector:max -inf
scalar BgpDiamondFailover.A.eth[0].mac txPausePkUnits:vector:starttime nan
scalar BgpDiamondFailover.A.eth[0].mac txPausePkUnits:vector:endtime nan
scalar BgpDiamondFailover.A.eth[0].mac rxPausePkUnits:vector:count 0
scalar BgpDiamondFailover.A.eth[0].mac rxPausePkUnits:vector:sum 0
scalar BgpDiamondFailover.A.eth[0].mac rxPausePkUnits:vector:sumweights 0
scalar BgpDiamondFailover.A.eth[0].mac rxPausePkUnits:vector:mean nan
scalar BgpDiamondFailover.A.eth[0].mac rxPausePkUnits:vector:stddev nan
scalar BgpDiamondFailover.A.eth[0].mac rxPausePkUnits:vector:min inf
scalar BgpDiamondFailover.A.eth[0].mac rxPausePkUnits:vector:max -inf
scalar BgpDiamondFailover.A.eth[0].mac rxPausePkUnits:vector:starttime nan
scalar BgpDiamondFailover.A.eth[0].mac rxPausePkUnits:vector:endtime nan
scalar BgpDiamondFailover.A.eth[0].mac packetReceivedFromUpper:vector(packetBytes):count 0
scalar BgpDiamondFailover.A.eth[0].mac packetReceivedFromUpper:vector(packetBytes):sum 0
scalar BgpDiamondFailover.A.eth[0].mac packetReceivedFromUpper:vector(packetBytes):sumweights 0
scalar BgpDiamondFailover.A.eth[0].mac packetReceivedFromUpper:vector(packetBytes):mean nan
scalar BgpDiamondFailover.A.eth[0].mac packetReceivedFromUpper:vector(packetBytes):stddev nan
scalar BgpDiamondFailover.A.eth[0].mac packetReceivedFromUpper:vector(packetBytes):min inf
scalar BgpDiamondFailover.A.eth[0].mac packetReceivedFromUpper:vector(packetBytes):max -inf
scalar BgpDiamondFailover.A.eth[0].mac packetReceivedFromUpper:vector(packetBytes):starttime nan
scalar BgpDiamondFailover.A.eth[0].mac packetReceivedFromUpper:vector(packetBytes):endtime nan
scalar BgpDiamondFailover.A.eth[0].mac packetDropIncorrectlyReceived:vector(packetBytes):count 0
scalar BgpDiamondFailover.A.eth[0].mac packetDropIncorrectlyReceived:vector(packetBytes):sum 0
scalar BgpDiamondFailover.A.eth[0].mac packetDropIncorrectlyReceived:vector(packetBytes):sumweights 0
scalar BgpDiamondFailover.A.eth[0].mac packetDropIncorrectlyReceived:vector(packetBytes):mean nan
scalar BgpDiamondFailover.A.eth[0].mac packetDropIncorrectlyReceived:vector(packetBytes):stddev nan
scalar BgpDiamondFailover.A.eth[0].mac packetDropIncorrectlyReceived:vector(packetBytes):min inf
scalar BgpDiamondFailover.A.eth[0].mac packetDropIncorrectlyReceived:vector(packetBytes):max -inf
scalar BgpDiamondFailover.A.eth[0].mac packetDropIncorrectlyReceived:vector(packetBytes):starttime nan
scalar BgpDiamondFailover.A.eth[0].mac packetDropIncorrectlyReceived:vector(packetBytes):endtime nan
scalar BgpDiamondFailover.A.eth[0].mac packetDropInterfaceDown:vector(packetBytes):count 0
scalar BgpDiamondFailover.A.eth[0].mac packetDropInterfaceDown:vector(packetBytes):sum 0
scalar BgpDiamondFailover.A.eth[0].mac packetDropInterfaceDown:vector(packetBytes):sumweights 0
scalar BgpDiamondFailover.A.eth[0].mac packetDropInterfaceDown:vector(packetBytes):mean nan
scalar BgpDiamondFailover.A.eth[0].mac packetDropInterfaceDown:vector(packetBytes):stddev nan
scalar BgpDiamondFailover.A.eth[0].mac packetDropInterfaceDown:vector(packetBytes):min inf
scalar BgpDiamondFailover.A.eth[0].mac packetDropInterfaceDown:vector(packetBytes):max -inf
scalar BgpDiamondFailover.A.eth[0].mac packetDropInterfaceDown:vector(packetBytes):starttime nan
scalar BgpDiamondFailover.A.eth[0].mac packetDropInterfaceDown:vector(packetBytes):endtime nan
scalar BgpDiamondFailover.A.eth[0].mac packetDropNotAddressedToUs:vector(packetBytes):count 0
scalar BgpDiamondFailover.A.eth[0].mac packetDropNotAddressedToUs:vector(packetBytes):sum 0
scalar BgpDiamondFailover.A.eth[0].mac packetDropNotAddressedToUs:vector(packetBytes):sumweights 0
scalar BgpDiamondFailover.A.eth[0].mac packetDropNotAddressedToUs:vector(packetBytes):mean nan
scalar BgpDiamondFailover.A.eth[0].mac packetDropNotAddressedToUs:vector(packetBytes):stddev nan
scalar BgpDiamondFailover.A.eth[0].mac packetDropNotAddressedToUs:vector(packetBytes):min inf
scalar BgpDiamondFailover.A.eth[0].mac packetDropNotAddressedToUs:vector(packetBytes):max -inf
scalar BgpDiamondFailover.A.eth[0].mac packetDropNotAddressedToUs:vector(packetBytes):starttime nan
scalar BgpDiamondFailover.A.eth[0].mac packetDropNotAddressedToUs:vector(packetBytes):endtime nan
scalar BgpDiamondFailover.A.eth[0] packetDropInterfaceDown:vector(packetBytes):count 0
scalar BgpDiamondFailover.A.eth[0] packetDropInterfaceDown:vector(packetBytes):sum 0
scalar BgpDiamondFailover.A.eth[0] packetDropInterfaceDown:vector(packetBytes):sumweights 0
scalar BgpDiamondFailover.A.eth[0] packetDropInterfaceDown:vector(packetBytes):mean nan
scalar BgpDiamondFailover.A.eth[0] packetDropInterfaceDown:vector(packetBytes):stddev nan
scalar BgpDiamondFailover.A.eth[0] packetDropInterfaceDown:vector(packetBytes):min inf
scalar BgpDiamondFailover.A.eth[0] packetDropInterfaceDown:vector(packetBytes):max -inf
scalar BgpDiamondFailover.A.eth[0] packetDropInterfaceDown:vector(packetBytes):starttime nan
scalar BgpDiamondFailover.A.eth[0] packetDropInterfaceDown:vector(packetBytes):endtime nan
scalar BgpDiamondFailover.A.eth[0] packetDropNoCarrier:vector(packetBytes):count 0
scalar BgpDiamondFailover.A.eth[0] packetDropNoCarrier:vector(packetBytes):sum 0
scalar BgpDiamondFailover.A.eth[0] packetDropNoCarrier:vector(packetBytes):sumweights 0
scalar BgpDiamondFailover.A.eth[0] packetDropNoCarrier:vector(packetBytes):mean nan
scalar BgpDiamondFailover.A.eth[0] packetDropNoCarrier:vector(packetBytes):stddev nan
scalar BgpDiamondFailover.A.eth[0] packetDropNoCarrier:vector(packetBytes):min inf
scalar BgpDiamondFailover.A.eth[0] packetDropNoCarrier:vector(packetBytes):max -inf
scalar BgpDiamondFailover.A.eth[0] packetDropNoCarrier:vector(packetBytes):starttime nan
scalar BgpDiamondFailover.A.eth[0] packetDropNoCarrier:vector(packetBytes):endtime nan
scalar BgpDiamondFailover.A.eth[1].queue queueLength:vector:count 0
scalar BgpDiamondFailover.A.eth[1].queue queueLength:vector:sum 0
scalar BgpDiamondFailover.A.eth[1].queue queueLength:vector:sumweights 0
scalar BgpDiamondFailover.A.eth[1].queue queueLength:vector:mean nan
scalar BgpDiamondFailover.A.eth[1].queue queueLength:vector:stddev nan
scalar BgpDiamondFailover.A.eth[1].queue queueLength:vector:min inf
scalar BgpDiamondFailover.A.eth[1].queue queueLength:vector:max -inf
scalar BgpDiamondFailover.A.eth[1].queue queueLength:vector:starttime nan
scalar BgpDiamondFailover.A.eth[1].queue queueLength:vector:endtime nan
scalar BgpDiamondFailover.A.eth[1].queue queueBitLength:vector:count 0
scalar BgpDiamondFailover.A.eth[1].queue queueBitLength:vector:sum 0
scalar BgpDiamondFailover.A.eth[1].queue queueBitLength:vector:sumweights 0
scalar BgpDiamondFailover.A.eth[1].queue queueBitLength:vector:mean nan
scalar BgpDiamondFailover.A.eth[1].queue queueBitLength:vector:stddev nan
scalar BgpDiamondFailover.A.eth[1].queue queueBitLength:vector:min inf
scalar BgpDiamondFailover.A.eth[1].queue queueBitLength:vector:max -inf
scalar BgpDiamondFailover.A.eth[1].queue queueBitLength:vector:starttime nan
scalar BgpDiamondFailover.A.eth[1].queue queueBitLength:vector:endtime nan
scalar BgpDiamondFailover.A.eth[1].queue queueingTime:vector:count 0
scalar BgpDiamondFailover.A.eth[1].queue queueingTime:vector:sum 0
scalar BgpDiamondFailover.A.eth[1].queue queueingTime:vector:sumweights 0
scalar BgpDiamondFailover.A.eth[1].queue queueingTime:vector:mean nan
scalar BgpDiamondFailover.A.eth[1].queue queueingTime:vector:stddev nan
scalar BgpDiamondFailover.A.eth[1].queue queueingTime:vector:min inf
scalar BgpDiamondFailover.A.eth[1].queue queueingTime:vector:max -inf
scalar BgpDiamondFailover.A.eth[1].queue queueingTime:vector:starttime nan
scalar BgpDiamondFailover.A.eth[1].queue queueingTime:vector:endtime nan
scalar BgpDiamondFailover.A.eth[1].queue incomingPacketLengths:vector:count 0
scalar BgpDiamondFailover.A.eth[1].queue incomingPacketLengths:vector:sum 0
scalar BgpDiamondFailover.A.eth[1].queue incomingPacketLengths:vector:sumweights 0
scalar BgpDiamondFailover.A.eth[1].queue incomingPacketLengths:vector:mean nan
scalar BgpDiamondFailover.A.eth[1].queue incomingPacketLengths:vector:stddev nan
scalar BgpDiamondFailover.A.eth[1].queue incomingPacketLengths:vector:min inf
scalar BgpDiamondFailover.A.eth[1].queue incomingPacketLengths:vector:max -inf
scalar BgpDiamondFailover.A.eth[1].queue incomingPacketLengths:vector:starttime nan
scalar BgpDiamondFailover.A.eth[1].queue incomingPacketLengths:vector:endtime nan
scalar BgpDiamondFailover.A.eth[1].queue incomingDataRate:vector:count 0
scalar BgpDiamondFailover.A.eth[1].queue incomingDataRate:vector:sum 0
scalar BgpDiamondFailover.A.eth[1].queue incomingDataRate:vector:sumweights 0
scalar BgpDiamondFailover.A.eth[1].queue incomingDataRate:vector:mean nan
scalar BgpDiamondFailover.A.eth[1].queue incomingDataRate:vector:stddev nan
scalar BgpDiamondFailover.A.eth[1].queue incomingDataRate:vector:min inf
scalar BgpDiamondFailover.A.eth[1].queue incomingDataRate:vector:max -inf
scalar BgpDiamondFailover.A.eth[1].queue incomingDataRate:vector:starttime nan
scalar BgpDiamondFailover.A.eth[1].queue incomingDataRate:vector:endtime nan
scalar BgpDiamondFailover.A.eth[1].queue outgoingPacketLengths:vector:count 0
scalar BgpDiamondFailover.A.eth[1].queue outgoingPacketLengths:vector:sum 0
scalar BgpDiamondFailover.A.eth[1].queue outgoingPacketLengths:vector:sumweights 0
scalar BgpDiamondFailover.A.eth[1].queue outgoingPacketLengths:vector:mean nan
scalar BgpDiamondFailover.A.eth[1].queue outgoingPacketLengths:vector:stddev nan
scalar BgpDiamondFailover.A.eth[1].queue outgoingPacketLengths:vector:min inf
scalar BgpDiamondFailover.A.eth[1].queue outgoingPacketLengths:vector:max -inf
scalar BgpDiamondFailover.A.eth[1].queue outgoingPacketLengths:vector:starttime nan
scalar BgpDiamondFailover.A.eth[1].queue outgoingPacketLengths:vector:endtime nan
scalar BgpDiamondFailover.A.eth[1].queue outgoingDataRate:vector:count 0
scalar BgpDiamondFailover.A.eth[1].queue outgoingDataRate:vector:sum 0
scalar BgpDiamondFailover.A.eth[1].queue outgoingDataRate:vector:sumweights 0
scalar BgpDiamondFailover.A.eth[1].queue outgoingDataRate:vector:mean nan
scalar BgpDiamondFailover.A.eth[1].queue outgoingDataRate:vector:stddev nan
scalar BgpDiamondFailover.A.eth[1].queue outgoingDataRate:vector:min inf
scalar BgpDiamondFailover.A.eth[1].queue outgoingDataRate:vector:max -inf
scalar BgpDiamondFailover.A.eth[1].queue outgoingDataRate:vector:starttime nan
scalar BgpDiamondFailover.A.eth[1].queue outgoingDataRate:vector:endtime nan
scalar BgpDiamondFailover.A.eth[1].queue droppedPacketLengthsQueueOverflow:vector:count 0
scalar BgpDiamondFailover.A.eth[1].queue droppedPacketLengthsQueueOverflow:vector:sum 0
scalar BgpDiamondFailover.A.eth[1].queue droppedPacketLengthsQueueOverflow:vector:sumweights 0
scalar BgpDiamondFailover.A.eth[1].queue droppedPacketLengthsQueueOverflow:vector:mean nan
scalar BgpDiamondFailover.A.eth[1].queue droppedPacketLengthsQueueOverflow:vector:stddev nan
scalar BgpDiamondFailover.A.eth[1].queue droppedPacketLengthsQueueOverflow:vector:min inf
scalar BgpDiamondFailover.A.eth[1].queue droppedPacketLengthsQueueOverflow:vector:max -inf
scalar BgpDiamondFailover.A.eth[1].queue droppedPacketLengthsQueueOverflow:vector:starttime nan
scalar BgpDiamondFailover.A.eth[1].queue droppedPacketLengthsQueueOverflow:vector:endtime nan
scalar BgpDiamondFailover.A.eth[1].queue flowQueueingTime:vector:count 0
scalar BgpDiamondFailover.A.eth[1].queue flowQueueingTime:vector:sum 0
scalar BgpDiamondFailover.A.eth[1].queue flowQueueingTime:vector:sumweights 0
scalar BgpDiamondFailover.A.eth[1].queue flowQueueingTime:vector:mean nan
scalar BgpDiamondFailover.A.eth[1].queue flowQueueingTime:vector:stddev nan
scalar BgpDiamondFailover.A.eth[1].queue flowQueueingTime:vector:min inf
scalar BgpDiamondFailover.A.eth[1].queue flowQueueingTime:vector:max -inf
scalar BgpDiamondFailover.A.eth[1].queue flowQueueingTime:vector:starttime nan
scalar BgpDiamondFailover.A.eth[1].queue flowQueueingTime:vector:endtime nan
scalar BgpDiamondFailover.A.eth[1].queue flowIncomingDataRate:vector:count 0
scalar BgpDiamondFailover.A.eth[1].queue flowIncomingDataRate:vector:sum 0
scalar BgpDiamondFailover.A.eth[1].queue flowIncomingDataRate:vector:sumweights 0
scalar BgpDiamondFailover.A.eth[1].queue flowIncomingDataRate:vector:mean nan
scalar BgpDiamondFailover.A.eth[1].queue flowIncomingDataRate:vector:stddev nan
scalar BgpDiamondFailover.A.eth[1].queue flowIncomingDataRate:vector:min inf
scalar BgpDiamondFailover.A.eth[1].queue flowIncomingDataRate:vector:max -inf
scalar BgpDiamondFailover.A.eth[1].queue flowIncomingDataRate:vector:starttime nan
scalar BgpDiamondFailover.A.eth[1].queue flowIncomingDataRate:vector:endtime nan
scalar BgpDiamondFailover.A.eth[1].queue flowOutgoingDataRate:vector:count 0
scalar BgpDiamondFailover.A.eth[1].queue flowOutgoingDataRate:vector:sum 0
scalar BgpDiamondFailover.A.eth[1].queue flowOutgoingDataRate:vector:sumweights 0
scalar BgpDiamondFailover.A.eth[1].queue flowOutgoingDataRate:vector:mean nan
scalar BgpDiamondFailover.A.eth[1].queue flowOutgoingDataRate:vector:stddev nan
scalar BgpDiamondFailover.A.eth[1].queue flowOutgoingDataRate:vector:min inf
scalar BgpDiamondFailover.A.eth[1].queue flowOutgoingDataRate:vector:max -inf
scalar BgpDiamondFailover.A.eth[1].queue flowOutgoingDataRate:vector:starttime nan
scalar BgpDiamondFailover.A.eth[1].queue flowOutgoingDataRate:vector:endtime nan
scalar BgpDiamondFailover.A.eth[1].mac transmitting:vector:count 0
scalar BgpDiamondFailover.A.eth[1].mac transmitting:vector:sum 0
scalar BgpDiamondFailover.A.eth[1].mac transmitting:vector:sumweights 0
scalar BgpDiamondFailover.A.eth[1].mac transmitting:vector:mean nan
scalar BgpDiamondFailover.A.eth[1].mac transmitting:vector:stddev nan
scalar BgpDiamondFailover.A.eth[1].mac transmitting:vector:min inf
scalar BgpDiamondFailover.A.eth[1].mac transmitting:vector:max -inf
scalar BgpDiamondFailover.A.eth[1].mac transmitting:vector:starttime nan
scalar BgpDiamondFailover.A.eth[1].mac transmitting:vector:endtime nan
scalar BgpDiamondFailover.A.eth[1].mac throughput:vector:count 0
scalar BgpDiamondFailover.A.eth[1].mac throughput:vector:sum 0
scalar BgpDiamondFailover.A.eth[1].mac throughput:vector:sumweights 0
scalar BgpDiamondFailover.A.eth[1].mac throughput:vector:mean nan
scalar BgpDiamondFailover.A.eth[1].mac throughput:vector:stddev nan
scalar BgpDiamondFailover.A.eth[1].mac throughput:vector:min inf
scalar BgpDiamondFailover.A.eth[1].mac throughput:vector:max -inf
scalar BgpDiamondFailover.A.eth[1].mac throughput:vector:starttime nan
scalar BgpDiamondFailover.A.eth[1].mac throughput:vector:endtime nan
scalar BgpDiamondFailover.A.eth[1].mac utilization:vector:count 0
scalar BgpDiamondFailover.A.eth[1].mac utilization:vector:sum 0
scalar BgpDiamondFailover.A.eth[1].mac utilization:vector:sumweights 0
scalar BgpDiamondFailover.A.eth[1].mac utilization:vector:mean nan
scalar BgpDiamondFailover.A.eth[1].mac utilization:vector:stddev nan
scalar BgpDiamondFailover.A.eth[1].mac utilization:vector:min inf
scalar BgpDiamondFailover.A.eth[1].mac utilization:vector:max -inf
scalar BgpDiamondFailover.A.eth[1].mac utilization:vector:starttime nan
scalar BgpDiamondFailover.A.eth[1].mac utilization:vector:endtime nan
scalar BgpDiamondFailover.A.eth[1].mac txPk:vector(packetBytes):count 0
scalar BgpDiamondFailover.A.eth[1].mac txPk:vector(packetBytes):sum 0
scalar BgpDiamondFailover.A.eth[1].mac txPk:vector(packetBytes):sumweights 0
scalar BgpDiamondFailover.A.eth[1].mac txPk:vector(packetBytes):mean nan
scalar BgpDiamondFailover.A.eth[1].mac txPk:vector(packetBytes):stddev nan
scalar BgpDiamondFailover.A.eth[1].mac txPk:vector(packetBytes):min inf
scalar BgpDiamondFailover.A.eth[1].mac txPk:vector(packetBytes):max -inf
scalar BgpDiamondFailover.A.eth[1].mac txPk:vector(packetBytes):starttime nan
scalar BgpDiamondFailover.A.eth[1].mac txPk:vector(packetBytes):endtime nan
scalar BgpDiamondFailover.A.eth[1].mac rxPkOk:vector(packetBytes):count 0
scalar BgpDiamondFailover.A.eth[1].mac rxPkOk:vector(packetBytes):sum 0
scalar BgpDiamondFailover.A.eth[1].mac rxPkOk:vector(packetBytes):sumweights 0
scalar BgpDiamondFailover.A.eth[1].mac rxPkOk:vector(packetBytes):mean nan
scalar BgpDiamondFailover.A.eth[1].mac rxPkOk:vector(packetBytes):stddev nan
scalar BgpDiamondFailover.A.eth[1].mac rxPkOk:vector(packetBytes):min inf
scalar BgpDiamondFailover.A.eth[1].mac rxPkOk:vector(packetBytes):max -inf
scalar BgpDiamondFailover.A.eth[1].mac rxPkOk:vector(packetBytes):starttime nan
scalar BgpDiamondFailover.A.eth[1].mac rxPkOk:vector(packetBytes):endtime nan
scalar BgpDiamondFailover.A.eth[1].mac passedUpPk:vector(packetBytes):count 0
scalar BgpDiamondFailover.A.eth[1].mac passedUpPk:vector(packetBytes):sum 0
scalar BgpDiamondFailover.A.eth[1].mac passedUpPk:vector(packetBytes):sumweights 0
scalar BgpDiamondFailover.A.eth[1].mac passedUpPk:vector(packetBytes):mean nan
scalar BgpDiamondFailover.A.eth[1].mac passedUpPk:vector(packetBytes):stddev nan
scalar BgpDiamondFailover.A.eth[1].mac passedUpPk:vector(packetBytes):min inf
scalar BgpDiamondFailover.A.eth[1].mac passedUpPk:vector(packetBytes):max -inf
[...]
scalar BgpDiamondFailover.C.tcp.conn-28 rto:vector:count 0
scalar BgpDiamondFailover.C.tcp.conn-28 rto:vector:sum 0
scalar BgpDiamondFailover.C.tcp.conn-28 rto:vector:sumweights 0
scalar BgpDiamondFailover.C.tcp.conn-28 rto:vector:mean nan
scalar BgpDiamondFailover.C.tcp.conn-28 rto:vector:stddev nan
scalar BgpDiamondFailover.C.tcp.conn-28 rto:vector:min inf
scalar BgpDiamondFailover.C.tcp.conn-28 rto:vector:max -inf
scalar BgpDiamondFailover.C.tcp.conn-28 rto:vector:starttime nan
scalar BgpDiamondFailover.C.tcp.conn-28 rto:vector:endtime nan
scalar BgpDiamondFailover.C.tcp.conn-28 numRtos:vector:count 0
scalar BgpDiamondFailover.C.tcp.conn-28 numRtos:vector:sum 0
scalar BgpDiamondFailover.C.tcp.conn-28 numRtos:vector:sumweights 0
scalar BgpDiamondFailover.C.tcp.conn-28 numRtos:vector:mean nan
scalar BgpDiamondFailover.C.tcp.conn-28 numRtos:vector:stddev nan
scalar BgpDiamondFailover.C.tcp.conn-28 numRtos:vector:min inf
scalar BgpDiamondFailover.C.tcp.conn-28 numRtos:vector:max -inf
scalar BgpDiamondFailover.C.tcp.conn-28 numRtos:vector:starttime nan
scalar BgpDiamondFailover.C.tcp.conn-28 numRtos:vector:endtime nan
scalar BgpDiamondFailover.C.tcp.conn-28 load:vector:count 0
scalar BgpDiamondFailover.C.tcp.conn-28 load:vector:sum 0
scalar BgpDiamondFailover.C.tcp.conn-28 load:vector:sumweights 0
scalar BgpDiamondFailover.C.tcp.conn-28 load:vector:mean nan
scalar BgpDiamondFailover.C.tcp.conn-28 load:vector:stddev nan
scalar BgpDiamondFailover.C.tcp.conn-28 load:vector:min inf
scalar BgpDiamondFailover.C.tcp.conn-28 load:vector:max -inf
scalar BgpDiamondFailover.C.tcp.conn-28 load:vector:starttime nan
scalar BgpDiamondFailover.C.tcp.conn-28 load:vector:endtime nan
scalar BgpDiamondFailover.C.tcp.conn-28 calcLoad:vector:count 0
scalar BgpDiamondFailover.C.tcp.conn-28 calcLoad:vector:sum 0
scalar BgpDiamondFailover.C.tcp.conn-28 calcLoad:vector:sumweights 0
scalar BgpDiamondFailover.C.tcp.conn-28 calcLoad:vector:mean nan
scalar BgpDiamondFailover.C.tcp.conn-28 calcLoad:vector:stddev nan
scalar BgpDiamondFailover.C.tcp.conn-28 calcLoad:vector:min inf
scalar BgpDiamondFailover.C.tcp.conn-28 calcLoad:vector:max -inf
scalar BgpDiamondFailover.C.tcp.conn-28 calcLoad:vector:starttime nan
scalar BgpDiamondFailover.C.tcp.conn-28 calcLoad:vector:endtime nan
scalar BgpDiamondFailover.C.tcp.conn-28 markingProb:vector:count 0
scalar BgpDiamondFailover.C.tcp.conn-28 markingProb:vector:sum 0
scalar BgpDiamondFailover.C.tcp.conn-28 markingProb:vector:sumweights 0
scalar BgpDiamondFailover.C.tcp.conn-28 markingProb:vector:mean nan
scalar BgpDiamondFailover.C.tcp.conn-28 markingProb:vector:stddev nan
scalar BgpDiamondFailover.C.tcp.conn-28 markingProb:vector:min inf
scalar BgpDiamondFailover.C.tcp.conn-28 markingProb:vector:max -inf
scalar BgpDiamondFailover.C.tcp.conn-28 markingProb:vector:starttime nan
scalar BgpDiamondFailover.C.tcp.conn-28 markingProb:vector:endtime nan
scalar BgpDiamondFailover.A.tcp.conn-29 state:vector:count 0
scalar BgpDiamondFailover.A.tcp.conn-29 state:vector:sum 0
scalar BgpDiamondFailover.A.tcp.conn-29 state:vector:sumweights 0
scalar BgpDiamondFailover.A.tcp.conn-29 state:vector:mean nan
scalar BgpDiamondFailover.A.tcp.conn-29 state:vector:stddev nan
scalar BgpDiamondFailover.A.tcp.conn-29 state:vector:min inf
scalar BgpDiamondFailover.A.tcp.conn-29 state:vector:max -inf
scalar BgpDiamondFailover.A.tcp.conn-29 state:vector:starttime nan
scalar BgpDiamondFailover.A.tcp.conn-29 state:vector:endtime nan
scalar BgpDiamondFailover.A.tcp.conn-29 sndWnd:vector:count 0
scalar BgpDiamondFailover.A.tcp.conn-29 sndWnd:vector:sum 0
scalar BgpDiamondFailover.A.tcp.conn-29 sndWnd:vector:sumweights 0
scalar BgpDiamondFailover.A.tcp.conn-29 sndWnd:vector:mean nan
scalar BgpDiamondFailover.A.tcp.conn-29 sndWnd:vector:stddev nan
scalar BgpDiamondFailover.A.tcp.conn-29 sndWnd:vector:min inf
scalar BgpDiamondFailover.A.tcp.conn-29 sndWnd:vector:max -inf
scalar BgpDiamondFailover.A.tcp.conn-29 sndWnd:vector:starttime nan
scalar BgpDiamondFailover.A.tcp.conn-29 sndWnd:vector:endtime nan
scalar BgpDiamondFailover.A.tcp.conn-29 rcvWnd:vector:count 0
scalar BgpDiamondFailover.A.tcp.conn-29 rcvWnd:vector:sum 0
scalar BgpDiamondFailover.A.tcp.conn-29 rcvWnd:vector:sumweights 0
scalar BgpDiamondFailover.A.tcp.conn-29 rcvWnd:vector:mean nan
scalar BgpDiamondFailover.A.tcp.conn-29 rcvWnd:vector:stddev nan
scalar BgpDiamondFailover.A.tcp.conn-29 rcvWnd:vector:min inf
scalar BgpDiamondFailover.A.tcp.conn-29 rcvWnd:vector:max -inf
scalar BgpDiamondFailover.A.tcp.conn-29 rcvWnd:vector:starttime nan
scalar BgpDiamondFailover.A.tcp.conn-29 rcvWnd:vector:endtime nan
scalar BgpDiamondFailover.A.tcp.conn-29 rcvAdv:vector:count 0
scalar BgpDiamondFailover.A.tcp.conn-29 rcvAdv:vector:sum 0
scalar BgpDiamondFailover.A.tcp.conn-29 rcvAdv:vector:sumweights 0
scalar BgpDiamondFailover.A.tcp.conn-29 rcvAdv:vector:mean nan
scalar BgpDiamondFailover.A.tcp.conn-29 rcvAdv:vector:stddev nan
scalar BgpDiamondFailover.A.tcp.conn-29 rcvAdv:vector:min inf
scalar BgpDiamondFailover.A.tcp.conn-29 rcvAdv:vector:max -inf
scalar BgpDiamondFailover.A.tcp.conn-29 rcvAdv:vector:starttime nan
scalar BgpDiamondFailover.A.tcp.conn-29 rcvAdv:vector:endtime nan
scalar BgpDiamondFailover.A.tcp.conn-29 sndNxt:vector:count 0
scalar BgpDiamondFailover.A.tcp.conn-29 sndNxt:vector:sum 0
scalar BgpDiamondFailover.A.tcp.conn-29 sndNxt:vector:sumweights 0
scalar BgpDiamondFailover.A.tcp.conn-29 sndNxt:vector:mean nan
scalar BgpDiamondFailover.A.tcp.conn-29 sndNxt:vector:stddev nan
scalar BgpDiamondFailover.A.tcp.conn-29 sndNxt:vector:min inf
scalar BgpDiamondFailover.A.tcp.conn-29 sndNxt:vector:max -inf
scalar BgpDiamondFailover.A.tcp.conn-29 sndNxt:vector:starttime nan
scalar BgpDiamondFailover.A.tcp.conn-29 sndNxt:vector:endtime nan
scalar BgpDiamondFailover.A.tcp.conn-29 sndAck:vector:count 0
scalar BgpDiamondFailover.A.tcp.conn-29 sndAck:vector:sum 0
scalar BgpDiamondFailover.A.tcp.conn-29 sndAck:vector:sumweights 0
scalar BgpDiamondFailover.A.tcp.conn-29 sndAck:vector:mean nan
scalar BgpDiamondFailover.A.tcp.conn-29 sndAck:vector:stddev nan
scalar BgpDiamondFailover.A.tcp.conn-29 sndAck:vector:min inf
scalar BgpDiamondFailover.A.tcp.conn-29 sndAck:vector:max -inf
scalar BgpDiamondFailover.A.tcp.conn-29 sndAck:vector:starttime nan
scalar BgpDiamondFailover.A.tcp.conn-29 sndAck:vector:endtime nan
scalar BgpDiamondFailover.A.tcp.conn-29 rcvSeq:vector:count 0
scalar BgpDiamondFailover.A.tcp.conn-29 rcvSeq:vector:sum 0
scalar BgpDiamondFailover.A.tcp.conn-29 rcvSeq:vector:sumweights 0
scalar BgpDiamondFailover.A.tcp.conn-29 rcvSeq:vector:mean nan
scalar BgpDiamondFailover.A.tcp.conn-29 rcvSeq:vector:stddev nan
scalar BgpDiamondFailover.A.tcp.conn-29 rcvSeq:vector:min inf
scalar BgpDiamondFailover.A.tcp.conn-29 rcvSeq:vector:max -inf
scalar BgpDiamondFailover.A.tcp.conn-29 rcvSeq:vector:starttime nan
scalar BgpDiamondFailover.A.tcp.conn-29 rcvSeq:vector:endtime nan
scalar BgpDiamondFailover.A.tcp.conn-29 rcvAck:vector:count 0
scalar BgpDiamondFailover.A.tcp.conn-29 rcvAck:vector:sum 0
scalar BgpDiamondFailover.A.tcp.conn-29 rcvAck:vector:sumweights 0
scalar BgpDiamondFailover.A.tcp.conn-29 rcvAck:vector:mean nan
scalar BgpDiamondFailover.A.tcp.conn-29 rcvAck:vector:stddev nan
scalar BgpDiamondFailover.A.tcp.conn-29 rcvAck:vector:min inf
scalar BgpDiamondFailover.A.tcp.conn-29 rcvAck:vector:max -inf
scalar BgpDiamondFailover.A.tcp.conn-29 rcvAck:vector:starttime nan
scalar BgpDiamondFailover.A.tcp.conn-29 rcvAck:vector:endtime nan
scalar BgpDiamondFailover.A.tcp.conn-29 unacked:vector:count 0
scalar BgpDiamondFailover.A.tcp.conn-29 unacked:vector:sum 0
scalar BgpDiamondFailover.A.tcp.conn-29 unacked:vector:sumweights 0
scalar BgpDiamondFailover.A.tcp.conn-29 unacked:vector:mean nan
scalar BgpDiamondFailover.A.tcp.conn-29 unacked:vector:stddev nan
scalar BgpDiamondFailover.A.tcp.conn-29 unacked:vector:min inf
scalar BgpDiamondFailover.A.tcp.conn-29 unacked:vector:max -inf
scalar BgpDiamondFailover.A.tcp.conn-29 unacked:vector:starttime nan
scalar BgpDiamondFailover.A.tcp.conn-29 unacked:vector:endtime nan
scalar BgpDiamondFailover.A.tcp.conn-29 dupAcks:vector:count 0
scalar BgpDiamondFailover.A.tcp.conn-29 dupAcks:vector:sum 0
scalar BgpDiamondFailover.A.tcp.conn-29 dupAcks:vector:sumweights 0
scalar BgpDiamondFailover.A.tcp.conn-29 dupAcks:vector:mean nan
scalar BgpDiamondFailover.A.tcp.conn-29 dupAcks:vector:stddev nan
scalar BgpDiamondFailover.A.tcp.conn-29 dupAcks:vector:min inf
scalar BgpDiamondFailover.A.tcp.conn-29 dupAcks:vector:max -inf
scalar BgpDiamondFailover.A.tcp.conn-29 dupAcks:vector:starttime nan
scalar BgpDiamondFailover.A.tcp.conn-29 dupAcks:vector:endtime nan
scalar BgpDiamondFailover.A.tcp.conn-29 pipe:vector:count 0
scalar BgpDiamondFailover.A.tcp.conn-29 pipe:vector:sum 0
scalar BgpDiamondFailover.A.tcp.conn-29 pipe:vector:sumweights 0
scalar BgpDiamondFailover.A.tcp.conn-29 pipe:vector:mean nan
scalar BgpDiamondFailover.A.tcp.conn-29 pipe:vector:stddev nan
scalar BgpDiamondFailover.A.tcp.conn-29 pipe:vector:min inf
scalar BgpDiamondFailover.A.tcp.conn-29 pipe:vector:max -inf
scalar BgpDiamondFailover.A.tcp.conn-29 pipe:vector:starttime nan
scalar BgpDiamondFailover.A.tcp.conn-29 pipe:vector:endtime nan
scalar BgpDiamondFailover.A.tcp.conn-29 sndSacks:vector:count 0
scalar BgpDiamondFailover.A.tcp.conn-29 sndSacks:vector:sum 0
scalar BgpDiamondFailover.A.tcp.conn-29 sndSacks:vector:sumweights 0
scalar BgpDiamondFailover.A.tcp.conn-29 sndSacks:vector:mean nan
scalar BgpDiamondFailover.A.tcp.conn-29 sndSacks:vector:stddev nan
scalar BgpDiamondFailover.A.tcp.conn-29 sndSacks:vector:min inf
scalar BgpDiamondFailover.A.tcp.conn-29 sndSacks:vector:max -inf
scalar BgpDiamondFailover.A.tcp.conn-29 sndSacks:vector:starttime nan
scalar BgpDiamondFailover.A.tcp.conn-29 sndSacks:vector:endtime nan
scalar BgpDiamondFailover.A.tcp.conn-29 rcvSacks:vector:count 0
scalar BgpDiamondFailover.A.tcp.conn-29 rcvSacks:vector:sum 0
scalar BgpDiamondFailover.A.tcp.conn-29 rcvSacks:vector:sumweights 0
scalar BgpDiamondFailover.A.tcp.conn-29 rcvSacks:vector:mean nan
scalar BgpDiamondFailover.A.tcp.conn-29 rcvSacks:vector:stddev nan
scalar BgpDiamondFailover.A.tcp.conn-29 rcvSacks:vector:min inf
scalar BgpDiamondFailover.A.tcp.conn-29 rcvSacks:vector:max -inf
scalar BgpDiamondFailover.A.tcp.conn-29 rcvSacks:vector:starttime nan
scalar BgpDiamondFailover.A.tcp.conn-29 rcvSacks:vector:endtime nan
scalar BgpDiamondFailover.A.tcp.conn-29 rcvOooSeg:vector:count 0
scalar BgpDiamondFailover.A.tcp.conn-29 rcvOooSeg:vector:sum 0
scalar BgpDiamondFailover.A.tcp.conn-29 rcvOooSeg:vector:sumweights 0
scalar BgpDiamondFailover.A.tcp.conn-29 rcvOooSeg:vector:mean nan
scalar BgpDiamondFailover.A.tcp.conn-29 rcvOooSeg:vector:stddev nan
scalar BgpDiamondFailover.A.tcp.conn-29 rcvOooSeg:vector:min inf
scalar BgpDiamondFailover.A.tcp.conn-29 rcvOooSeg:vector:max -inf
scalar BgpDiamondFailover.A.tcp.conn-29 rcvOooSeg:vector:starttime nan
scalar BgpDiamondFailover.A.tcp.conn-29 rcvOooSeg:vector:endtime nan
scalar BgpDiamondFailover.A.tcp.conn-29 rcvNASeg:vector:count 0
scalar BgpDiamondFailover.A.tcp.conn-29 rcvNASeg:vector:sum 0
scalar BgpDiamondFailover.A.tcp.conn-29 rcvNASeg:vector:sumweights 0
scalar BgpDiamondFailover.A.tcp.conn-29 rcvNASeg:vector:mean nan
scalar BgpDiamondFailover.A.tcp.conn-29 rcvNASeg:vector:stddev nan
scalar BgpDiamondFailover.A.tcp.conn-29 rcvNASeg:vector:min inf
scalar BgpDiamondFailover.A.tcp.conn-29 rcvNASeg:vector:max -inf
scalar BgpDiamondFailover.A.tcp.conn-29 rcvNASeg:vector:starttime nan
scalar BgpDiamondFailover.A.tcp.conn-29 rcvNASeg:vector:endtime nan
scalar BgpDiamondFailover.A.tcp.conn-29 sackedBytes:vector:count 0
scalar BgpDiamondFailover.A.tcp.conn-29 sackedBytes:vector:sum 0
scalar BgpDiamondFailover.A.tcp.conn-29 sackedBytes:vector:sumweights 0
scalar BgpDiamondFailover.A.tcp.conn-29 sackedBytes:vector:mean nan
scalar BgpDiamondFailover.A.tcp.conn-29 sackedBytes:vector:stddev nan
scalar BgpDiamondFailover.A.tcp.conn-29 sackedBytes:vector:min inf
scalar BgpDiamondFailover.A.tcp.conn-29 sackedBytes:vector:max -inf
scalar BgpDiamondFailover.A.tcp.conn-29 sackedBytes:vector:starttime nan
scalar BgpDiamondFailover.A.tcp.conn-29 sackedBytes:vector:endtime nan
scalar BgpDiamondFailover.A.tcp.conn-29 tcpRcvQueueBytes:vector:count 0
scalar BgpDiamondFailover.A.tcp.conn-29 tcpRcvQueueBytes:vector:sum 0
scalar BgpDiamondFailover.A.tcp.conn-29 tcpRcvQueueBytes:vector:sumweights 0
scalar BgpDiamondFailover.A.tcp.conn-29 tcpRcvQueueBytes:vector:mean nan
scalar BgpDiamondFailover.A.tcp.conn-29 tcpRcvQueueBytes:vector:stddev nan
scalar BgpDiamondFailover.A.tcp.conn-29 tcpRcvQueueBytes:vector:min inf
scalar BgpDiamondFailover.A.tcp.conn-29 tcpRcvQueueBytes:vector:max -inf
scalar BgpDiamondFailover.A.tcp.conn-29 tcpRcvQueueBytes:vector:starttime nan
scalar BgpDiamondFailover.A.tcp.conn-29 tcpRcvQueueBytes:vector:endtime nan
scalar BgpDiamondFailover.A.tcp.conn-29 tcpRcvQueueDrops:vector:count 0
scalar BgpDiamondFailover.A.tcp.conn-29 tcpRcvQueueDrops:vector:sum 0
scalar BgpDiamondFailover.A.tcp.conn-29 tcpRcvQueueDrops:vector:sumweights 0
scalar BgpDiamondFailover.A.tcp.conn-29 tcpRcvQueueDrops:vector:mean nan
scalar BgpDiamondFailover.A.tcp.conn-29 tcpRcvQueueDrops:vector:stddev nan
scalar BgpDiamondFailover.A.tcp.conn-29 tcpRcvQueueDrops:vector:min inf
scalar BgpDiamondFailover.A.tcp.conn-29 tcpRcvQueueDrops:vector:max -inf
scalar BgpDiamondFailover.A.tcp.conn-29 tcpRcvQueueDrops:vector:starttime nan
scalar BgpDiamondFailover.A.tcp.conn-29 tcpRcvQueueDrops:vector:endtime nan
scalar BgpDiamondFailover.A.tcp.conn-29 tcpRcvPayloadBytes:vector:count 0
scalar BgpDiamondFailover.A.tcp.conn-29 tcpRcvPayloadBytes:vector:sum 0
scalar BgpDiamondFailover.A.tcp.conn-29 tcpRcvPayloadBytes:vector:sumweights 0
scalar BgpDiamondFailover.A.tcp.conn-29 tcpRcvPayloadBytes:vector:mean nan
scalar BgpDiamondFailover.A.tcp.conn-29 tcpRcvPayloadBytes:vector:stddev nan
scalar BgpDiamondFailover.A.tcp.conn-29 tcpRcvPayloadBytes:vector:min inf
scalar BgpDiamondFailover.A.tcp.conn-29 tcpRcvPayloadBytes:vector:max -inf
scalar BgpDiamondFailover.A.tcp.conn-29 tcpRcvPayloadBytes:vector:starttime nan
scalar BgpDiamondFailover.A.tcp.conn-29 tcpRcvPayloadBytes:vector:endtime nan
scalar BgpDiamondFailover.A.tcp.conn-29 cwnd:vector:count 0
scalar BgpDiamondFailover.A.tcp.conn-29 cwnd:vector:sum 0
scalar BgpDiamondFailover.A.tcp.conn-29 cwnd:vector:sumweights 0
scalar BgpDiamondFailover.A.tcp.conn-29 cwnd:vector:mean nan
scalar BgpDiamondFailover.A.tcp.conn-29 cwnd:vector:stddev nan
scalar BgpDiamondFailover.A.tcp.conn-29 cwnd:vector:min inf
scalar BgpDiamondFailover.A.tcp.conn-29 cwnd:vector:max -inf
scalar BgpDiamondFailover.A.tcp.conn-29 cwnd:vector:starttime nan
scalar BgpDiamondFailover.A.tcp.conn-29 cwnd:vector:endtime nan
scalar BgpDiamondFailover.A.tcp.conn-29 ssthresh:vector:count 0
scalar BgpDiamondFailover.A.tcp.conn-29 ssthresh:vector:sum 0
scalar BgpDiamondFailover.A.tcp.conn-29 ssthresh:vector:sumweights 0
scalar BgpDiamondFailover.A.tcp.conn-29 ssthresh:vector:mean nan
scalar BgpDiamondFailover.A.tcp.conn-29 ssthresh:vector:stddev nan
scalar BgpDiamondFailover.A.tcp.conn-29 ssthresh:vector:min inf
scalar BgpDiamondFailover.A.tcp.conn-29 ssthresh:vector:max -inf
scalar BgpDiamondFailover.A.tcp.conn-29 ssthresh:vector:starttime nan
scalar BgpDiamondFailover.A.tcp.conn-29 ssthresh:vector:endtime nan
scalar BgpDiamondFailover.A.tcp.conn-29 rtt:vector:count 0
scalar BgpDiamondFailover.A.tcp.conn-29 rtt:vector:sum 0
scalar BgpDiamondFailover.A.tcp.conn-29 rtt:vector:sumweights 0
scalar BgpDiamondFailover.A.tcp.conn-29 rtt:vector:mean nan
scalar BgpDiamondFailover.A.tcp.conn-29 rtt:vector:stddev nan
scalar BgpDiamondFailover.A.tcp.conn-29 rtt:vector:min inf
scalar BgpDiamondFailover.A.tcp.conn-29 rtt:vector:max -inf
scalar BgpDiamondFailover.A.tcp.conn-29 rtt:vector:starttime nan
scalar BgpDiamondFailover.A.tcp.conn-29 rtt:vector:endtime nan
scalar BgpDiamondFailover.A.tcp.conn-29 srtt:vector:count 0
scalar BgpDiamondFailover.A.tcp.conn-29 srtt:vector:sum 0
scalar BgpDiamondFailover.A.tcp.conn-29 srtt:vector:sumweights 0
scalar BgpDiamondFailover.A.tcp.conn-29 srtt:vector:mean nan
scalar BgpDiamondFailover.A.tcp.conn-29 srtt:vector:stddev nan
scalar BgpDiamondFailover.A.tcp.conn-29 srtt:vector:min inf
scalar BgpDiamondFailover.A.tcp.conn-29 srtt:vector:max -inf
scalar BgpDiamondFailover.A.tcp.conn-29 srtt:vector:starttime nan
scalar BgpDiamondFailover.A.tcp.conn-29 srtt:vector:endtime nan
scalar BgpDiamondFailover.A.tcp.conn-29 rttvar:vector:count 0
scalar BgpDiamondFailover.A.tcp.conn-29 rttvar:vector:sum 0
scalar BgpDiamondFailover.A.tcp.conn-29 rttvar:vector:sumweights 0
scalar BgpDiamondFailover.A.tcp.conn-29 rttvar:vector:mean nan
scalar BgpDiamondFailover.A.tcp.conn-29 rttvar:vector:stddev nan
scalar BgpDiamondFailover.A.tcp.conn-29 rttvar:vector:min inf
scalar BgpDiamondFailover.A.tcp.conn-29 rttvar:vector:max -inf
scalar BgpDiamondFailover.A.tcp.conn-29 rttvar:vector:starttime nan
scalar BgpDiamondFailover.A.tcp.conn-29 rttvar:vector:endtime nan
scalar BgpDiamondFailover.A.tcp.conn-29 rto:vector:count 0
scalar BgpDiamondFailover.A.tcp.conn-29 rto:vector:sum 0
scalar BgpDiamondFailover.A.tcp.conn-29 rto:vector:sumweights 0
scalar BgpDiamondFailover.A.tcp.conn-29 rto:vector:mean nan
scalar BgpDiamondFailover.A.tcp.conn-29 rto:vector:stddev nan
scalar BgpDiamondFailover.A.tcp.conn-29 rto:vector:min inf
scalar BgpDiamondFailover.A.tcp.conn-29 rto:vector:max -inf
scalar BgpDiamondFailover.A.tcp.conn-29 rto:vector:starttime nan
scalar BgpDiamondFailover.A.tcp.conn-29 rto:vector:endtime nan
scalar BgpDiamondFailover.A.tcp.conn-29 numRtos:vector:count 0
scalar BgpDiamondFailover.A.tcp.conn-29 numRtos:vector:sum 0
scalar BgpDiamondFailover.A.tcp.conn-29 numRtos:vector:sumweights 0
scalar BgpDiamondFailover.A.tcp.conn-29 numRtos:vector:mean nan
scalar BgpDiamondFailover.A.tcp.conn-29 numRtos:vector:stddev nan
scalar BgpDiamondFailover.A.tcp.conn-29 numRtos:vector:min inf
scalar BgpDiamondFailover.A.tcp.conn-29 numRtos:vector:max -inf
scalar BgpDiamondFailover.A.tcp.conn-29 numRtos:vector:starttime nan
scalar BgpDiamondFailover.A.tcp.conn-29 numRtos:vector:endtime nan
scalar BgpDiamondFailover.A.tcp.conn-29 load:vector:count 0
scalar BgpDiamondFailover.A.tcp.conn-29 load:vector:sum 0
scalar BgpDiamondFailover.A.tcp.conn-29 load:vector:sumweights 0
scalar BgpDiamondFailover.A.tcp.conn-29 load:vector:mean nan
scalar BgpDiamondFailover.A.tcp.conn-29 load:vector:stddev nan
scalar BgpDiamondFailover.A.tcp.conn-29 load:vector:min inf
scalar BgpDiamondFailover.A.tcp.conn-29 load:vector:max -inf
scalar BgpDiamondFailover.A.tcp.conn-29 load:vector:starttime nan
scalar BgpDiamondFailover.A.tcp.conn-29 load:vector:endtime nan
scalar BgpDiamondFailover.A.tcp.conn-29 calcLoad:vector:count 0
scalar BgpDiamondFailover.A.tcp.conn-29 calcLoad:vector:sum 0
scalar BgpDiamondFailover.A.tcp.conn-29 calcLoad:vector:sumweights 0
scalar BgpDiamondFailover.A.tcp.conn-29 calcLoad:vector:mean nan
scalar BgpDiamondFailover.A.tcp.conn-29 calcLoad:vector:stddev nan
scalar BgpDiamondFailover.A.tcp.conn-29 calcLoad:vector:min inf
scalar BgpDiamondFailover.A.tcp.conn-29 calcLoad:vector:max -inf
scalar BgpDiamondFailover.A.tcp.conn-29 calcLoad:vector:starttime nan
scalar BgpDiamondFailover.A.tcp.conn-29 calcLoad:vector:endtime nan
scalar BgpDiamondFailover.A.tcp.conn-29 markingProb:vector:count 0
scalar BgpDiamondFailover.A.tcp.conn-29 markingProb:vector:sum 0
scalar BgpDiamondFailover.A.tcp.conn-29 markingProb:vector:sumweights 0
scalar BgpDiamondFailover.A.tcp.conn-29 markingProb:vector:mean nan
scalar BgpDiamondFailover.A.tcp.conn-29 markingProb:vector:stddev nan
scalar BgpDiamondFailover.A.tcp.conn-29 markingProb:vector:min inf
scalar BgpDiamondFailover.A.tcp.conn-29 markingProb:vector:max -inf
scalar BgpDiamondFailover.A.tcp.conn-29 markingProb:vector:starttime nan
scalar BgpDiamondFailover.A.tcp.conn-29 markingProb:vector:endtime nan

