version 3
run SCTP-with-OLIA-0-20260206-21:54:00-3558372
attr configname SCTP-with-OLIA
attr datetime 20260206-21:54:00
attr datetimef 20260206-215400
attr experiment SCTP-with-OLIA
attr inifile omnetpp.ini
attr iterationvars "$N1=fullPath(), $N2=fullPath(), $alphaMainClientNetPerfMeterID=ancestorIndex(0), $alphaMainClientID=ancestorIndex(1), $alphaMainServerNetPerfMeterID=ancestorIndex(0)"
attr iterationvarsd N1=fullPath()/N2=fullPath()/alphaMainClientNetPerfMeterID=ancestorIndex(0)/alphaMainClientID=ancestorIndex(1)/alphaMainServerNetPerfMeterID=ancestorIndex(0)
attr iterationvarsf N1=fullPath(),N2=fullPath(),alphaMainClientNetPerfMeterID=ancestorIndex(0),alphaMainClientID=ancestorIndex(1),alphaMainServerNetPerfMeterID=ancestorIndex(0)-
attr measurement "$N1=fullPath(), $N2=fullPath(), $alphaMainClientNetPerfMeterID=ancestorIndex(0), $alphaMainClientID=ancestorIndex(1), $alphaMainServerNetPerfMeterID=ancestorIndex(0)"
attr network testNetwork
attr processid 3558372
attr repetition 0
attr replication #0
attr resultdir results
attr runnumber 0
attr seedset 0
itervar N1 fullPath()
itervar N2 fullPath()
itervar alphaMainClientID ancestorIndex(1)
itervar alphaMainClientNetPerfMeterID ancestorIndex(0)
itervar alphaMainServerNetPerfMeterID ancestorIndex(0)
config **.param-recording false
config image-path /home/attila/projects/inet/images
config output-scalar-file results/omnetpp.ini-SCTP-with-OLIA-#0.sca
config output-scalar-precision 17
config output-vector-file results/omnetpp.ini-SCTP-with-OLIA-#0.vec
config output-vector-precision 17
config record-eventlog false
config sim-time-limit 30s
config sim-time-limit 30s
config testNetwork.systems 1
config testNetwork.*[*].app[*].protocol "\"SCTP\""
config testNetwork.*.sctp.arwnd 500000
config testNetwork.*.sctp.cmtSendAllVariant "\"smallestLastTransmission\""
config testNetwork.*.sctp.cmtRetransmissionVariant "\"normal\""
config testNetwork.*.sctp.cmtBufferSplitVariant "\"bothSides\""
config testNetwork.*.sctp.cmtBufferSplittingUsesOSB true
config testNetwork.*.sctp.cmtCUCVariant "\"pseudoCumAckV2\""
config testNetwork.*.sctp.cmtUseSFR true
config testNetwork.*.sctp.cmtUseDAC true
config testNetwork.*.sctp.cmtUseFRC true
config testNetwork.*.sctp.cmtCCVariant "\"olia\""
config testNetwork.*.sctp.cmtCCPathGroups "\"\""
config testNetwork.*.sctp.cmtSackPath "\"smallestSRTT\""
config testNetwork.*.sctp.nrSack true
config testNetwork.*.sctp.disableReneging false
config testNetwork.*.sctp.gapReportLimit 100000000
config testNetwork.*.sctp.gapListOptimizationVariant "\"none\""
config testNetwork.*.sctp.smartOverfullSACKHandling true
config testNetwork.*.sctp.strictCwndBooking false
config testNetwork.*.sctp.osbWithHeader false
config testNetwork.*.sctp.sackNow true
config testNetwork.*.sctp.packetDrop false
config testNetwork.*.sctp.highSpeedCC false
config testNetwork.*.sctp.maxBurst 4
config testNetwork.*.sctp.maxBurstVariant "\"maxBurst\""
config testNetwork.*.sctp.initialWindow 0
config testNetwork.*.sctp.cmtSmartT3Reset true
config testNetwork.*.sctp.cmtSmartReneging true
config testNetwork.*.sctp.cmtSmartFastRTX true
config testNetwork.*.sctp.cmtSlowPathRTTUpdate true
config testNetwork.*.sctp.cmtMovedChunksReduceCwnd true
config testNetwork.*.sctp.movedChunkFastRTXFactor 2
config testNetwork.*.sctp.streamsToPaths "\"\""
config testNetwork.*.sctp.RTXMethod 0
config testNetwork.*.sctp.ssModule 0
config network testNetwork
config sim-time-limit 100s
config rng-class cMersenneTwister
config seed-0-mt 1
config sim-time-limit "3600s 1ms"
config simtime-resolution 10ns
config testNetwork.*Main[*].hasSctp true
config testNetwork.**.vector-recording false
config testNetwork.**.vector-recording-intervals 0..3600
config testNetwork.systems 5
config testNetwork.westernCoreRouter.ppp[0].ppp.mtu "1500 B"
config testNetwork.westernCoreRouter.ppp[0].queue.typename inet.examples.inet.netperfmeter.REDQueue
config testNetwork.westernCoreRouter.ppp[0].queue.red.wq 0.002
config testNetwork.westernCoreRouter.ppp[0].queue.red.minth 30
config testNetwork.westernCoreRouter.ppp[0].queue.red.maxth 90
config testNetwork.westernCoreRouter.ppp[0].queue.red.maxp 0.1
config testNetwork.westernCoreRouter.ppp[0].queue.red.pkrate 8333.333
config testNetwork.westernCoreRouter.pppg$o[0].channel.datarate "1e+07 bps"
config testNetwork.westernCoreRouter.pppg$o[0].channel.delay "10 ms"
config testNetwork.westernCoreRouter.pppg$o[0].channel.per 0
config testNetwork.westernCoreRouter.pppg$o[0].channel.ber 0
config testNetwork.easternCoreRouter.ppp[0].ppp.mtu "1500 B"
config testNetwork.easternCoreRouter.ppp[0].queue.typename inet.examples.inet.netperfmeter.REDQueue
config testNetwork.easternCoreRouter.ppp[0].queue.red.wq 0.002
config testNetwork.easternCoreRouter.ppp[0].queue.red.minth 30
config testNetwork.easternCoreRouter.ppp[0].queue.red.maxth 90
config testNetwork.easternCoreRouter.ppp[0].queue.red.maxp 0.1
config testNetwork.easternCoreRouter.ppp[0].queue.red.pkrate 8333.333
config testNetwork.easternCoreRouter.pppg$o[0].channel.datarate "1e+07 bps"
config testNetwork.easternCoreRouter.pppg$o[0].channel.delay "10 ms"
config testNetwork.easternCoreRouter.pppg$o[0].channel.per 0
config testNetwork.easternCoreRouter.pppg$o[0].channel.ber 0
config testNetwork.*.ppp[*].ppp.mtu "1500 B"
config testNetwork.**.checksumMode "\"computed\""
config testNetwork.client*[*].app[*].activeMode true
config testNetwork.client*[*].app[*].connectTime "0.001 s"
config testNetwork.client*[*].app[*].startTime uniform(0.9s,1.1s)
config testNetwork.client*[*].app[*].resetTime "19 s"
config testNetwork.client*[*].app[*].stopTime "60 s"
config testNetwork.client*[*].app[*].queueSize "5000000 B"
config testNetwork.client*[*].app[*].unordered 1
config testNetwork.client*[*].app[*].unreliable 0
config testNetwork.client*[*].app[*].outboundStreams 1
config testNetwork.client*[*].app[*].maxMsgSize "1452 B"
config testNetwork.client*[*].app[*].frameRate "0 Hz"
config testNetwork.client*[*].app[*].frameSize "1452 B"
config testNetwork.client*[*].app[*].frameRateString "\"\""
config testNetwork.client*[*].app[*].frameSizeString "\"\""
config testNetwork.client*[*].app[*].onTime -1s
config testNetwork.client*[*].app[*].offTime -1s
config testNetwork.client*[*].numPcapRecorders 1
config testNetwork.client*[*].pcapRecorder[0].pcapFile "\"results/SCTP-with-OLIA-#0-\" + fullPath() + \".pcap\""
config testNetwork.server*[*].app[*].activeMode false
config testNetwork.server*[*].app[*].connectTime "0.001 s"
config testNetwork.server*[*].app[*].startTime uniform(0.9s,1.1s)
config testNetwork.server*[*].app[*].resetTime "19 s"
config testNetwork.server*[*].app[*].stopTime "60 s"
config testNetwork.server*[*].app[*].queueSize "5000000 B"
config testNetwork.server*[*].app[*].unordered 1
config testNetwork.server*[*].app[*].unreliable 0
config testNetwork.server*[*].app[*].maxInboundStreams 16
config testNetwork.server*[*].app[*].frameRate "0 Hz"
config testNetwork.server*[*].app[*].frameSize "0 B"
config testNetwork.server*[*].app[*].frameRateString "\"\""
config testNetwork.server*[*].app[*].frameSizeString "\"\""
config testNetwork.server*[*].app[*].maxMsgSize "1452 B"
config testNetwork.server*[*].numPcapRecorders 1
config testNetwork.server*[*].pcapRecorder[0].pcapFile "\"results/SCTP-with-OLIA-#0-\" + fullPath() + \".pcap\""
config testNetwork.clientMain[*].numApps 1
config testNetwork.clientMain[*].app[*].typename NetPerfMeter
config testNetwork.serverMain[*].numApps 1
config testNetwork.serverMain[*].app[*].typename NetPerfMeter
config testNetwork.clientMain[*].app[*].localPort 20000+ancestorIndex(0)
config testNetwork.clientMain[*].app[*].remotePort 8000+ancestorIndex(0)
config testNetwork.clientMain[*].app[*].remoteAddress "\"testNetwork.serverMain[\" + string(ancestorIndex(1)) + \"]%ppp0\""
config testNetwork.clientMain[*].app[*].primaryPath "\"testNetwork.serverMain[\" + string(ancestorIndex(1)) + \"]%ppp0\""
config testNetwork.serverMain[*].app[*].localPort 8000+ancestorIndex(0)
config testNetwork.*.sctp.arwnd 5000000
config testNetwork.*.sctp.hbInterval "30 s"
config testNetwork.*.sctp.enableHeartbeats true
config testNetwork.*.tcp.typename Tcp
config testNetwork.*.tcp.advertisedWindow 5000000
config testNetwork.*.tcp.mss 1452
config testNetwork.*.tcp.tcpAlgorithmClass "\"TcpReno\""
config testNetwork.*.tcp.sackSupport true
config testNetwork.*.tcp.timestampSupport true
config testNetwork.*.tcp.windowScalingSupport true
config testNetwork.*.tcp.delayedAcksEnabled true
config testNetwork.*.tcp.limitedTransmitEnabled true
config testNetwork.*.tcp.increasedIWEnabled false

scalar testNetwork.westernBorderRouter.lo[0].lo rcvdPkFromHl:count 0
scalar testNetwork.westernBorderRouter.lo[0].lo rcvdPkFromHl:sum(packetBytes) 0
scalar testNetwork.westernBorderRouter.lo[0].lo passedUpPk:count 0
scalar testNetwork.westernBorderRouter.lo[0].lo passedUpPk:sum(packetBytes) 0
scalar testNetwork.westernBorderRouter.lo[0] packetDropInterfaceDown:count 0
scalar testNetwork.westernBorderRouter.lo[0] packetDropInterfaceDown:sum(packetBytes) 0
scalar testNetwork.westernBorderRouter.lo[0] packetDropNoCarrier:count 0
scalar testNetwork.westernBorderRouter.lo[0] packetDropNoCarrier:sum(packetBytes) 0
scalar testNetwork.westernBorderRouter.ppp[0].queue queueLength:last 0
scalar testNetwork.westernBorderRouter.ppp[0].queue queueLength:max 0
scalar testNetwork.westernBorderRouter.ppp[0].queue queueLength:timeavg 0
scalar testNetwork.westernBorderRouter.ppp[0].queue queueBitLength:last 0
scalar testNetwork.westernBorderRouter.ppp[0].queue queueBitLength:max 0
scalar testNetwork.westernBorderRouter.ppp[0].queue queueBitLength:timeavg 0
scalar testNetwork.westernBorderRouter.ppp[0].queue outgoingPackets:count 24037
scalar testNetwork.westernBorderRouter.ppp[0].queue outgoingPacketLengths:sum 288421472
scalar testNetwork.westernBorderRouter.ppp[0].queue incomingPackets:count 24037
scalar testNetwork.westernBorderRouter.ppp[0].queue incomingPacketLengths:sum 288421472
scalar testNetwork.westernBorderRouter.ppp[0].queue droppedPacketsQueueOverflow:count 0
scalar testNetwork.westernBorderRouter.ppp[0].queue droppedPacketLengthsQueueOverflow:sum 0
scalar testNetwork.westernBorderRouter.ppp[0].ppp transmissionState:timeavg 0.0096621226666665019
scalar testNetwork.westernBorderRouter.ppp[0].ppp rxPkOk:count 12540
scalar testNetwork.westernBorderRouter.ppp[0].ppp rxPkOk:sum(packetBytes) 762556
scalar testNetwork.westernBorderRouter.ppp[0].ppp txPk:count 24037
scalar testNetwork.westernBorderRouter.ppp[0].ppp txPk:sum(packetBytes) 36220943
scalar testNetwork.westernBorderRouter.ppp[0].ppp rcvdPkFromHl:count 24037
scalar testNetwork.westernBorderRouter.ppp[0].ppp rcvdPkFromHl:sum(packetBytes) 36052684
scalar testNetwork.westernBorderRouter.ppp[0].ppp passedUpPk:count 12540
scalar testNetwork.westernBorderRouter.ppp[0].ppp passedUpPk:sum(packetBytes) 674776
scalar testNetwork.westernBorderRouter.ppp[0].ppp packetDropIncorrectlyReceived:count 0
scalar testNetwork.westernBorderRouter.ppp[0].ppp packetDropIncorrectlyReceived:sum(packetBytes) 0
scalar testNetwork.westernBorderRouter.ppp[0].ppp packetDropInterfaceDown:count 0
scalar testNetwork.westernBorderRouter.ppp[0].ppp packetDropInterfaceDown:sum(packetBytes) 0
scalar testNetwork.westernBorderRouter.ppp[0] packetDropInterfaceDown:count 0
scalar testNetwork.westernBorderRouter.ppp[0] packetDropInterfaceDown:sum(packetBytes) 0
scalar testNetwork.westernBorderRouter.ppp[0] packetDropNoCarrier:count 0
scalar testNetwork.westernBorderRouter.ppp[0] packetDropNoCarrier:sum(packetBytes) 0
scalar testNetwork.westernBorderRouter.ppp[1].queue queueLength:last 0
scalar testNetwork.westernBorderRouter.ppp[1].queue queueLength:max 0
scalar testNetwork.westernBorderRouter.ppp[1].queue queueLength:timeavg 0
scalar testNetwork.westernBorderRouter.ppp[1].queue queueBitLength:last 0
scalar testNetwork.westernBorderRouter.ppp[1].queue queueBitLength:max 0
scalar testNetwork.westernBorderRouter.ppp[1].queue queueBitLength:timeavg 0
scalar testNetwork.westernBorderRouter.ppp[1].queue outgoingPackets:count 12540
scalar testNetwork.westernBorderRouter.ppp[1].queue outgoingPacketLengths:sum 5398208
scalar testNetwork.westernBorderRouter.ppp[1].queue incomingPackets:count 12540
scalar testNetwork.westernBorderRouter.ppp[1].queue incomingPacketLengths:sum 5398208
scalar testNetwork.westernBorderRouter.ppp[1].queue droppedPacketsQueueOverflow:count 0
scalar testNetwork.westernBorderRouter.ppp[1].queue droppedPacketLengthsQueueOverflow:sum 0
scalar testNetwork.westernBorderRouter.ppp[1].ppp transmissionState:timeavg 0.00020255499999994846
scalar testNetwork.westernBorderRouter.ppp[1].ppp rxPkOk:count 24037
scalar testNetwork.westernBorderRouter.ppp[1].ppp rxPkOk:sum(packetBytes) 36220943
scalar testNetwork.westernBorderRouter.ppp[1].ppp txPk:count 12540
scalar testNetwork.westernBorderRouter.ppp[1].ppp txPk:sum(packetBytes) 762556
scalar testNetwork.westernBorderRouter.ppp[1].ppp rcvdPkFromHl:count 12540
scalar testNetwork.westernBorderRouter.ppp[1].ppp rcvdPkFromHl:sum(packetBytes) 674776
scalar testNetwork.westernBorderRouter.ppp[1].ppp passedUpPk:count 24037
scalar testNetwork.westernBorderRouter.ppp[1].ppp passedUpPk:sum(packetBytes) 36052684
scalar testNetwork.westernBorderRouter.ppp[1].ppp packetDropIncorrectlyReceived:count 0
scalar testNetwork.westernBorderRouter.ppp[1].ppp packetDropIncorrectlyReceived:sum(packetBytes) 0
scalar testNetwork.westernBorderRouter.ppp[1].ppp packetDropInterfaceDown:count 0
scalar testNetwork.westernBorderRouter.ppp[1].ppp packetDropInterfaceDown:sum(packetBytes) 0
scalar testNetwork.westernBorderRouter.ppp[1] packetDropInterfaceDown:count 0
scalar testNetwork.westernBorderRouter.ppp[1] packetDropInterfaceDown:sum(packetBytes) 0
scalar testNetwork.westernBorderRouter.ppp[1] packetDropNoCarrier:count 0
scalar testNetwork.westernBorderRouter.ppp[1] packetDropNoCarrier:sum(packetBytes) 0
scalar testNetwork.westernBorderRouter.ipv4.ip packetDropAddressResolutionFailed:count 0
scalar testNetwork.westernBorderRouter.ipv4.ip packetDropAddressResolutionFailed:sum(packetBytes) 0
scalar testNetwork.westernBorderRouter.ipv4.ip packetDropHopLimitReached:count 0
scalar testNetwork.westernBorderRouter.ipv4.ip packetDropHopLimitReached:sum(packetBytes) 0
scalar testNetwork.westernBorderRouter.ipv4.ip packetDropForwardingDisabled:count 0
scalar testNetwork.westernBorderRouter.ipv4.ip packetDropForwardingDisabled:sum(packetBytes) 0
scalar testNetwork.westernBorderRouter.ipv4.ip packetDropLifetimeExpired:count 0
scalar testNetwork.westernBorderRouter.ipv4.ip packetDropLifetimeExpired:sum(packetBytes) 0
scalar testNetwork.westernBorderRouter.ipv4.ip packetDropNoInterfaceFound:count 0
scalar testNetwork.westernBorderRouter.ipv4.ip packetDropNoInterfaceFound:sum(packetBytes) 0
scalar testNetwork.westernBorderRouter.ipv4.ip packetDropNoRouteFound:count 0
scalar testNetwork.westernBorderRouter.ipv4.ip packetDropNoRouteFound:sum(packetBytes) 0
scalar testNetwork.westernBorderRouter.ipv4.ip packetDropUndefined:count 0
scalar testNetwork.westernBorderRouter.ipv4.ip packetDropUndefined:sum(packetBytes) 0
scalar testNetwork.westernBorderRouter.ipv4.arp arpResolutionFailed:count 0
scalar testNetwork.westernBorderRouter.ipv4.arp arpResolutionCompleted:count 0
scalar testNetwork.westernBorderRouter.ipv4.arp arpResolutionInitiated:count 0
scalar testNetwork.westernBorderRouter.ipv4.arp arpReplySent:count 0
scalar testNetwork.westernBorderRouter.ipv4.arp arpReplySent:sum(packetBytes) 0
scalar testNetwork.westernBorderRouter.ipv4.arp arpRequestSent:count 0
scalar testNetwork.westernBorderRouter.ipv4.arp arpRequestSent:sum(packetBytes) 0
scalar testNetwork.westernCoreRouter.lo[0].lo rcvdPkFromHl:count 0
scalar testNetwork.westernCoreRouter.lo[0].lo rcvdPkFromHl:sum(packetBytes) 0
scalar testNetwork.westernCoreRouter.lo[0].lo passedUpPk:count 0
scalar testNetwork.westernCoreRouter.lo[0].lo passedUpPk:sum(packetBytes) 0
scalar testNetwork.westernCoreRouter.lo[0] packetDropInterfaceDown:count 0
scalar testNetwork.westernCoreRouter.lo[0] packetDropInterfaceDown:sum(packetBytes) 0
scalar testNetwork.westernCoreRouter.lo[0] packetDropNoCarrier:count 0
scalar testNetwork.westernCoreRouter.lo[0] packetDropNoCarrier:sum(packetBytes) 0
scalar testNetwork.westernCoreRouter.ppp[0].queue.red outgoingPackets:count 23930
scalar testNetwork.westernCoreRouter.ppp[0].queue.red outgoingPacketLengths:sum 287137472
scalar testNetwork.westernCoreRouter.ppp[0].queue.red flowOutgoingPacketLengths:sum 0
scalar testNetwork.westernCoreRouter.ppp[0].queue.red incomingPackets:count 24037
scalar testNetwork.westernCoreRouter.ppp[0].queue.red incomingPacketLengths:sum 288421472
scalar testNetwork.westernCoreRouter.ppp[0].queue.red flowIncomingPacketLengths:sum 0
scalar testNetwork.westernCoreRouter.ppp[0].queue.red droppedPackets:count 107
scalar testNetwork.westernCoreRouter.ppp[0].queue.red droppedPacketLengths:sum 1284000
scalar testNetwork.westernCoreRouter.ppp[0].queue.red flowDroppedPacketLengths:sum 0
scalar testNetwork.westernCoreRouter.ppp[0].queue.red packetDropCongestion:count 0
scalar testNetwork.westernCoreRouter.ppp[0].queue.red packetDropCongestion:sum(packetBytes) 0
scalar testNetwork.westernCoreRouter.ppp[0].queue.fifo queueLength:last 22
scalar testNetwork.westernCoreRouter.ppp[0].queue.fifo queueLength:max 90
scalar testNetwork.westernCoreRouter.ppp[0].queue.fifo queueLength:timeavg 25.550110608667165
scalar testNetwork.westernCoreRouter.ppp[0].queue.fifo queueBitLength:last 264000
scalar testNetwork.westernCoreRouter.ppp[0].queue.fifo queueBitLength:max 1080000
scalar testNetwork.westernCoreRouter.ppp[0].queue.fifo queueBitLength:timeavg 306601.32730397966
scalar testNetwork.westernCoreRouter.ppp[0].queue.fifo outgoingPackets:count 23908
scalar testNetwork.westernCoreRouter.ppp[0].queue.fifo outgoingPacketLengths:sum 286873472
scalar testNetwork.westernCoreRouter.ppp[0].queue.fifo incomingPackets:count 23930
scalar testNetwork.westernCoreRouter.ppp[0].queue.fifo incomingPacketLengths:sum 287137472
scalar testNetwork.westernCoreRouter.ppp[0].queue.fifo droppedPacketsQueueOverflow:count 0
scalar testNetwork.westernCoreRouter.ppp[0].queue.fifo droppedPacketLengthsQueueOverflow:sum 0
scalar testNetwork.westernCoreRouter.ppp[0].queue queueLength:last -23908
scalar testNetwork.westernCoreRouter.ppp[0].queue queueLength:max 0
scalar testNetwork.westernCoreRouter.ppp[0].queue queueLength:timeavg -11505.105284900004
scalar testNetwork.westernCoreRouter.ppp[0].queue queueBitLength:last -286873472
scalar testNetwork.westernCoreRouter.ppp[0].queue queueBitLength:max 0
scalar testNetwork.westernCoreRouter.ppp[0].queue queueBitLength:timeavg -138038744.06831285
scalar testNetwork.westernCoreRouter.ppp[0].queue outgoingPackets:count 23908
scalar testNetwork.westernCoreRouter.ppp[0].queue outgoingPacketLengths:sum 286873472
scalar testNetwork.westernCoreRouter.ppp[0].queue incomingPackets:count 0
scalar testNetwork.westernCoreRouter.ppp[0].queue incomingPacketLengths:sum 0
scalar testNetwork.westernCoreRouter.ppp[0].queue droppedPacketsQueueOverflow:count 0
scalar testNetwork.westernCoreRouter.ppp[0].queue droppedPacketLengthsQueueOverflow:sum 0
scalar testNetwork.westernCoreRouter.ppp[0].ppp transmissionState:timeavg 0.96066776266626597
scalar testNetwork.westernCoreRouter.ppp[0].ppp rxPkOk:count 12541
scalar testNetwork.westernCoreRouter.ppp[0].ppp rxPkOk:sum(packetBytes) 762615
scalar testNetwork.westernCoreRouter.ppp[0].ppp txPk:count 23908
scalar testNetwork.westernCoreRouter.ppp[0].ppp txPk:sum(packetBytes) 36026540
scalar testNetwork.westernCoreRouter.ppp[0].ppp rcvdPkFromHl:count 23908
scalar testNetwork.westernCoreRouter.ppp[0].ppp rcvdPkFromHl:sum(packetBytes) 35859184
scalar testNetwork.westernCoreRouter.ppp[0].ppp passedUpPk:count 12541
scalar testNetwork.westernCoreRouter.ppp[0].ppp passedUpPk:sum(packetBytes) 674828
scalar testNetwork.westernCoreRouter.ppp[0].ppp packetDropIncorrectlyReceived:count 0
scalar testNetwork.westernCoreRouter.ppp[0].ppp packetDropIncorrectlyReceived:sum(packetBytes) 0
scalar testNetwork.westernCoreRouter.ppp[0].ppp packetDropInterfaceDown:count 0
scalar testNetwork.westernCoreRouter.ppp[0].ppp packetDropInterfaceDown:sum(packetBytes) 0
scalar testNetwork.westernCoreRouter.ppp[0] packetDropInterfaceDown:count 0
scalar testNetwork.westernCoreRouter.ppp[0] packetDropInterfaceDown:sum(packetBytes) 0
scalar testNetwork.westernCoreRouter.ppp[0] packetDropNoCarrier:count 0
scalar testNetwork.westernCoreRouter.ppp[0] packetDropNoCarrier:sum(packetBytes) 0
scalar testNetwork.westernCoreRouter.ppp[1].queue queueLength:last 0
scalar testNetwork.westernCoreRouter.ppp[1].queue queueLength:max 0
scalar testNetwork.westernCoreRouter.ppp[1].queue queueLength:timeavg 0
scalar testNetwork.westernCoreRouter.ppp[1].queue queueBitLength:last 0
scalar testNetwork.westernCoreRouter.ppp[1].queue queueBitLength:max 0
scalar testNetwork.westernCoreRouter.ppp[1].queue queueBitLength:timeavg 0
scalar testNetwork.westernCoreRouter.ppp[1].queue outgoingPackets:count 12541
scalar testNetwork.westernCoreRouter.ppp[1].queue outgoingPacketLengths:sum 5398624
scalar testNetwork.westernCoreRouter.ppp[1].queue incomingPackets:count 12541
scalar testNetwork.westernCoreRouter.ppp[1].queue incomingPacketLengths:sum 5398624
scalar testNetwork.westernCoreRouter.ppp[1].queue droppedPacketsQueueOverflow:count 0
scalar testNetwork.westernCoreRouter.ppp[1].queue droppedPacketLengthsQueueOverflow:sum 0
scalar testNetwork.westernCoreRouter.ppp[1].ppp transmissionState:timeavg 0.00020257066666661512
scalar testNetwork.westernCoreRouter.ppp[1].ppp rxPkOk:count 24037
scalar testNetwork.westernCoreRouter.ppp[1].ppp rxPkOk:sum(packetBytes) 36220943
scalar testNetwork.westernCoreRouter.ppp[1].ppp txPk:count 12541
scalar testNetwork.westernCoreRouter.ppp[1].ppp txPk:sum(packetBytes) 762615
scalar testNetwork.westernCoreRouter.ppp[1].ppp rcvdPkFromHl:count 12541
scalar testNetwork.westernCoreRouter.ppp[1].ppp rcvdPkFromHl:sum(packetBytes) 674828
scalar testNetwork.westernCoreRouter.ppp[1].ppp passedUpPk:count 24037
scalar testNetwork.westernCoreRouter.ppp[1].ppp passedUpPk:sum(packetBytes) 36052684
scalar testNetwork.westernCoreRouter.ppp[1].ppp packetDropIncorrectlyReceived:count 0
scalar testNetwork.westernCoreRouter.ppp[1].ppp packetDropIncorrectlyReceived:sum(packetBytes) 0
scalar testNetwork.westernCoreRouter.ppp[1].ppp packetDropInterfaceDown:count 0
scalar testNetwork.westernCoreRouter.ppp[1].ppp packetDropInterfaceDown:sum(packetBytes) 0
scalar testNetwork.westernCoreRouter.ppp[1] packetDropInterfaceDown:count 0
scalar testNetwork.westernCoreRouter.ppp[1] packetDropInterfaceDown:sum(packetBytes) 0
scalar testNetwork.westernCoreRouter.ppp[1] packetDropNoCarrier:count 0
scalar testNetwork.westernCoreRouter.ppp[1] packetDropNoCarrier:sum(packetBytes) 0
scalar testNetwork.westernCoreRouter.ipv4.ip packetDropAddressResolutionFailed:count 0
scalar testNetwork.westernCoreRouter.ipv4.ip packetDropAddressResolutionFailed:sum(packetBytes) 0
scalar testNetwork.westernCoreRouter.ipv4.ip packetDropHopLimitReached:count 0
scalar testNetwork.westernCoreRouter.ipv4.ip packetDropHopLimitReached:sum(packetBytes) 0
scalar testNetwork.westernCoreRouter.ipv4.ip packetDropForwardingDisabled:count 0
scalar testNetwork.westernCoreRouter.ipv4.ip packetDropForwardingDisabled:sum(packetBytes) 0
scalar testNetwork.westernCoreRouter.ipv4.ip packetDropLifetimeExpired:count 0
scalar testNetwork.westernCoreRouter.ipv4.ip packetDropLifetimeExpired:sum(packetBytes) 0
scalar testNetwork.westernCoreRouter.ipv4.ip packetDropNoInterfaceFound:count 0
scalar testNetwork.westernCoreRouter.ipv4.ip packetDropNoInterfaceFound:sum(packetBytes) 0
scalar testNetwork.westernCoreRouter.ipv4.ip packetDropNoRouteFound:count 0
scalar testNetwork.westernCoreRouter.ipv4.ip packetDropNoRouteFound:sum(packetBytes) 0
scalar testNetwork.westernCoreRouter.ipv4.ip packetDropUndefined:count 0
scalar testNetwork.westernCoreRouter.ipv4.ip packetDropUndefined:sum(packetBytes) 0
scalar testNetwork.westernCoreRouter.ipv4.arp arpResolutionFailed:count 0
scalar testNetwork.westernCoreRouter.ipv4.arp arpResolutionCompleted:count 0
scalar testNetwork.westernCoreRouter.ipv4.arp arpResolutionInitiated:count 0
scalar testNetwork.westernCoreRouter.ipv4.arp arpReplySent:count 0
scalar testNetwork.westernCoreRouter.ipv4.arp arpReplySent:sum(packetBytes) 0
scalar testNetwork.westernCoreRouter.ipv4.arp arpRequestSent:count 0
scalar testNetwork.westernCoreRouter.ipv4.arp arpRequestSent:sum(packetBytes) 0
scalar testNetwork.easternCoreRouter.lo[0].lo rcvdPkFromHl:count 0
scalar testNetwork.easternCoreRouter.lo[0].lo rcvdPkFromHl:sum(packetBytes) 0
scalar testNetwork.easternCoreRouter.lo[0].lo passedUpPk:count 0
scalar testNetwork.easternCoreRouter.lo[0].lo passedUpPk:sum(packetBytes) 0
scalar testNetwork.easternCoreRouter.lo[0] packetDropInterfaceDown:count 0
scalar testNetwork.easternCoreRouter.lo[0] packetDropInterfaceDown:sum(packetBytes) 0
scalar testNetwork.easternCoreRouter.lo[0] packetDropNoCarrier:count 0
scalar testNetwork.easternCoreRouter.lo[0] packetDropNoCarrier:sum(packetBytes) 0
scalar testNetwork.easternCoreRouter.ppp[0].queue.red outgoingPackets:count 12545
scalar testNetwork.easternCoreRouter.ppp[0].queue.red outgoingPacketLengths:sum 5400288
scalar testNetwork.easternCoreRouter.ppp[0].queue.red flowOutgoingPacketLengths:sum 0
scalar testNetwork.easternCoreRouter.ppp[0].queue.red incomingPackets:count 12545
scalar testNetwork.easternCoreRouter.ppp[0].queue.red incomingPacketLengths:sum 5400288
scalar testNetwork.easternCoreRouter.ppp[0].queue.red flowIncomingPacketLengths:sum 0
scalar testNetwork.easternCoreRouter.ppp[0].queue.red droppedPackets:count 0
scalar testNetwork.easternCoreRouter.ppp[0].queue.red droppedPacketLengths:sum 0
scalar testNetwork.easternCoreRouter.ppp[0].queue.red flowDroppedPacketLengths:sum 0
scalar testNetwork.easternCoreRouter.ppp[0].queue.red packetDropCongestion:count 0
scalar testNetwork.easternCoreRouter.ppp[0].queue.red packetDropCongestion:sum(packetBytes) 0
scalar testNetwork.easternCoreRouter.ppp[0].queue.fifo queueLength:last 0
scalar testNetwork.easternCoreRouter.ppp[0].queue.fifo queueLength:max 0
scalar testNetwork.easternCoreRouter.ppp[0].queue.fifo queueLength:timeavg 0
scalar testNetwork.easternCoreRouter.ppp[0].queue.fifo queueBitLength:last 0
scalar testNetwork.easternCoreRouter.ppp[0].queue.fifo queueBitLength:max 0
scalar testNetwork.easternCoreRouter.ppp[0].queue.fifo queueBitLength:timeavg 0
scalar testNetwork.easternCoreRouter.ppp[0].queue.fifo outgoingPackets:count 12545
scalar testNetwork.easternCoreRouter.ppp[0].queue.fifo outgoingPacketLengths:sum 5400288
scalar testNetwork.easternCoreRouter.ppp[0].queue.fifo incomingPackets:count 12545
scalar testNetwork.easternCoreRouter.ppp[0].queue.fifo incomingPacketLengths:sum 5400288
scalar testNetwork.easternCoreRouter.ppp[0].queue.fifo droppedPacketsQueueOverflow:count 0
scalar testNetwork.easternCoreRouter.ppp[0].queue.fifo droppedPacketLengthsQueueOverflow:sum 0
scalar testNetwork.easternCoreRouter.ppp[0].queue queueLength:last -12545
scalar testNetwork.easternCoreRouter.ppp[0].queue queueLength:max 0
scalar testNetwork.easternCoreRouter.ppp[0].queue queueLength:timeavg -6115.0046121279966
scalar testNetwork.easternCoreRouter.ppp[0].queue queueBitLength:last -5400288
scalar testNetwork.easternCoreRouter.ppp[0].queue queueBitLength:max 0
scalar testNetwork.easternCoreRouter.ppp[0].queue queueBitLength:timeavg -2705195.0488654752
scalar testNetwork.easternCoreRouter.ppp[0].queue outgoingPackets:count 12545
scalar testNetwork.easternCoreRouter.ppp[0].queue outgoingPacketLengths:sum 5400288
scalar testNetwork.easternCoreRouter.ppp[0].queue incomingPackets:count 0
scalar testNetwork.easternCoreRouter.ppp[0].queue incomingPacketLengths:sum 0
scalar testNetwork.easternCoreRouter.ppp[0].queue droppedPacketsQueueOverflow:count 0
scalar testNetwork.easternCoreRouter.ppp[0].queue droppedPacketLengthsQueueOverflow:sum 0
scalar testNetwork.easternCoreRouter.ppp[0].ppp transmissionState:timeavg 0.020342693333339081
scalar testNetwork.easternCoreRouter.ppp[0].ppp rxPkOk:count 23898
scalar testNetwork.easternCoreRouter.ppp[0].ppp rxPkOk:sum(packetBytes) 36011470
scalar testNetwork.easternCoreRouter.ppp[0].ppp txPk:count 12545
scalar testNetwork.easternCoreRouter.ppp[0].ppp txPk:sum(packetBytes) 762851
scalar testNetwork.easternCoreRouter.ppp[0].ppp rcvdPkFromHl:count 12545
scalar testNetwork.easternCoreRouter.ppp[0].ppp rcvdPkFromHl:sum(packetBytes) 675036
scalar testNetwork.easternCoreRouter.ppp[0].ppp passedUpPk:count 23898
scalar testNetwork.easternCoreRouter.ppp[0].ppp passedUpPk:sum(packetBytes) 35844184
scalar testNetwork.easternCoreRouter.ppp[0].ppp packetDropIncorrectlyReceived:count 0
scalar testNetwork.easternCoreRouter.ppp[0].ppp packetDropIncorrectlyReceived:sum(packetBytes) 0
scalar testNetwork.easternCoreRouter.ppp[0].ppp packetDropInterfaceDown:count 0
scalar testNetwork.easternCoreRouter.ppp[0].ppp packetDropInterfaceDown:sum(packetBytes) 0
scalar testNetwork.easternCoreRouter.ppp[0] packetDropInterfaceDown:count 0
scalar testNetwork.easternCoreRouter.ppp[0] packetDropInterfaceDown:sum(packetBytes) 0
scalar testNetwork.easternCoreRouter.ppp[0] packetDropNoCarrier:count 0
scalar testNetwork.easternCoreRouter.ppp[0] packetDropNoCarrier:sum(packetBytes) 0
scalar testNetwork.easternCoreRouter.ppp[1].queue queueLength:last 0
scalar testNetwork.easternCoreRouter.ppp[1].queue queueLength:max 0
scalar testNetwork.easternCoreRouter.ppp[1].queue queueLength:timeavg 0
scalar testNetwork.easternCoreRouter.ppp[1].queue queueBitLength:last 0
scalar testNetwork.easternCoreRouter.ppp[1].queue queueBitLength:max 0
scalar testNetwork.easternCoreRouter.ppp[1].queue queueBitLength:timeavg 0
scalar testNetwork.easternCoreRouter.ppp[1].queue outgoingPackets:count 23898
scalar testNetwork.easternCoreRouter.ppp[1].queue outgoingPacketLengths:sum 286753472
scalar testNetwork.easternCoreRouter.ppp[1].queue incomingPackets:count 23898
scalar testNetwork.easternCoreRouter.ppp[1].queue incomingPacketLengths:sum 286753472
scalar testNetwork.easternCoreRouter.ppp[1].queue droppedPacketsQueueOverflow:count 0
scalar testNetwork.easternCoreRouter.ppp[1].queue droppedPacketLengthsQueueOverflow:sum 0
scalar testNetwork.easternCoreRouter.ppp[1].ppp transmissionState:timeavg 0.0096062446666665934
scalar testNetwork.easternCoreRouter.ppp[1].ppp rxPkOk:count 12545
scalar testNetwork.easternCoreRouter.ppp[1].ppp rxPkOk:sum(packetBytes) 762851
scalar testNetwork.easternCoreRouter.ppp[1].ppp txPk:count 23898
scalar testNetwork.easternCoreRouter.ppp[1].ppp txPk:sum(packetBytes) 36011470
scalar testNetwork.easternCoreRouter.ppp[1].ppp rcvdPkFromHl:count 23898
scalar testNetwork.easternCoreRouter.ppp[1].ppp rcvdPkFromHl:sum(packetBytes) 35844184
scalar testNetwork.easternCoreRouter.ppp[1].ppp passedUpPk:count 12545
scalar testNetwork.easternCoreRouter.ppp[1].ppp passedUpPk:sum(packetBytes) 675036
scalar testNetwork.easternCoreRouter.ppp[1].ppp packetDropIncorrectlyReceived:count 0
scalar testNetwork.easternCoreRouter.ppp[1].ppp packetDropIncorrectlyReceived:sum(packetBytes) 0
scalar testNetwork.easternCoreRouter.ppp[1].ppp packetDropInterfaceDown:count 0
scalar testNetwork.easternCoreRouter.ppp[1].ppp packetDropInterfaceDown:sum(packetBytes) 0
scalar testNetwork.easternCoreRouter.ppp[1] packetDropInterfaceDown:count 0
scalar testNetwork.easternCoreRouter.ppp[1] packetDropInterfaceDown:sum(packetBytes) 0
scalar testNetwork.easternCoreRouter.ppp[1] packetDropNoCarrier:count 0
scalar testNetwork.easternCoreRouter.ppp[1] packetDropNoCarrier:sum(packetBytes) 0
scalar testNetwork.easternCoreRouter.ipv4.ip packetDropAddressResolutionFailed:count 0
scalar testNetwork.easternCoreRouter.ipv4.ip packetDropAddressResolutionFailed:sum(packetBytes) 0
scalar testNetwork.easternCoreRouter.ipv4.ip packetDropHopLimitReached:count 0
scalar testNetwork.easternCoreRouter.ipv4.ip packetDropHopLimitReached:sum(packetBytes) 0
scalar testNetwork.easternCoreRouter.ipv4.ip packetDropForwardingDisabled:count 0
scalar testNetwork.easternCoreRouter.ipv4.ip packetDropForwardingDisabled:sum(packetBytes) 0
scalar testNetwork.easternCoreRouter.ipv4.ip packetDropLifetimeExpired:count 0
scalar testNetwork.easternCoreRouter.ipv4.ip packetDropLifetimeExpired:sum(packetBytes) 0
scalar testNetwork.easternCoreRouter.ipv4.ip packetDropNoInterfaceFound:count 0
scalar testNetwork.easternCoreRouter.ipv4.ip packetDropNoInterfaceFound:sum(packetBytes) 0
scalar testNetwork.easternCoreRouter.ipv4.ip packetDropNoRouteFound:count 0
scalar testNetwork.easternCoreRouter.ipv4.ip packetDropNoRouteFound:sum(packetBytes) 0
scalar testNetwork.easternCoreRouter.ipv4.ip packetDropUndefined:count 0
scalar testNetwork.easternCoreRouter.ipv4.ip packetDropUndefined:sum(packetBytes) 0
scalar testNetwork.easternCoreRouter.ipv4.arp arpResolutionFailed:count 0
scalar testNetwork.easternCoreRouter.ipv4.arp arpResolutionCompleted:count 0
scalar testNetwork.easternCoreRouter.ipv4.arp arpResolutionInitiated:count 0
scalar testNetwork.easternCoreRouter.ipv4.arp arpReplySent:count 0
scalar testNetwork.easternCoreRouter.ipv4.arp arpReplySent:sum(packetBytes) 0
scalar testNetwork.easternCoreRouter.ipv4.arp arpRequestSent:count 0
scalar testNetwork.easternCoreRouter.ipv4.arp arpRequestSent:sum(packetBytes) 0
scalar testNetwork.easternBorderRouter.lo[0].lo rcvdPkFromHl:count 0
scalar testNetwork.easternBorderRouter.lo[0].lo rcvdPkFromHl:sum(packetBytes) 0
scalar testNetwork.easternBorderRouter.lo[0].lo passedUpPk:count 0
scalar testNetwork.easternBorderRouter.lo[0].lo passedUpPk:sum(packetBytes) 0
scalar testNetwork.easternBorderRouter.lo[0] packetDropInterfaceDown:count 0
scalar testNetwork.easternBorderRouter.lo[0] packetDropInterfaceDown:sum(packetBytes) 0
scalar testNetwork.easternBorderRouter.lo[0] packetDropNoCarrier:count 0
scalar testNetwork.easternBorderRouter.lo[0] packetDropNoCarrier:sum(packetBytes) 0
scalar testNetwork.easternBorderRouter.ppp[0].queue queueLength:last 0
scalar testNetwork.easternBorderRouter.ppp[0].queue queueLength:max 0
scalar testNetwork.easternBorderRouter.ppp[0].queue queueLength:timeavg 0
scalar testNetwork.easternBorderRouter.ppp[0].queue queueBitLength:last 0
scalar testNetwork.easternBorderRouter.ppp[0].queue queueBitLength:max 0
scalar testNetwork.easternBorderRouter.ppp[0].queue queueBitLength:timeavg 0
scalar testNetwork.easternBorderRouter.ppp[0].queue outgoingPackets:count 12545
scalar testNetwork.easternBorderRouter.ppp[0].queue outgoingPacketLengths:sum 5400288
scalar testNetwork.easternBorderRouter.ppp[0].queue incomingPackets:count 12545
scalar testNetwork.easternBorderRouter.ppp[0].queue incomingPacketLengths:sum 5400288
scalar testNetwork.easternBorderRouter.ppp[0].queue droppedPacketsQueueOverflow:count 0
scalar testNetwork.easternBorderRouter.ppp[0].queue droppedPacketLengthsQueueOverflow:sum 0
scalar testNetwork.easternBorderRouter.ppp[0].ppp transmissionState:timeavg 0.00020263333333328176
scalar testNetwork.easternBorderRouter.ppp[0].ppp rxPkOk:count 23898
scalar testNetwork.easternBorderRouter.ppp[0].ppp rxPkOk:sum(packetBytes) 36011470
scalar testNetwork.easternBorderRouter.ppp[0].ppp txPk:count 12545
scalar testNetwork.easternBorderRouter.ppp[0].ppp txPk:sum(packetBytes) 762851
scalar testNetwork.easternBorderRouter.ppp[0].ppp rcvdPkFromHl:count 12545
scalar testNetwork.easternBorderRouter.ppp[0].ppp rcvdPkFromHl:sum(packetBytes) 675036
scalar testNetwork.easternBorderRouter.ppp[0].ppp passedUpPk:count 23898
scalar testNetwork.easternBorderRouter.ppp[0].ppp passedUpPk:sum(packetBytes) 35844184
scalar testNetwork.easternBorderRouter.ppp[0].ppp packetDropIncorrectlyReceived:count 0
scalar testNetwork.easternBorderRouter.ppp[0].ppp packetDropIncorrectlyReceived:sum(packetBytes) 0
scalar testNetwork.easternBorderRouter.ppp[0].ppp packetDropInterfaceDown:count 0
scalar testNetwork.easternBorderRouter.ppp[0].ppp packetDropInterfaceDown:sum(packetBytes) 0
scalar testNetwork.easternBorderRouter.ppp[0] packetDropInterfaceDown:count 0
scalar testNetwork.easternBorderRouter.ppp[0] packetDropInterfaceDown:sum(packetBytes) 0
scalar testNetwork.easternBorderRouter.ppp[0] packetDropNoCarrier:count 0
scalar testNetwork.easternBorderRouter.ppp[0] packetDropNoCarrier:sum(packetBytes) 0
scalar testNetwork.easternBorderRouter.ppp[1].queue queueLength:last 0
scalar testNetwork.easternBorderRouter.ppp[1].queue queueLength:max 0
scalar testNetwork.easternBorderRouter.ppp[1].queue queueLength:timeavg 0
scalar testNetwork.easternBorderRouter.ppp[1].queue queueBitLength:last 0
scalar testNetwork.easternBorderRouter.ppp[1].queue queueBitLength:max 0
scalar testNetwork.easternBorderRouter.ppp[1].queue queueBitLength:timeavg 0
scalar testNetwork.easternBorderRouter.ppp[1].queue outgoingPackets:count 23898
scalar testNetwork.easternBorderRouter.ppp[1].queue outgoingPacketLengths:sum 286753472
scalar testNetwork.easternBorderRouter.ppp[1].queue incomingPackets:count 23898
scalar testNetwork.easternBorderRouter.ppp[1].queue incomingPacketLengths:sum 286753472
scalar testNetwork.easternBorderRouter.ppp[1].queue droppedPacketsQueueOverflow:count 0
scalar testNetwork.easternBorderRouter.ppp[1].queue droppedPacketLengthsQueueOverflow:sum 0
scalar testNetwork.easternBorderRouter.ppp[1].ppp transmissionState:timeavg 0.0096062446666665934
scalar testNetwork.easternBorderRouter.ppp[1].ppp rxPkOk:count 12545
scalar testNetwork.easternBorderRouter.ppp[1].ppp rxPkOk:sum(packetBytes) 762851
scalar testNetwork.easternBorderRouter.ppp[1].ppp txPk:count 23898
scalar testNetwork.easternBorderRouter.ppp[1].ppp txPk:sum(packetBytes) 36011470
scalar testNetwork.easternBorderRouter.ppp[1].ppp rcvdPkFromHl:count 23898
scalar testNetwork.easternBorderRouter.ppp[1].ppp rcvdPkFromHl:sum(packetBytes) 35844184
scalar testNetwork.easternBorderRouter.ppp[1].ppp passedUpPk:count 12545
scalar testNetwork.easternBorderRouter.ppp[1].ppp passedUpPk:sum(packetBytes) 675036
scalar testNetwork.easternBorderRouter.ppp[1].ppp packetDropIncorrectlyReceived:count 0
scalar testNetwork.easternBorderRouter.ppp[1].ppp packetDropIncorrectlyReceived:sum(packetBytes) 0
scalar testNetwork.easternBorderRouter.ppp[1].ppp packetDropInterfaceDown:count 0
scalar testNetwork.easternBorderRouter.ppp[1].ppp packetDropInterfaceDown:sum(packetBytes) 0
scalar testNetwork.easternBorderRouter.ppp[1] packetDropInterfaceDown:count 0
scalar testNetwork.easternBorderRouter.ppp[1] packetDropInterfaceDown:sum(packetBytes) 0
scalar testNetwork.easternBorderRouter.ppp[1] packetDropNoCarrier:count 0
scalar testNetwork.easternBorderRouter.ppp[1] packetDropNoCarrier:sum(packetBytes) 0
scalar testNetwork.easternBorderRouter.ipv4.ip packetDropAddressResolutionFailed:count 0
scalar testNetwork.easternBorderRouter.ipv4.ip packetDropAddressResolutionFailed:sum(packetBytes) 0
scalar testNetwork.easternBorderRouter.ipv4.ip packetDropHopLimitReached:count 0
scalar testNetwork.easternBorderRouter.ipv4.ip packetDropHopLimitReached:sum(packetBytes) 0
scalar testNetwork.easternBorderRouter.ipv4.ip packetDropForwardingDisabled:count 0
scalar testNetwork.easternBorderRouter.ipv4.ip packetDropForwardingDisabled:sum(packetBytes) 0
scalar testNetwork.easternBorderRouter.ipv4.ip packetDropLifetimeExpired:count 0
scalar testNetwork.easternBorderRouter.ipv4.ip packetDropLifetimeExpired:sum(packetBytes) 0
scalar testNetwork.easternBorderRouter.ipv4.ip packetDropNoInterfaceFound:count 0
scalar testNetwork.easternBorderRouter.ipv4.ip packetDropNoInterfaceFound:sum(packetBytes) 0
scalar testNetwork.easternBorderRouter.ipv4.ip packetDropNoRouteFound:count 0
scalar testNetwork.easternBorderRouter.ipv4.ip packetDropNoRouteFound:sum(packetBytes) 0
scalar testNetwork.easternBorderRouter.ipv4.ip packetDropUndefined:count 0
scalar testNetwork.easternBorderRouter.ipv4.ip packetDropUndefined:sum(packetBytes) 0
scalar testNetwork.easternBorderRouter.ipv4.arp arpResolutionFailed:count 0
scalar testNetwork.easternBorderRouter.ipv4.arp arpResolutionCompleted:count 0
scalar testNetwork.easternBorderRouter.ipv4.arp arpResolutionInitiated:count 0
scalar testNetwork.easternBorderRouter.ipv4.arp arpReplySent:count 0
scalar testNetwork.easternBorderRouter.ipv4.arp arpReplySent:sum(packetBytes) 0
scalar testNetwork.easternBorderRouter.ipv4.arp arpRequestSent:count 0
scalar testNetwork.easternBorderRouter.ipv4.arp arpRequestSent:sum(packetBytes) 0
scalar testNetwork.clientMain[0].lo[0].lo rcvdPkFromHl:count 0
scalar testNetwork.clientMain[0].lo[0].lo rcvdPkFromHl:sum(packetBytes) 0
scalar testNetwork.clientMain[0].lo[0].lo passedUpPk:count 0
scalar testNetwork.clientMain[0].lo[0].lo passedUpPk:sum(packetBytes) 0
scalar testNetwork.clientMain[0].lo[0] packetDropInterfaceDown:count 0
scalar testNetwork.clientMain[0].lo[0] packetDropInterfaceDown:sum(packetBytes) 0
scalar testNetwork.clientMain[0].lo[0] packetDropNoCarrier:count 0
scalar testNetwork.clientMain[0].lo[0] packetDropNoCarrier:sum(packetBytes) 0
scalar testNetwork.clientMain[0].ppp[0].queue queueLength:last 0
scalar testNetwork.clientMain[0].ppp[0].queue queueLength:max 3
scalar testNetwork.clientMain[0].ppp[0].queue queueLength:timeavg 0.0049916339999997476
scalar testNetwork.clientMain[0].ppp[0].queue queueBitLength:last 0
scalar testNetwork.clientMain[0].ppp[0].queue queueBitLength:max 36000
scalar testNetwork.clientMain[0].ppp[0].queue queueBitLength:timeavg 59.899608000002608
scalar testNetwork.clientMain[0].ppp[0].queue outgoingPackets:count 24037
scalar testNetwork.clientMain[0].ppp[0].queue outgoingPacketLengths:sum 288421472
scalar testNetwork.clientMain[0].ppp[0].queue incomingPackets:count 24037
scalar testNetwork.clientMain[0].ppp[0].queue incomingPacketLengths:sum 288421472
scalar testNetwork.clientMain[0].ppp[0].queue droppedPacketsQueueOverflow:count 0
scalar testNetwork.clientMain[0].ppp[0].queue droppedPacketLengthsQueueOverflow:sum 0
scalar testNetwork.clientMain[0].ppp[0].ppp transmissionState:timeavg 0.0096621226666665019
scalar testNetwork.clientMain[0].ppp[0].ppp rxPkOk:count 12540
scalar testNetwork.clientMain[0].ppp[0].ppp rxPkOk:sum(packetBytes) 762556
scalar testNetwork.clientMain[0].ppp[0].ppp txPk:count 24037
scalar testNetwork.clientMain[0].ppp[0].ppp txPk:sum(packetBytes) 36220943
scalar testNetwork.clientMain[0].ppp[0].ppp rcvdPkFromHl:count 24037
scalar testNetwork.clientMain[0].ppp[0].ppp rcvdPkFromHl:sum(packetBytes) 36052684
scalar testNetwork.clientMain[0].ppp[0].ppp passedUpPk:count 12540
scalar testNetwork.clientMain[0].ppp[0].ppp passedUpPk:sum(packetBytes) 674776
scalar testNetwork.clientMain[0].ppp[0].ppp packetDropIncorrectlyReceived:count 0
scalar testNetwork.clientMain[0].ppp[0].ppp packetDropIncorrectlyReceived:sum(packetBytes) 0
scalar testNetwork.clientMain[0].ppp[0].ppp packetDropInterfaceDown:count 0
scalar testNetwork.clientMain[0].ppp[0].ppp packetDropInterfaceDown:sum(packetBytes) 0
scalar testNetwork.clientMain[0].ppp[0] packetDropInterfaceDown:count 0
scalar testNetwork.clientMain[0].ppp[0] packetDropInterfaceDown:sum(packetBytes) 0
scalar testNetwork.clientMain[0].ppp[0] packetDropNoCarrier:count 0
scalar testNetwork.clientMain[0].ppp[0] packetDropNoCarrier:sum(packetBytes) 0
scalar testNetwork.clientMain[0].ipv4.ip packetDropAddressResolutionFailed:count 0
scalar testNetwork.clientMain[0].ipv4.ip packetDropAddressResolutionFailed:sum(packetBytes) 0
scalar testNetwork.clientMain[0].ipv4.ip packetDropHopLimitReached:count 0
scalar testNetwork.clientMain[0].ipv4.ip packetDropHopLimitReached:sum(packetBytes) 0
scalar testNetwork.clientMain[0].ipv4.ip packetDropForwardingDisabled:count 0
scalar testNetwork.clientMain[0].ipv4.ip packetDropForwardingDisabled:sum(packetBytes) 0
scalar testNetwork.clientMain[0].ipv4.ip packetDropLifetimeExpired:count 0
scalar testNetwork.clientMain[0].ipv4.ip packetDropLifetimeExpired:sum(packetBytes) 0
scalar testNetwork.clientMain[0].ipv4.ip packetDropNoInterfaceFound:count 0
scalar testNetwork.clientMain[0].ipv4.ip packetDropNoInterfaceFound:sum(packetBytes) 0
scalar testNetwork.clientMain[0].ipv4.ip packetDropNoRouteFound:count 0
scalar testNetwork.clientMain[0].ipv4.ip packetDropNoRouteFound:sum(packetBytes) 0
scalar testNetwork.clientMain[0].ipv4.ip packetDropUndefined:count 0
scalar testNetwork.clientMain[0].ipv4.ip packetDropUndefined:sum(packetBytes) 0
scalar testNetwork.clientMain[0].ipv4.arp arpResolutionFailed:count 0
scalar testNetwork.clientMain[0].ipv4.arp arpResolutionCompleted:count 0
scalar testNetwork.clientMain[0].ipv4.arp arpResolutionInitiated:count 0
scalar testNetwork.clientMain[0].ipv4.arp arpReplySent:count 0
scalar testNetwork.clientMain[0].ipv4.arp arpReplySent:sum(packetBytes) 0
scalar testNetwork.clientMain[0].ipv4.arp arpRequestSent:count 0
scalar testNetwork.clientMain[0].ipv4.arp arpRequestSent:sum(packetBytes) 0
scalar testNetwork.clientMain[0].udp packetReceived:count 0
scalar testNetwork.clientMain[0].udp packetReceived:sum(packetBytes) 0
scalar testNetwork.clientMain[0].udp packetSent:count 0
scalar testNetwork.clientMain[0].udp packetSent:sum(packetBytes) 0
scalar testNetwork.clientMain[0].udp passedUpPk:count 0
scalar testNetwork.clientMain[0].udp droppedPkWrongPort:count 0
scalar testNetwork.clientMain[0].udp droppedPkBadChecksum:count 0
scalar testNetwork.clientMain[0].sctp.assoc-13 "Association Lifetime" 29.957070560000002
scalar testNetwork.clientMain[0].sctp.assoc-13 "Acked Bytes" 34641816
scalar testNetwork.clientMain[0].sctp.assoc-13 "Throughput [bit/s]" 9251055.6880031582
scalar testNetwork.clientMain[0].sctp.assoc-13 "Transmitted Bytes" 34898820
scalar testNetwork.clientMain[0].sctp.assoc-13 "Fast RTX" 104
scalar testNetwork.clientMain[0].sctp.assoc-13 "Path failures" 0
scalar testNetwork.clientMain[0].sctp.assoc-13 "Timer-Based RTX" 35
scalar testNetwork.clientMain[0].sctp.assoc-13 "Forward TSN" 0
scalar testNetwork.clientMain[0].sctp.assoc-13 "Duplicate Acks" 28
scalar testNetwork.clientMain[0].sctp.assoc-13 "Sum of R Gap Ranges" 252500
scalar testNetwork.clientMain[0].sctp.assoc-13 "Sum of NR Gap Ranges" 0
scalar testNetwork.clientMain[0].sctp.assoc-13 "Overfull SACKs" 0
scalar testNetwork.clientMain[0].sctp.assoc-13 "Drops Because New TSN Greater Than Highest TSN" 0
scalar testNetwork.clientMain[0].sctp.assoc-13 "Drops Because No Room In Buffer" 0
scalar testNetwork.clientMain[0].sctp.assoc-13 "Chunks Reneged" 0
scalar testNetwork.clientMain[0].sctp.assoc-13 "Number of AUTH chunks sent" 0
scalar testNetwork.clientMain[0].sctp.assoc-13 "Number of AUTH chunks accepted" 0
scalar testNetwork.clientMain[0].sctp.assoc-13 "Number of AUTH chunks rejected" 0
scalar testNetwork.clientMain[0].sctp.assoc-13 "Number of StreamReset requests sent" 0
scalar testNetwork.clientMain[0].sctp.assoc-13 "Number of StreamReset requests performed" 0
scalar testNetwork.clientMain[0].sctp.assoc-13 "Number of Fast Retransmissions 10.0.0.18" 104
scalar testNetwork.clientMain[0].sctp.assoc-13 "Number of Timer-Based Retransmissions 10.0.0.18" 35
scalar testNetwork.clientMain[0].sctp.assoc-13 "Number of Heartbeats Sent 10.0.0.18" 0
scalar testNetwork.clientMain[0].sctp.assoc-13 "Number of Heartbeats Received 10.0.0.18" 0
scalar testNetwork.clientMain[0].sctp.assoc-13 "Number of Heartbeat ACKs Sent 10.0.0.18" 0
scalar testNetwork.clientMain[0].sctp.assoc-13 "Number of Heartbeat ACKs Received 10.0.0.18" 0
scalar testNetwork.clientMain[0].sctp.assoc-13 "Number of Duplicates 10.0.0.18" 0
scalar testNetwork.clientMain[0].sctp.assoc-13 "Number of Bytes received from 10.0.0.18" 0
scalar testNetwork.clientMain[0].sctp.assoc-13 "Bytes received on stream 0" 0
scalar testNetwork.clientMain[0].sctp.assoc-13 "Blocking TSNs Moved" 0
scalar testNetwork.clientMain[0].sctp "Packets Received" 12540
scalar testNetwork.clientMain[0].sctp "Packets Dropped" 0
scalar testNetwork.clientMain[0].sctp "Number of PacketDrop Reports" 0
scalar testNetwork.clientMain[0].sctp sackPeriod 0.20000000000000001
scalar testNetwork.clientMain[0].sctp RTXMethod 0
scalar testNetwork.serverMain[0].lo[0].lo rcvdPkFromHl:count 0
scalar testNetwork.serverMain[0].lo[0].lo rcvdPkFromHl:sum(packetBytes) 0
scalar testNetwork.serverMain[0].lo[0].lo passedUpPk:count 0
scalar testNetwork.serverMain[0].lo[0].lo passedUpPk:sum(packetBytes) 0
scalar testNetwork.serverMain[0].lo[0] packetDropInterfaceDown:count 0
scalar testNetwork.serverMain[0].lo[0] packetDropInterfaceDown:sum(packetBytes) 0
scalar testNetwork.serverMain[0].lo[0] packetDropNoCarrier:count 0
scalar testNetwork.serverMain[0].lo[0] packetDropNoCarrier:sum(packetBytes) 0
scalar testNetwork.serverMain[0].ppp[0].queue queueLength:last 0
scalar testNetwork.serverMain[0].ppp[0].queue queueLength:max 0
scalar testNetwork.serverMain[0].ppp[0].queue queueLength:timeavg 0
scalar testNetwork.serverMain[0].ppp[0].queue queueBitLength:last 0
scalar testNetwork.serverMain[0].ppp[0].queue queueBitLength:max 0
scalar testNetwork.serverMain[0].ppp[0].queue queueBitLength:timeavg 0
scalar testNetwork.serverMain[0].ppp[0].queue outgoingPackets:count 12545
scalar testNetwork.serverMain[0].ppp[0].queue outgoingPacketLengths:sum 5400288
scalar testNetwork.serverMain[0].ppp[0].queue incomingPackets:count 12545
scalar testNetwork.serverMain[0].ppp[0].queue incomingPacketLengths:sum 5400288
scalar testNetwork.serverMain[0].ppp[0].queue droppedPacketsQueueOverflow:count 0
scalar testNetwork.serverMain[0].ppp[0].queue droppedPacketLengthsQueueOverflow:sum 0
scalar testNetwork.serverMain[0].ppp[0].ppp transmissionState:timeavg 0.00020263333333328176
scalar testNetwork.serverMain[0].ppp[0].ppp rxPkOk:count 23898
scalar testNetwork.serverMain[0].ppp[0].ppp rxPkOk:sum(packetBytes) 36011470
scalar testNetwork.serverMain[0].ppp[0].ppp txPk:count 12545
scalar testNetwork.serverMain[0].ppp[0].ppp txPk:sum(packetBytes) 762851
scalar testNetwork.serverMain[0].ppp[0].ppp rcvdPkFromHl:count 12545
scalar testNetwork.serverMain[0].ppp[0].ppp rcvdPkFromHl:sum(packetBytes) 675036
scalar testNetwork.serverMain[0].ppp[0].ppp passedUpPk:count 23898
scalar testNetwork.serverMain[0].ppp[0].ppp passedUpPk:sum(packetBytes) 35844184
scalar testNetwork.serverMain[0].ppp[0].ppp packetDropIncorrectlyReceived:count 0
scalar testNetwork.serverMain[0].ppp[0].ppp packetDropIncorrectlyReceived:sum(packetBytes) 0
scalar testNetwork.serverMain[0].ppp[0].ppp packetDropInterfaceDown:count 0
scalar testNetwork.serverMain[0].ppp[0].ppp packetDropInterfaceDown:sum(packetBytes) 0
scalar testNetwork.serverMain[0].ppp[0] packetDropInterfaceDown:count 0
scalar testNetwork.serverMain[0].ppp[0] packetDropInterfaceDown:sum(packetBytes) 0
scalar testNetwork.serverMain[0].ppp[0] packetDropNoCarrier:count 0
scalar testNetwork.serverMain[0].ppp[0] packetDropNoCarrier:sum(packetBytes) 0
scalar testNetwork.serverMain[0].ipv4.ip packetDropAddressResolutionFailed:count 0
scalar testNetwork.serverMain[0].ipv4.ip packetDropAddressResolutionFailed:sum(packetBytes) 0
scalar testNetwork.serverMain[0].ipv4.ip packetDropHopLimitReached:count 0
scalar testNetwork.serverMain[0].ipv4.ip packetDropHopLimitReached:sum(packetBytes) 0
scalar testNetwork.serverMain[0].ipv4.ip packetDropForwardingDisabled:count 0
scalar testNetwork.serverMain[0].ipv4.ip packetDropForwardingDisabled:sum(packetBytes) 0
scalar testNetwork.serverMain[0].ipv4.ip packetDropLifetimeExpired:count 0
scalar testNetwork.serverMain[0].ipv4.ip packetDropLifetimeExpired:sum(packetBytes) 0
scalar testNetwork.serverMain[0].ipv4.ip packetDropNoInterfaceFound:count 0
scalar testNetwork.serverMain[0].ipv4.ip packetDropNoInterfaceFound:sum(packetBytes) 0
scalar testNetwork.serverMain[0].ipv4.ip packetDropNoRouteFound:count 0
scalar testNetwork.serverMain[0].ipv4.ip packetDropNoRouteFound:sum(packetBytes) 0
scalar testNetwork.serverMain[0].ipv4.ip packetDropUndefined:count 0
scalar testNetwork.serverMain[0].ipv4.ip packetDropUndefined:sum(packetBytes) 0
scalar testNetwork.serverMain[0].ipv4.arp arpResolutionFailed:count 0
scalar testNetwork.serverMain[0].ipv4.arp arpResolutionCompleted:count 0
scalar testNetwork.serverMain[0].ipv4.arp arpResolutionInitiated:count 0
scalar testNetwork.serverMain[0].ipv4.arp arpReplySent:count 0
scalar testNetwork.serverMain[0].ipv4.arp arpReplySent:sum(packetBytes) 0
scalar testNetwork.serverMain[0].ipv4.arp arpRequestSent:count 0
scalar testNetwork.serverMain[0].ipv4.arp arpRequestSent:sum(packetBytes) 0
scalar testNetwork.serverMain[0].udp packetReceived:count 0
scalar testNetwork.serverMain[0].udp packetReceived:sum(packetBytes) 0
scalar testNetwork.serverMain[0].udp packetSent:count 0
scalar testNetwork.serverMain[0].udp packetSent:sum(packetBytes) 0
scalar testNetwork.serverMain[0].udp passedUpPk:count 0
scalar testNetwork.serverMain[0].udp droppedPkWrongPort:count 0
scalar testNetwork.serverMain[0].udp droppedPkBadChecksum:count 0
scalar testNetwork.serverMain[0].sctp.assoc-12 "Association Lifetime" 30
scalar testNetwork.serverMain[0].sctp.assoc-12 "Acked Bytes" 0
scalar testNetwork.serverMain[0].sctp.assoc-12 "Throughput [bit/s]" 0
scalar testNetwork.serverMain[0].sctp.assoc-12 "Transmitted Bytes" 0
scalar testNetwork.serverMain[0].sctp.assoc-12 "Fast RTX" 0
scalar testNetwork.serverMain[0].sctp.assoc-12 "Path failures" 0
scalar testNetwork.serverMain[0].sctp.assoc-12 "Timer-Based RTX" 0
scalar testNetwork.serverMain[0].sctp.assoc-12 "Forward TSN" 0
scalar testNetwork.serverMain[0].sctp.assoc-12 "Duplicate Acks" 0
scalar testNetwork.serverMain[0].sctp.assoc-12 "Sum of R Gap Ranges" 0
scalar testNetwork.serverMain[0].sctp.assoc-12 "Sum of NR Gap Ranges" 0
scalar testNetwork.serverMain[0].sctp.assoc-12 "Overfull SACKs" 0
scalar testNetwork.serverMain[0].sctp.assoc-12 "Drops Because New TSN Greater Than Highest TSN" 0
scalar testNetwork.serverMain[0].sctp.assoc-12 "Drops Because No Room In Buffer" 0
scalar testNetwork.serverMain[0].sctp.assoc-12 "Chunks Reneged" 0
scalar testNetwork.serverMain[0].sctp.assoc-12 "Number of AUTH chunks sent" 0
scalar testNetwork.serverMain[0].sctp.assoc-12 "Number of AUTH chunks accepted" 0
scalar testNetwork.serverMain[0].sctp.assoc-12 "Number of AUTH chunks rejected" 0
scalar testNetwork.serverMain[0].sctp.assoc-12 "Number of StreamReset requests sent" 0
scalar testNetwork.serverMain[0].sctp.assoc-12 "Number of StreamReset requests performed" 0
scalar testNetwork.serverMain[0].sctp.assoc-12 "Bytes received on stream 0" 0
scalar testNetwork.serverMain[0].sctp.assoc-12 "Bytes received on stream 1" 0
scalar testNetwork.serverMain[0].sctp.assoc-12 "Bytes received on stream 2" 0
scalar testNetwork.serverMain[0].sctp.assoc-12 "Bytes received on stream 3" 0
scalar testNetwork.serverMain[0].sctp.assoc-12 "Bytes received on stream 4" 0
scalar testNetwork.serverMain[0].sctp.assoc-12 "Bytes received on stream 5" 0
scalar testNetwork.serverMain[0].sctp.assoc-12 "Bytes received on stream 6" 0
scalar testNetwork.serverMain[0].sctp.assoc-12 "Bytes received on stream 7" 0
scalar testNetwork.serverMain[0].sctp.assoc-12 "Bytes received on stream 8" 0
scalar testNetwork.serverMain[0].sctp.assoc-12 "Bytes received on stream 9" 0
scalar testNetwork.serverMain[0].sctp.assoc-12 "Bytes received on stream 10" 0
scalar testNetwork.serverMain[0].sctp.assoc-12 "Bytes received on stream 11" 0
scalar testNetwork.serverMain[0].sctp.assoc-12 "Bytes received on stream 12" 0
scalar testNetwork.serverMain[0].sctp.assoc-12 "Bytes received on stream 13" 0
scalar testNetwork.serverMain[0].sctp.assoc-12 "Bytes received on stream 14" 0
scalar testNetwork.serverMain[0].sctp.assoc-12 "Bytes received on stream 15" 0
scalar testNetwork.serverMain[0].sctp.assoc-12 "Blocking TSNs Moved" 0
scalar testNetwork.serverMain[0].sctp.assoc-14 "Association Lifetime" 29.967506320000002
scalar testNetwork.serverMain[0].sctp.assoc-14 "Acked Bytes" 0
scalar testNetwork.serverMain[0].sctp.assoc-14 "Throughput [bit/s]" 0
scalar testNetwork.serverMain[0].sctp.assoc-14 "Transmitted Bytes" 0
scalar testNetwork.serverMain[0].sctp.assoc-14 "Fast RTX" 0
scalar testNetwork.serverMain[0].sctp.assoc-14 "Path failures" 0
scalar testNetwork.serverMain[0].sctp.assoc-14 "Timer-Based RTX" 0
scalar testNetwork.serverMain[0].sctp.assoc-14 "Forward TSN" 0
scalar testNetwork.serverMain[0].sctp.assoc-14 "Duplicate Acks" 0
scalar testNetwork.serverMain[0].sctp.assoc-14 "Sum of R Gap Ranges" 0
scalar testNetwork.serverMain[0].sctp.assoc-14 "Sum of NR Gap Ranges" 0
scalar testNetwork.serverMain[0].sctp.assoc-14 "Overfull SACKs" 0
scalar testNetwork.serverMain[0].sctp.assoc-14 "Drops Because New TSN Greater Than Highest TSN" 0
scalar testNetwork.serverMain[0].sctp.assoc-14 "Drops Because No Room In Buffer" 0
scalar testNetwork.serverMain[0].sctp.assoc-14 "Chunks Reneged" 0
scalar testNetwork.serverMain[0].sctp.assoc-14 "Number of AUTH chunks sent" 0
scalar testNetwork.serverMain[0].sctp.assoc-14 "Number of AUTH chunks accepted" 0
scalar testNetwork.serverMain[0].sctp.assoc-14 "Number of AUTH chunks rejected" 0
scalar testNetwork.serverMain[0].sctp.assoc-14 "Number of StreamReset requests sent" 0
scalar testNetwork.serverMain[0].sctp.assoc-14 "Number of StreamReset requests performed" 0
scalar testNetwork.serverMain[0].sctp.assoc-14 "Average End to End Delay" 0.01346224
scalar testNetwork.serverMain[0].sctp.assoc-14 "Number of Fast Retransmissions 10.0.0.6" 0
scalar testNetwork.serverMain[0].sctp.assoc-14 "Number of Timer-Based Retransmissions 10.0.0.6" 0
scalar testNetwork.serverMain[0].sctp.assoc-14 "Number of Heartbeats Sent 10.0.0.6" 0
scalar testNetwork.serverMain[0].sctp.assoc-14 "Number of Heartbeats Received 10.0.0.6" 0
scalar testNetwork.serverMain[0].sctp.assoc-14 "Number of Heartbeat ACKs Sent 10.0.0.6" 0
scalar testNetwork.serverMain[0].sctp.assoc-14 "Number of Heartbeat ACKs Received 10.0.0.6" 0
scalar testNetwork.serverMain[0].sctp.assoc-14 "Number of Duplicates 10.0.0.6" 28
scalar testNetwork.serverMain[0].sctp.assoc-14 "Number of Bytes received from 10.0.0.6" 34696992
scalar testNetwork.serverMain[0].sctp.assoc-14 "Bytes received on stream 0" 1161600
scalar testNetwork.serverMain[0].sctp.assoc-14 "Blocking TSNs Moved" 0
scalar testNetwork.serverMain[0].sctp "Packets Received" 23898
scalar testNetwork.serverMain[0].sctp "Packets Dropped" 0
scalar testNetwork.serverMain[0].sctp "Number of PacketDrop Reports" 0
scalar testNetwork.serverMain[0].sctp sackPeriod 0.20000000000000001
scalar testNetwork.serverMain[0].sctp RTXMethod 0
scalar testNetwork.westernBorderRouter.ppp[0].queue queueingTime:histogram:count 24037
scalar testNetwork.westernBorderRouter.ppp[0].queue queueingTime:histogram:sumweights 24037
scalar testNetwork.westernBorderRouter.ppp[0].queue queueingTime:histogram:mean 0
scalar testNetwork.westernBorderRouter.ppp[0].queue queueingTime:histogram:stddev 0
scalar testNetwork.westernBorderRouter.ppp[0].queue queueingTime:histogram:min 0
scalar testNetwork.westernBorderRouter.ppp[0].queue queueingTime:histogram:max 0
scalar testNetwork.westernBorderRouter.ppp[0].queue queueingTime:histogram:numbins 50
scalar testNetwork.westernBorderRouter.ppp[0].queue queueingTime:histogram:rangemin -0.5
scalar testNetwork.westernBorderRouter.ppp[0].queue queueingTime:histogram:rangemax 0.5
scalar testNetwork.westernBorderRouter.ppp[0].queue queueingTime:histogram:underflows 0
scalar testNetwork.westernBorderRouter.ppp[0].queue queueingTime:histogram:overflows 0
scalar testNetwork.westernBorderRouter.ppp[0].queue outgoingPacketLengths:histogram:count 24037
scalar testNetwork.westernBorderRouter.ppp[0].queue outgoingPacketLengths:histogram:sumweights 24037
scalar testNetwork.westernBorderRouter.ppp[0].queue outgoingPacketLengths:histogram:mean 11999.062778216916
scalar testNetwork.westernBorderRouter.ppp[0].queue outgoingPacketLengths:histogram:stddev 102.75940031429238
scalar testNetwork.westernBorderRouter.ppp[0].queue outgoingPacketLengths:histogram:min 544
scalar testNetwork.westernBorderRouter.ppp[0].queue outgoingPacketLengths:histogram:max 12000
scalar testNetwork.westernBorderRouter.ppp[0].queue outgoingPacketLengths:histogram:numbins 75
scalar testNetwork.westernBorderRouter.ppp[0].queue outgoingPacketLengths:histogram:rangemin 0
scalar testNetwork.westernBorderRouter.ppp[0].queue outgoingPacketLengths:histogram:rangemax 15000
scalar testNetwork.westernBorderRouter.ppp[0].queue outgoingPacketLengths:histogram:underflows 0
scalar testNetwork.westernBorderRouter.ppp[0].queue outgoingPacketLengths:histogram:overflows 0
scalar testNetwork.westernBorderRouter.ppp[0].queue flowQueueingTime:histogram:count 0
scalar testNetwork.westernBorderRouter.ppp[0].queue flowQueueingTime:histogram:sumweights 0
scalar testNetwork.westernBorderRouter.ppp[0].queue flowQueueingTime:histogram:mean -nan
scalar testNetwork.westernBorderRouter.ppp[0].queue flowQueueingTime:histogram:stddev nan
scalar testNetwork.westernBorderRouter.ppp[0].queue flowQueueingTime:histogram:min nan
scalar testNetwork.westernBorderRouter.ppp[0].queue flowQueueingTime:histogram:max nan
scalar testNetwork.westernBorderRouter.ppp[0].queue flowQueueingTime:histogram:numbins 1
scalar testNetwork.westernBorderRouter.ppp[0].queue flowQueueingTime:histogram:rangemin 0
scalar testNetwork.westernBorderRouter.ppp[0].queue flowQueueingTime:histogram:rangemax 1
scalar testNetwork.westernBorderRouter.ppp[0].queue flowQueueingTime:histogram:underflows 0
scalar testNetwork.westernBorderRouter.ppp[0].queue flowQueueingTime:histogram:overflows 0
scalar testNetwork.westernBorderRouter.ppp[0].queue incomingPacketLengths:histogram:count 24037
scalar testNetwork.westernBorderRouter.ppp[0].queue incomingPacketLengths:histogram:sumweights 24037
scalar testNetwork.westernBorderRouter.ppp[0].queue incomingPacketLengths:histogram:mean 11999.062778216916
scalar testNetwork.westernBorderRouter.ppp[0].queue incomingPacketLengths:histogram:stddev 102.75940031429238
scalar testNetwork.westernBorderRouter.ppp[0].queue incomingPacketLengths:histogram:min 544
scalar testNetwork.westernBorderRouter.ppp[0].queue incomingPacketLengths:histogram:max 12000
scalar testNetwork.westernBorderRouter.ppp[0].queue incomingPacketLengths:histogram:numbins 75
scalar testNetwork.westernBorderRouter.ppp[0].queue incomingPacketLengths:histogram:rangemin 0
scalar testNetwork.westernBorderRouter.ppp[0].queue incomingPacketLengths:histogram:rangemax 15000
scalar testNetwork.westernBorderRouter.ppp[0].queue incomingPacketLengths:histogram:underflows 0
scalar testNetwork.westernBorderRouter.ppp[0].queue incomingPacketLengths:histogram:overflows 0
scalar testNetwork.westernBorderRouter.ppp[1].queue queueingTime:histogram:count 12540
scalar testNetwork.westernBorderRouter.ppp[1].queue queueingTime:histogram:sumweights 12540
scalar testNetwork.westernBorderRouter.ppp[1].queue queueingTime:histogram:mean 0
scalar testNetwork.westernBorderRouter.ppp[1].queue queueingTime:histogram:stddev 0
scalar testNetwork.westernBorderRouter.ppp[1].queue queueingTime:histogram:min 0
scalar testNetwork.westernBorderRouter.ppp[1].queue queueingTime:histogram:max 0
scalar testNetwork.westernBorderRouter.ppp[1].queue queueingTime:histogram:numbins 50
scalar testNetwork.westernBorderRouter.ppp[1].queue queueingTime:histogram:rangemin -0.5
scalar testNetwork.westernBorderRouter.ppp[1].queue queueingTime:histogram:rangemax 0.5
scalar testNetwork.westernBorderRouter.ppp[1].queue queueingTime:histogram:underflows 0
scalar testNetwork.westernBorderRouter.ppp[1].queue queueingTime:histogram:overflows 0
scalar testNetwork.westernBorderRouter.ppp[1].queue outgoingPacketLengths:histogram:count 12540
scalar testNetwork.westernBorderRouter.ppp[1].queue outgoingPacketLengths:histogram:sumweights 12540
scalar testNetwork.westernBorderRouter.ppp[1].queue outgoingPacketLengths:histogram:mean 430.47910685805425
scalar testNetwork.westernBorderRouter.ppp[1].queue outgoingPacketLengths:histogram:stddev 113.85273931610263
scalar testNetwork.westernBorderRouter.ppp[1].queue outgoingPacketLengths:histogram:min 288
scalar testNetwork.westernBorderRouter.ppp[1].queue outgoingPacketLengths:histogram:max 2560
scalar testNetwork.westernBorderRouter.ppp[1].queue outgoingPacketLengths:histogram:numbins 63
scalar testNetwork.westernBorderRouter.ppp[1].queue outgoingPacketLengths:histogram:rangemin 60
scalar testNetwork.westernBorderRouter.ppp[1].queue outgoingPacketLengths:histogram:rangemax 2580
scalar testNetwork.westernBorderRouter.ppp[1].queue outgoingPacketLengths:histogram:underflows 0
scalar testNetwork.westernBorderRouter.ppp[1].queue outgoingPacketLengths:histogram:overflows 0
scalar testNetwork.westernBorderRouter.ppp[1].queue flowQueueingTime:histogram:count 0
scalar testNetwork.westernBorderRouter.ppp[1].queue flowQueueingTime:histogram:sumweights 0
scalar testNetwork.westernBorderRouter.ppp[1].queue flowQueueingTime:histogram:mean -nan
scalar testNetwork.westernBorderRouter.ppp[1].queue flowQueueingTime:histogram:stddev nan
scalar testNetwork.westernBorderRouter.ppp[1].queue flowQueueingTime:histogram:min nan
scalar testNetwork.westernBorderRouter.ppp[1].queue flowQueueingTime:histogram:max nan
scalar testNetwork.westernBorderRouter.ppp[1].queue flowQueueingTime:histogram:numbins 1
scalar testNetwork.westernBorderRouter.ppp[1].queue flowQueueingTime:histogram:rangemin 0
scalar testNetwork.westernBorderRouter.ppp[1].queue flowQueueingTime:histogram:rangemax 1
scalar testNetwork.westernBorderRouter.ppp[1].queue flowQueueingTime:histogram:underflows 0
scalar testNetwork.westernBorderRouter.ppp[1].queue flowQueueingTime:histogram:overflows 0
scalar testNetwork.westernBorderRouter.ppp[1].queue incomingPacketLengths:histogram:count 12540
scalar testNetwork.westernBorderRouter.ppp[1].queue incomingPacketLengths:histogram:sumweights 12540
scalar testNetwork.westernBorderRouter.ppp[1].queue incomingPacketLengths:histogram:mean 430.47910685805425
scalar testNetwork.westernBorderRouter.ppp[1].queue incomingPacketLengths:histogram:stddev 113.85273931610263
scalar testNetwork.westernBorderRouter.ppp[1].queue incomingPacketLengths:histogram:min 288
scalar testNetwork.westernBorderRouter.ppp[1].queue incomingPacketLengths:histogram:max 2560
scalar testNetwork.westernBorderRouter.ppp[1].queue incomingPacketLengths:histogram:numbins 63
scalar testNetwork.westernBorderRouter.ppp[1].queue incomingPacketLengths:histogram:rangemin 60
scalar testNetwork.westernBorderRouter.ppp[1].queue incomingPacketLengths:histogram:rangemax 2580
scalar testNetwork.westernBorderRouter.ppp[1].queue incomingPacketLengths:histogram:underflows 0
scalar testNetwork.westernBorderRouter.ppp[1].queue incomingPacketLengths:histogram:overflows 0
scalar testNetwork.westernCoreRouter.ppp[0].queue.red outgoingPacketLengths:histogram:count 23930
scalar testNetwork.westernCoreRouter.ppp[0].queue.red outgoingPacketLengths:histogram:sumweights 23930
scalar testNetwork.westernCoreRouter.ppp[0].queue.red outgoingPacketLengths:histogram:mean 11999.058587547011
scalar testNetwork.westernCoreRouter.ppp[0].queue.red outgoingPacketLengths:histogram:stddev 102.98887239989894
scalar testNetwork.westernCoreRouter.ppp[0].queue.red outgoingPacketLengths:histogram:min 544
scalar testNetwork.westernCoreRouter.ppp[0].queue.red outgoingPacketLengths:histogram:max 12000
scalar testNetwork.westernCoreRouter.ppp[0].queue.red outgoingPacketLengths:histogram:numbins 75
scalar testNetwork.westernCoreRouter.ppp[0].queue.red outgoingPacketLengths:histogram:rangemin 0
scalar testNetwork.westernCoreRouter.ppp[0].queue.red outgoingPacketLengths:histogram:rangemax 15000
scalar testNetwork.westernCoreRouter.ppp[0].queue.red outgoingPacketLengths:histogram:underflows 0
scalar testNetwork.westernCoreRouter.ppp[0].queue.red outgoingPacketLengths:histogram:overflows 0
scalar testNetwork.westernCoreRouter.ppp[0].queue.red flowOutgoingPacketLengths:histogram:count 0
scalar testNetwork.westernCoreRouter.ppp[0].queue.red flowOutgoingPacketLengths:histogram:sumweights 0
scalar testNetwork.westernCoreRouter.ppp[0].queue.red flowOutgoingPacketLengths:histogram:mean -nan
scalar testNetwork.westernCoreRouter.ppp[0].queue.red flowOutgoingPacketLengths:histogram:stddev nan
scalar testNetwork.westernCoreRouter.ppp[0].queue.red flowOutgoingPacketLengths:histogram:min nan
scalar testNetwork.westernCoreRouter.ppp[0].queue.red flowOutgoingPacketLengths:histogram:max nan
scalar testNetwork.westernCoreRouter.ppp[0].queue.red flowOutgoingPacketLengths:histogram:numbins 1
scalar testNetwork.westernCoreRouter.ppp[0].queue.red flowOutgoingPacketLengths:histogram:rangemin 0
scalar testNetwork.westernCoreRouter.ppp[0].queue.red flowOutgoingPacketLengths:histogram:rangemax 1
scalar testNetwork.westernCoreRouter.ppp[0].queue.red flowOutgoingPacketLengths:histogram:underflows 0
scalar testNetwork.westernCoreRouter.ppp[0].queue.red flowOutgoingPacketLengths:histogram:overflows 0
scalar testNetwork.westernCoreRouter.ppp[0].queue.red incomingPacketLengths:histogram:count 24037
scalar testNetwork.westernCoreRouter.ppp[0].queue.red incomingPacketLengths:histogram:sumweights 24037
scalar testNetwork.westernCoreRouter.ppp[0].queue.red incomingPacketLengths:histogram:mean 11999.062778216916
scalar testNetwork.westernCoreRouter.ppp[0].queue.red incomingPacketLengths:histogram:stddev 102.75940031429238
scalar testNetwork.westernCoreRouter.ppp[0].queue.red incomingPacketLengths:histogram:min 544
scalar testNetwork.westernCoreRouter.ppp[0].queue.red incomingPacketLengths:histogram:max 12000
scalar testNetwork.westernCoreRouter.ppp[0].queue.red incomingPacketLengths:histogram:numbins 75
scalar testNetwork.westernCoreRouter.ppp[0].queue.red incomingPacketLengths:histogram:rangemin 0
scalar testNetwork.westernCoreRouter.ppp[0].queue.red incomingPacketLengths:histogram:rangemax 15000
scalar testNetwork.westernCoreRouter.ppp[0].queue.red incomingPacketLengths:histogram:underflows 0
scalar testNetwork.westernCoreRouter.ppp[0].queue.red incomingPacketLengths:histogram:overflows 0
scalar testNetwork.westernCoreRouter.ppp[0].queue.red flowIncomingPacketLengths:histogram:count 0
scalar testNetwork.westernCoreRouter.ppp[0].queue.red flowIncomingPacketLengths:histogram:sumweights 0
scalar testNetwork.westernCoreRouter.ppp[0].queue.red flowIncomingPacketLengths:histogram:mean -nan
scalar testNetwork.westernCoreRouter.ppp[0].queue.red flowIncomingPacketLengths:histogram:stddev nan
scalar testNetwork.westernCoreRouter.ppp[0].queue.red flowIncomingPacketLengths:histogram:min nan
scalar testNetwork.westernCoreRouter.ppp[0].queue.red flowIncomingPacketLengths:histogram:max nan
scalar testNetwork.westernCoreRouter.ppp[0].queue.red flowIncomingPacketLengths:histogram:numbins 1
scalar testNetwork.westernCoreRouter.ppp[0].queue.red flowIncomingPacketLengths:histogram:rangemin 0
scalar testNetwork.westernCoreRouter.ppp[0].queue.red flowIncomingPacketLengths:histogram:rangemax 1
scalar testNetwork.westernCoreRouter.ppp[0].queue.red flowIncomingPacketLengths:histogram:underflows 0
scalar testNetwork.westernCoreRouter.ppp[0].queue.red flowIncomingPacketLengths:histogram:overflows 0
scalar testNetwork.westernCoreRouter.ppp[0].queue.red droppedPacketLengths:histogram:count 107
scalar testNetwork.westernCoreRouter.ppp[0].queue.red droppedPacketLengths:histogram:sumweights 107
scalar testNetwork.westernCoreRouter.ppp[0].queue.red droppedPacketLengths:histogram:mean 12000
scalar testNetwork.westernCoreRouter.ppp[0].queue.red droppedPacketLengths:histogram:stddev 0
scalar testNetwork.westernCoreRouter.ppp[0].queue.red droppedPacketLengths:histogram:min 12000
scalar testNetwork.westernCoreRouter.ppp[0].queue.red droppedPacketLengths:histogram:max 12000
scalar testNetwork.westernCoreRouter.ppp[0].queue.red droppedPacketLengths:histogram:numbins 2
scalar testNetwork.westernCoreRouter.ppp[0].queue.red droppedPacketLengths:histogram:rangemin 11999
scalar testNetwork.westernCoreRouter.ppp[0].queue.red droppedPacketLengths:histogram:rangemax 12001
scalar testNetwork.westernCoreRouter.ppp[0].queue.red droppedPacketLengths:histogram:underflows 0
scalar testNetwork.westernCoreRouter.ppp[0].queue.red droppedPacketLengths:histogram:overflows 0
scalar testNetwork.westernCoreRouter.ppp[0].queue.red flowDroppedPacketLengths:histogram:count 0
scalar testNetwork.westernCoreRouter.ppp[0].queue.red flowDroppedPacketLengths:histogram:sumweights 0
scalar testNetwork.westernCoreRouter.ppp[0].queue.red flowDroppedPacketLengths:histogram:mean -nan
scalar testNetwork.westernCoreRouter.ppp[0].queue.red flowDroppedPacketLengths:histogram:stddev nan
scalar testNetwork.westernCoreRouter.ppp[0].queue.red flowDroppedPacketLengths:histogram:min nan
scalar testNetwork.westernCoreRouter.ppp[0].queue.red flowDroppedPacketLengths:histogram:max nan
scalar testNetwork.westernCoreRouter.ppp[0].queue.red flowDroppedPacketLengths:histogram:numbins 1
scalar testNetwork.westernCoreRouter.ppp[0].queue.red flowDroppedPacketLengths:histogram:rangemin 0
scalar testNetwork.westernCoreRouter.ppp[0].queue.red flowDroppedPacketLengths:histogram:rangemax 1
scalar testNetwork.westernCoreRouter.ppp[0].queue.red flowDroppedPacketLengths:histogram:underflows 0
scalar testNetwork.westernCoreRouter.ppp[0].queue.red flowDroppedPacketLengths:histogram:overflows 0
scalar testNetwork.westernCoreRouter.ppp[0].queue.fifo queueingTime:histogram:count 23908
scalar testNetwork.westernCoreRouter.ppp[0].queue.fifo queueingTime:histogram:sumweights 23908
scalar testNetwork.westernCoreRouter.ppp[0].queue.fifo queueingTime:histogram:mean 0.032047593968546458
scalar testNetwork.westernCoreRouter.ppp[0].queue.fifo queueingTime:histogram:stddev 0.014653039232248234
scalar testNetwork.westernCoreRouter.ppp[0].queue.fifo queueingTime:histogram:min 0
scalar testNetwork.westernCoreRouter.ppp[0].queue.fifo queueingTime:histogram:max 0.10810188
scalar testNetwork.westernCoreRouter.ppp[0].queue.fifo queueingTime:histogram:numbins 68
scalar testNetwork.westernCoreRouter.ppp[0].queue.fifo queueingTime:histogram:rangemin 0
scalar testNetwork.westernCoreRouter.ppp[0].queue.fifo queueingTime:histogram:rangemax 0.13600000000000001
scalar testNetwork.westernCoreRouter.ppp[0].queue.fifo queueingTime:histogram:underflows 0
scalar testNetwork.westernCoreRouter.ppp[0].queue.fifo queueingTime:histogram:overflows 0
scalar testNetwork.westernCoreRouter.ppp[0].queue.fifo outgoingPacketLengths:histogram:count 23908
scalar testNetwork.westernCoreRouter.ppp[0].queue.fifo outgoingPacketLengths:histogram:sumweights 23908
scalar testNetwork.westernCoreRouter.ppp[0].queue.fifo outgoingPacketLengths:histogram:mean 11999.057721264848
scalar testNetwork.westernCoreRouter.ppp[0].queue.fifo outgoingPacketLengths:histogram:stddev 103.03624439913837
scalar testNetwork.westernCoreRouter.ppp[0].queue.fifo outgoingPacketLengths:histogram:min 544
scalar testNetwork.westernCoreRouter.ppp[0].queue.fifo outgoingPacketLengths:histogram:max 12000
scalar testNetwork.westernCoreRouter.ppp[0].queue.fifo outgoingPacketLengths:histogram:numbins 75
scalar testNetwork.westernCoreRouter.ppp[0].queue.fifo outgoingPacketLengths:histogram:rangemin 0
scalar testNetwork.westernCoreRouter.ppp[0].queue.fifo outgoingPacketLengths:histogram:rangemax 15000
scalar testNetwork.westernCoreRouter.ppp[0].queue.fifo outgoingPacketLengths:histogram:underflows 0
scalar testNetwork.westernCoreRouter.ppp[0].queue.fifo outgoingPacketLengths:histogram:overflows 0
scalar testNetwork.westernCoreRouter.ppp[0].queue.fifo flowQueueingTime:histogram:count 0
scalar testNetwork.westernCoreRouter.ppp[0].queue.fifo flowQueueingTime:histogram:sumweights 0
scalar testNetwork.westernCoreRouter.ppp[0].queue.fifo flowQueueingTime:histogram:mean -nan
scalar testNetwork.westernCoreRouter.ppp[0].queue.fifo flowQueueingTime:histogram:stddev nan
scalar testNetwork.westernCoreRouter.ppp[0].queue.fifo flowQueueingTime:histogram:min nan
scalar testNetwork.westernCoreRouter.ppp[0].queue.fifo flowQueueingTime:histogram:max nan
scalar testNetwork.westernCoreRouter.ppp[0].queue.fifo flowQueueingTime:histogram:numbins 1
scalar testNetwork.westernCoreRouter.ppp[0].queue.fifo flowQueueingTime:histogram:rangemin 0
scalar testNetwork.westernCoreRouter.ppp[0].queue.fifo flowQueueingTime:histogram:rangemax 1
scalar testNetwork.westernCoreRouter.ppp[0].queue.fifo flowQueueingTime:histogram:underflows 0
scalar testNetwork.westernCoreRouter.ppp[0].queue.fifo flowQueueingTime:histogram:overflows 0
scalar testNetwork.westernCoreRouter.ppp[0].queue.fifo incomingPacketLengths:histogram:count 23930
scalar testNetwork.westernCoreRouter.ppp[0].queue.fifo incomingPacketLengths:histogram:sumweights 23930
scalar testNetwork.westernCoreRouter.ppp[0].queue.fifo incomingPacketLengths:histogram:mean 11999.058587547011
scalar testNetwork.westernCoreRouter.ppp[0].queue.fifo incomingPacketLengths:histogram:stddev 102.98887239989894
scalar testNetwork.westernCoreRouter.ppp[0].queue.fifo incomingPacketLengths:histogram:min 544
scalar testNetwork.westernCoreRouter.ppp[0].queue.fifo incomingPacketLengths:histogram:max 12000
scalar testNetwork.westernCoreRouter.ppp[0].queue.fifo incomingPacketLengths:histogram:numbins 75
scalar testNetwork.westernCoreRouter.ppp[0].queue.fifo incomingPacketLengths:histogram:rangemin 0
scalar testNetwork.westernCoreRouter.ppp[0].queue.fifo incomingPacketLengths:histogram:rangemax 15000
scalar testNetwork.westernCoreRouter.ppp[0].queue.fifo incomingPacketLengths:histogram:underflows 0
scalar testNetwork.westernCoreRouter.ppp[0].queue.fifo incomingPacketLengths:histogram:overflows 0
scalar testNetwork.westernCoreRouter.ppp[0].queue queueingTime:histogram:count 23908
scalar testNetwork.westernCoreRouter.ppp[0].queue queueingTime:histogram:sumweights 23908
scalar testNetwork.westernCoreRouter.ppp[0].queue queueingTime:histogram:mean 0
scalar testNetwork.westernCoreRouter.ppp[0].queue queueingTime:histogram:stddev 0
scalar testNetwork.westernCoreRouter.ppp[0].queue queueingTime:histogram:min 0
scalar testNetwork.westernCoreRouter.ppp[0].queue queueingTime:histogram:max 0
scalar testNetwork.westernCoreRouter.ppp[0].queue queueingTime:histogram:numbins 50
scalar testNetwork.westernCoreRouter.ppp[0].queue queueingTime:histogram:rangemin -0.5
scalar testNetwork.westernCoreRouter.ppp[0].queue queueingTime:histogram:rangemax 0.5
scalar testNetwork.westernCoreRouter.ppp[0].queue queueingTime:histogram:underflows 0
scalar testNetwork.westernCoreRouter.ppp[0].queue queueingTime:histogram:overflows 0
scalar testNetwork.westernCoreRouter.ppp[0].queue outgoingPacketLengths:histogram:count 23908
scalar testNetwork.westernCoreRouter.ppp[0].queue outgoingPacketLengths:histogram:sumweights 23908
scalar testNetwork.westernCoreRouter.ppp[0].queue outgoingPacketLengths:histogram:mean 11999.057721264848
scalar testNetwork.westernCoreRouter.ppp[0].queue outgoingPacketLengths:histogram:stddev 103.03624439913837
scalar testNetwork.westernCoreRouter.ppp[0].queue outgoingPacketLengths:histogram:min 544
scalar testNetwork.westernCoreRouter.ppp[0].queue outgoingPacketLengths:histogram:max 12000
scalar testNetwork.westernCoreRouter.ppp[0].queue outgoingPacketLengths:histogram:numbins 75
scalar testNetwork.westernCoreRouter.ppp[0].queue outgoingPacketLengths:histogram:rangemin 0
scalar testNetwork.westernCoreRouter.ppp[0].queue outgoingPacketLengths:histogram:rangemax 15000
scalar testNetwork.westernCoreRouter.ppp[0].queue outgoingPacketLengths:histogram:underflows 0
scalar testNetwork.westernCoreRouter.ppp[0].queue outgoingPacketLengths:histogram:overflows 0
scalar testNetwork.westernCoreRouter.ppp[0].queue flowQueueingTime:histogram:count 0
scalar testNetwork.westernCoreRouter.ppp[0].queue flowQueueingTime:histogram:sumweights 0
scalar testNetwork.westernCoreRouter.ppp[0].queue flowQueueingTime:histogram:mean -nan
scalar testNetwork.westernCoreRouter.ppp[0].queue flowQueueingTime:histogram:stddev nan
[...]
scalar testNetwork.serverMain[0].sctp.assoc-14 10.0.0.6:pathBandwidth:vector(demux):min inf
scalar testNetwork.serverMain[0].sctp.assoc-14 10.0.0.6:pathBandwidth:vector(demux):max -inf
scalar testNetwork.serverMain[0].sctp.assoc-14 10.0.0.6:pathBandwidth:vector(demux):starttime nan
scalar testNetwork.serverMain[0].sctp.assoc-14 10.0.0.6:pathBandwidth:vector(demux):endtime nan
scalar testNetwork.serverMain[0].sctp.assoc-14 10.0.0.6:pathRto:vector(demux):count 0
scalar testNetwork.serverMain[0].sctp.assoc-14 10.0.0.6:pathRto:vector(demux):sum 0
scalar testNetwork.serverMain[0].sctp.assoc-14 10.0.0.6:pathRto:vector(demux):sumweights 0
scalar testNetwork.serverMain[0].sctp.assoc-14 10.0.0.6:pathRto:vector(demux):mean -nan
scalar testNetwork.serverMain[0].sctp.assoc-14 10.0.0.6:pathRto:vector(demux):stddev nan
scalar testNetwork.serverMain[0].sctp.assoc-14 10.0.0.6:pathRto:vector(demux):min inf
scalar testNetwork.serverMain[0].sctp.assoc-14 10.0.0.6:pathRto:vector(demux):max -inf
scalar testNetwork.serverMain[0].sctp.assoc-14 10.0.0.6:pathRto:vector(demux):starttime nan
scalar testNetwork.serverMain[0].sctp.assoc-14 10.0.0.6:pathRto:vector(demux):endtime nan
scalar testNetwork.clientMain[0].sctp.assoc-13 10.0.0.18:pathSsthresh:vector(demux):count 0
scalar testNetwork.clientMain[0].sctp.assoc-13 10.0.0.18:pathSsthresh:vector(demux):sum 0
scalar testNetwork.clientMain[0].sctp.assoc-13 10.0.0.18:pathSsthresh:vector(demux):sumweights 0
scalar testNetwork.clientMain[0].sctp.assoc-13 10.0.0.18:pathSsthresh:vector(demux):mean -nan
scalar testNetwork.clientMain[0].sctp.assoc-13 10.0.0.18:pathSsthresh:vector(demux):stddev nan
scalar testNetwork.clientMain[0].sctp.assoc-13 10.0.0.18:pathSsthresh:vector(demux):min inf
scalar testNetwork.clientMain[0].sctp.assoc-13 10.0.0.18:pathSsthresh:vector(demux):max -inf
scalar testNetwork.clientMain[0].sctp.assoc-13 10.0.0.18:pathSsthresh:vector(demux):starttime nan
scalar testNetwork.clientMain[0].sctp.assoc-13 10.0.0.18:pathSsthresh:vector(demux):endtime nan
scalar testNetwork.clientMain[0].sctp.assoc-13 10.0.0.18:pathCwnd:vector(demux):count 0
scalar testNetwork.clientMain[0].sctp.assoc-13 10.0.0.18:pathCwnd:vector(demux):sum 0
scalar testNetwork.clientMain[0].sctp.assoc-13 10.0.0.18:pathCwnd:vector(demux):sumweights 0
scalar testNetwork.clientMain[0].sctp.assoc-13 10.0.0.18:pathCwnd:vector(demux):mean -nan
scalar testNetwork.clientMain[0].sctp.assoc-13 10.0.0.18:pathCwnd:vector(demux):stddev nan
scalar testNetwork.clientMain[0].sctp.assoc-13 10.0.0.18:pathCwnd:vector(demux):min inf
scalar testNetwork.clientMain[0].sctp.assoc-13 10.0.0.18:pathCwnd:vector(demux):max -inf
scalar testNetwork.clientMain[0].sctp.assoc-13 10.0.0.18:pathCwnd:vector(demux):starttime nan
scalar testNetwork.clientMain[0].sctp.assoc-13 10.0.0.18:pathCwnd:vector(demux):endtime nan
scalar testNetwork.clientMain[0].sctp.assoc-13 10.0.0.18:pathBandwidth:vector(demux):count 0
scalar testNetwork.clientMain[0].sctp.assoc-13 10.0.0.18:pathBandwidth:vector(demux):sum 0
scalar testNetwork.clientMain[0].sctp.assoc-13 10.0.0.18:pathBandwidth:vector(demux):sumweights 0
scalar testNetwork.clientMain[0].sctp.assoc-13 10.0.0.18:pathBandwidth:vector(demux):mean -nan
scalar testNetwork.clientMain[0].sctp.assoc-13 10.0.0.18:pathBandwidth:vector(demux):stddev nan
scalar testNetwork.clientMain[0].sctp.assoc-13 10.0.0.18:pathBandwidth:vector(demux):min inf
scalar testNetwork.clientMain[0].sctp.assoc-13 10.0.0.18:pathBandwidth:vector(demux):max -inf
scalar testNetwork.clientMain[0].sctp.assoc-13 10.0.0.18:pathBandwidth:vector(demux):starttime nan
scalar testNetwork.clientMain[0].sctp.assoc-13 10.0.0.18:pathBandwidth:vector(demux):endtime nan
scalar testNetwork.clientMain[0].sctp.assoc-13 10.0.0.18:pathRto:vector(demux):count 0
scalar testNetwork.clientMain[0].sctp.assoc-13 10.0.0.18:pathRto:vector(demux):sum 0
scalar testNetwork.clientMain[0].sctp.assoc-13 10.0.0.18:pathRto:vector(demux):sumweights 0
scalar testNetwork.clientMain[0].sctp.assoc-13 10.0.0.18:pathRto:vector(demux):mean -nan
scalar testNetwork.clientMain[0].sctp.assoc-13 10.0.0.18:pathRto:vector(demux):stddev nan
scalar testNetwork.clientMain[0].sctp.assoc-13 10.0.0.18:pathRto:vector(demux):min inf
scalar testNetwork.clientMain[0].sctp.assoc-13 10.0.0.18:pathRto:vector(demux):max -inf
scalar testNetwork.clientMain[0].sctp.assoc-13 10.0.0.18:pathRto:vector(demux):starttime nan
scalar testNetwork.clientMain[0].sctp.assoc-13 10.0.0.18:pathRto:vector(demux):endtime nan
scalar testNetwork.clientMain[0].sctp.assoc-13 10.0.0.18:pathTsnSent:vector(demux):count 0
scalar testNetwork.clientMain[0].sctp.assoc-13 10.0.0.18:pathTsnSent:vector(demux):sum 0
scalar testNetwork.clientMain[0].sctp.assoc-13 10.0.0.18:pathTsnSent:vector(demux):sumweights 0
scalar testNetwork.clientMain[0].sctp.assoc-13 10.0.0.18:pathTsnSent:vector(demux):mean -nan
scalar testNetwork.clientMain[0].sctp.assoc-13 10.0.0.18:pathTsnSent:vector(demux):stddev nan
scalar testNetwork.clientMain[0].sctp.assoc-13 10.0.0.18:pathTsnSent:vector(demux):min inf
scalar testNetwork.clientMain[0].sctp.assoc-13 10.0.0.18:pathTsnSent:vector(demux):max -inf
scalar testNetwork.clientMain[0].sctp.assoc-13 10.0.0.18:pathTsnSent:vector(demux):starttime nan
scalar testNetwork.clientMain[0].sctp.assoc-13 10.0.0.18:pathTsnSent:vector(demux):endtime nan
scalar testNetwork.clientMain[0].sctp.assoc-13 10.0.0.18:pathOutstandingBytes:vector(demux):count 0
scalar testNetwork.clientMain[0].sctp.assoc-13 10.0.0.18:pathOutstandingBytes:vector(demux):sum 0
scalar testNetwork.clientMain[0].sctp.assoc-13 10.0.0.18:pathOutstandingBytes:vector(demux):sumweights 0
scalar testNetwork.clientMain[0].sctp.assoc-13 10.0.0.18:pathOutstandingBytes:vector(demux):mean -nan
scalar testNetwork.clientMain[0].sctp.assoc-13 10.0.0.18:pathOutstandingBytes:vector(demux):stddev nan
scalar testNetwork.clientMain[0].sctp.assoc-13 10.0.0.18:pathOutstandingBytes:vector(demux):min inf
scalar testNetwork.clientMain[0].sctp.assoc-13 10.0.0.18:pathOutstandingBytes:vector(demux):max -inf
scalar testNetwork.clientMain[0].sctp.assoc-13 10.0.0.18:pathOutstandingBytes:vector(demux):starttime nan
scalar testNetwork.clientMain[0].sctp.assoc-13 10.0.0.18:pathOutstandingBytes:vector(demux):endtime nan
scalar testNetwork.clientMain[0].sctp.assoc-13 10.0.0.18:pathQueuedSentBytes:vector(demux):count 0
scalar testNetwork.clientMain[0].sctp.assoc-13 10.0.0.18:pathQueuedSentBytes:vector(demux):sum 0
scalar testNetwork.clientMain[0].sctp.assoc-13 10.0.0.18:pathQueuedSentBytes:vector(demux):sumweights 0
scalar testNetwork.clientMain[0].sctp.assoc-13 10.0.0.18:pathQueuedSentBytes:vector(demux):mean -nan
scalar testNetwork.clientMain[0].sctp.assoc-13 10.0.0.18:pathQueuedSentBytes:vector(demux):stddev nan
scalar testNetwork.clientMain[0].sctp.assoc-13 10.0.0.18:pathQueuedSentBytes:vector(demux):min inf
scalar testNetwork.clientMain[0].sctp.assoc-13 10.0.0.18:pathQueuedSentBytes:vector(demux):max -inf
scalar testNetwork.clientMain[0].sctp.assoc-13 10.0.0.18:pathQueuedSentBytes:vector(demux):starttime nan
scalar testNetwork.clientMain[0].sctp.assoc-13 10.0.0.18:pathQueuedSentBytes:vector(demux):endtime nan
scalar testNetwork.serverMain[0].sctp.assoc-14 10.0.0.6:pathTsnReceived:vector(demux):count 0
scalar testNetwork.serverMain[0].sctp.assoc-14 10.0.0.6:pathTsnReceived:vector(demux):sum 0
scalar testNetwork.serverMain[0].sctp.assoc-14 10.0.0.6:pathTsnReceived:vector(demux):sumweights 0
scalar testNetwork.serverMain[0].sctp.assoc-14 10.0.0.6:pathTsnReceived:vector(demux):mean -nan
scalar testNetwork.serverMain[0].sctp.assoc-14 10.0.0.6:pathTsnReceived:vector(demux):stddev nan
scalar testNetwork.serverMain[0].sctp.assoc-14 10.0.0.6:pathTsnReceived:vector(demux):min inf
scalar testNetwork.serverMain[0].sctp.assoc-14 10.0.0.6:pathTsnReceived:vector(demux):max -inf
scalar testNetwork.serverMain[0].sctp.assoc-14 10.0.0.6:pathTsnReceived:vector(demux):starttime nan
scalar testNetwork.serverMain[0].sctp.assoc-14 10.0.0.6:pathTsnReceived:vector(demux):endtime nan
scalar testNetwork.clientMain[0].sctp.assoc-13 10.0.0.18:pathTsnAckedCumAck:vector(demux):count 0
scalar testNetwork.clientMain[0].sctp.assoc-13 10.0.0.18:pathTsnAckedCumAck:vector(demux):sum 0
scalar testNetwork.clientMain[0].sctp.assoc-13 10.0.0.18:pathTsnAckedCumAck:vector(demux):sumweights 0
scalar testNetwork.clientMain[0].sctp.assoc-13 10.0.0.18:pathTsnAckedCumAck:vector(demux):mean -nan
scalar testNetwork.clientMain[0].sctp.assoc-13 10.0.0.18:pathTsnAckedCumAck:vector(demux):stddev nan
scalar testNetwork.clientMain[0].sctp.assoc-13 10.0.0.18:pathTsnAckedCumAck:vector(demux):min inf
scalar testNetwork.clientMain[0].sctp.assoc-13 10.0.0.18:pathTsnAckedCumAck:vector(demux):max -inf
scalar testNetwork.clientMain[0].sctp.assoc-13 10.0.0.18:pathTsnAckedCumAck:vector(demux):starttime nan
scalar testNetwork.clientMain[0].sctp.assoc-13 10.0.0.18:pathTsnAckedCumAck:vector(demux):endtime nan
scalar testNetwork.clientMain[0].sctp.assoc-13 10.0.0.18:pathRtt:vector(demux):count 0
scalar testNetwork.clientMain[0].sctp.assoc-13 10.0.0.18:pathRtt:vector(demux):sum 0
scalar testNetwork.clientMain[0].sctp.assoc-13 10.0.0.18:pathRtt:vector(demux):sumweights 0
scalar testNetwork.clientMain[0].sctp.assoc-13 10.0.0.18:pathRtt:vector(demux):mean -nan
scalar testNetwork.clientMain[0].sctp.assoc-13 10.0.0.18:pathRtt:vector(demux):stddev nan
scalar testNetwork.clientMain[0].sctp.assoc-13 10.0.0.18:pathRtt:vector(demux):min inf
scalar testNetwork.clientMain[0].sctp.assoc-13 10.0.0.18:pathRtt:vector(demux):max -inf
scalar testNetwork.clientMain[0].sctp.assoc-13 10.0.0.18:pathRtt:vector(demux):starttime nan
scalar testNetwork.clientMain[0].sctp.assoc-13 10.0.0.18:pathRtt:vector(demux):endtime nan
scalar testNetwork.clientMain[0].sctp.assoc-13 10.0.0.18:pathGapAckedChunksInLastSACK:vector(demux):count 0
scalar testNetwork.clientMain[0].sctp.assoc-13 10.0.0.18:pathGapAckedChunksInLastSACK:vector(demux):sum 0
scalar testNetwork.clientMain[0].sctp.assoc-13 10.0.0.18:pathGapAckedChunksInLastSACK:vector(demux):sumweights 0
scalar testNetwork.clientMain[0].sctp.assoc-13 10.0.0.18:pathGapAckedChunksInLastSACK:vector(demux):mean -nan
scalar testNetwork.clientMain[0].sctp.assoc-13 10.0.0.18:pathGapAckedChunksInLastSACK:vector(demux):stddev nan
scalar testNetwork.clientMain[0].sctp.assoc-13 10.0.0.18:pathGapAckedChunksInLastSACK:vector(demux):min inf
scalar testNetwork.clientMain[0].sctp.assoc-13 10.0.0.18:pathGapAckedChunksInLastSACK:vector(demux):max -inf
scalar testNetwork.clientMain[0].sctp.assoc-13 10.0.0.18:pathGapAckedChunksInLastSACK:vector(demux):starttime nan
scalar testNetwork.clientMain[0].sctp.assoc-13 10.0.0.18:pathGapAckedChunksInLastSACK:vector(demux):endtime nan
scalar testNetwork.clientMain[0].sctp.assoc-13 10.0.0.18:pathGapNRAckedChunksInLastSACK:vector(demux):count 0
scalar testNetwork.clientMain[0].sctp.assoc-13 10.0.0.18:pathGapNRAckedChunksInLastSACK:vector(demux):sum 0
scalar testNetwork.clientMain[0].sctp.assoc-13 10.0.0.18:pathGapNRAckedChunksInLastSACK:vector(demux):sumweights 0
scalar testNetwork.clientMain[0].sctp.assoc-13 10.0.0.18:pathGapNRAckedChunksInLastSACK:vector(demux):mean -nan
scalar testNetwork.clientMain[0].sctp.assoc-13 10.0.0.18:pathGapNRAckedChunksInLastSACK:vector(demux):stddev nan
scalar testNetwork.clientMain[0].sctp.assoc-13 10.0.0.18:pathGapNRAckedChunksInLastSACK:vector(demux):min inf
scalar testNetwork.clientMain[0].sctp.assoc-13 10.0.0.18:pathGapNRAckedChunksInLastSACK:vector(demux):max -inf
scalar testNetwork.clientMain[0].sctp.assoc-13 10.0.0.18:pathGapNRAckedChunksInLastSACK:vector(demux):starttime nan
scalar testNetwork.clientMain[0].sctp.assoc-13 10.0.0.18:pathGapNRAckedChunksInLastSACK:vector(demux):endtime nan
scalar testNetwork.clientMain[0].sctp.assoc-13 10.0.0.18:pathGapUnackedChunksInLastSACK:vector(demux):count 0
scalar testNetwork.clientMain[0].sctp.assoc-13 10.0.0.18:pathGapUnackedChunksInLastSACK:vector(demux):sum 0
scalar testNetwork.clientMain[0].sctp.assoc-13 10.0.0.18:pathGapUnackedChunksInLastSACK:vector(demux):sumweights 0
scalar testNetwork.clientMain[0].sctp.assoc-13 10.0.0.18:pathGapUnackedChunksInLastSACK:vector(demux):mean -nan
scalar testNetwork.clientMain[0].sctp.assoc-13 10.0.0.18:pathGapUnackedChunksInLastSACK:vector(demux):stddev nan
scalar testNetwork.clientMain[0].sctp.assoc-13 10.0.0.18:pathGapUnackedChunksInLastSACK:vector(demux):min inf
scalar testNetwork.clientMain[0].sctp.assoc-13 10.0.0.18:pathGapUnackedChunksInLastSACK:vector(demux):max -inf
scalar testNetwork.clientMain[0].sctp.assoc-13 10.0.0.18:pathGapUnackedChunksInLastSACK:vector(demux):starttime nan
scalar testNetwork.clientMain[0].sctp.assoc-13 10.0.0.18:pathGapUnackedChunksInLastSACK:vector(demux):endtime nan
scalar testNetwork.clientMain[0].sctp.assoc-13 10.0.0.18:pathPseudoCumAck:vector(demux):count 0
scalar testNetwork.clientMain[0].sctp.assoc-13 10.0.0.18:pathPseudoCumAck:vector(demux):sum 0
scalar testNetwork.clientMain[0].sctp.assoc-13 10.0.0.18:pathPseudoCumAck:vector(demux):sumweights 0
scalar testNetwork.clientMain[0].sctp.assoc-13 10.0.0.18:pathPseudoCumAck:vector(demux):mean -nan
scalar testNetwork.clientMain[0].sctp.assoc-13 10.0.0.18:pathPseudoCumAck:vector(demux):stddev nan
scalar testNetwork.clientMain[0].sctp.assoc-13 10.0.0.18:pathPseudoCumAck:vector(demux):min inf
scalar testNetwork.clientMain[0].sctp.assoc-13 10.0.0.18:pathPseudoCumAck:vector(demux):max -inf
scalar testNetwork.clientMain[0].sctp.assoc-13 10.0.0.18:pathPseudoCumAck:vector(demux):starttime nan
scalar testNetwork.clientMain[0].sctp.assoc-13 10.0.0.18:pathPseudoCumAck:vector(demux):endtime nan
scalar testNetwork.clientMain[0].sctp.assoc-13 10.0.0.18:pathRTXPseudoCumAck:vector(demux):count 0
scalar testNetwork.clientMain[0].sctp.assoc-13 10.0.0.18:pathRTXPseudoCumAck:vector(demux):sum 0
scalar testNetwork.clientMain[0].sctp.assoc-13 10.0.0.18:pathRTXPseudoCumAck:vector(demux):sumweights 0
scalar testNetwork.clientMain[0].sctp.assoc-13 10.0.0.18:pathRTXPseudoCumAck:vector(demux):mean -nan
scalar testNetwork.clientMain[0].sctp.assoc-13 10.0.0.18:pathRTXPseudoCumAck:vector(demux):stddev nan
scalar testNetwork.clientMain[0].sctp.assoc-13 10.0.0.18:pathRTXPseudoCumAck:vector(demux):min inf
scalar testNetwork.clientMain[0].sctp.assoc-13 10.0.0.18:pathRTXPseudoCumAck:vector(demux):max -inf
scalar testNetwork.clientMain[0].sctp.assoc-13 10.0.0.18:pathRTXPseudoCumAck:vector(demux):starttime nan
scalar testNetwork.clientMain[0].sctp.assoc-13 10.0.0.18:pathRTXPseudoCumAck:vector(demux):endtime nan
scalar testNetwork.clientMain[0].sctp.assoc-13 10.0.0.18:pathPartialBytesAcked:vector(demux):count 0
scalar testNetwork.clientMain[0].sctp.assoc-13 10.0.0.18:pathPartialBytesAcked:vector(demux):sum 0
scalar testNetwork.clientMain[0].sctp.assoc-13 10.0.0.18:pathPartialBytesAcked:vector(demux):sumweights 0
scalar testNetwork.clientMain[0].sctp.assoc-13 10.0.0.18:pathPartialBytesAcked:vector(demux):mean -nan
scalar testNetwork.clientMain[0].sctp.assoc-13 10.0.0.18:pathPartialBytesAcked:vector(demux):stddev nan
scalar testNetwork.clientMain[0].sctp.assoc-13 10.0.0.18:pathPartialBytesAcked:vector(demux):min inf
scalar testNetwork.clientMain[0].sctp.assoc-13 10.0.0.18:pathPartialBytesAcked:vector(demux):max -inf
scalar testNetwork.clientMain[0].sctp.assoc-13 10.0.0.18:pathPartialBytesAcked:vector(demux):starttime nan
scalar testNetwork.clientMain[0].sctp.assoc-13 10.0.0.18:pathPartialBytesAcked:vector(demux):endtime nan
scalar testNetwork.serverMain[0].sctp.assoc-14 stream-0:streamThroughput:vector(demux):count 0
scalar testNetwork.serverMain[0].sctp.assoc-14 stream-0:streamThroughput:vector(demux):sum 0
scalar testNetwork.serverMain[0].sctp.assoc-14 stream-0:streamThroughput:vector(demux):sumweights 0
scalar testNetwork.serverMain[0].sctp.assoc-14 stream-0:streamThroughput:vector(demux):mean -nan
scalar testNetwork.serverMain[0].sctp.assoc-14 stream-0:streamThroughput:vector(demux):stddev nan
scalar testNetwork.serverMain[0].sctp.assoc-14 stream-0:streamThroughput:vector(demux):min inf
scalar testNetwork.serverMain[0].sctp.assoc-14 stream-0:streamThroughput:vector(demux):max -inf
scalar testNetwork.serverMain[0].sctp.assoc-14 stream-0:streamThroughput:vector(demux):starttime nan
scalar testNetwork.serverMain[0].sctp.assoc-14 stream-0:streamThroughput:vector(demux):endtime nan
scalar testNetwork.clientMain[0].sctp.assoc-13 10.0.0.18:pathTsnAckedGapAck:vector(demux):count 0
scalar testNetwork.clientMain[0].sctp.assoc-13 10.0.0.18:pathTsnAckedGapAck:vector(demux):sum 0
scalar testNetwork.clientMain[0].sctp.assoc-13 10.0.0.18:pathTsnAckedGapAck:vector(demux):sumweights 0
scalar testNetwork.clientMain[0].sctp.assoc-13 10.0.0.18:pathTsnAckedGapAck:vector(demux):mean -nan
scalar testNetwork.clientMain[0].sctp.assoc-13 10.0.0.18:pathTsnAckedGapAck:vector(demux):stddev nan
scalar testNetwork.clientMain[0].sctp.assoc-13 10.0.0.18:pathTsnAckedGapAck:vector(demux):min inf
scalar testNetwork.clientMain[0].sctp.assoc-13 10.0.0.18:pathTsnAckedGapAck:vector(demux):max -inf
scalar testNetwork.clientMain[0].sctp.assoc-13 10.0.0.18:pathTsnAckedGapAck:vector(demux):starttime nan
scalar testNetwork.clientMain[0].sctp.assoc-13 10.0.0.18:pathTsnAckedGapAck:vector(demux):endtime nan
scalar testNetwork.clientMain[0].sctp.assoc-13 10.0.0.18:pathFastRecoveryState:vector(demux):count 0
scalar testNetwork.clientMain[0].sctp.assoc-13 10.0.0.18:pathFastRecoveryState:vector(demux):sum 0
scalar testNetwork.clientMain[0].sctp.assoc-13 10.0.0.18:pathFastRecoveryState:vector(demux):sumweights 0
scalar testNetwork.clientMain[0].sctp.assoc-13 10.0.0.18:pathFastRecoveryState:vector(demux):mean -nan
scalar testNetwork.clientMain[0].sctp.assoc-13 10.0.0.18:pathFastRecoveryState:vector(demux):stddev nan
scalar testNetwork.clientMain[0].sctp.assoc-13 10.0.0.18:pathFastRecoveryState:vector(demux):min inf
scalar testNetwork.clientMain[0].sctp.assoc-13 10.0.0.18:pathFastRecoveryState:vector(demux):max -inf
scalar testNetwork.clientMain[0].sctp.assoc-13 10.0.0.18:pathFastRecoveryState:vector(demux):starttime nan
scalar testNetwork.clientMain[0].sctp.assoc-13 10.0.0.18:pathFastRecoveryState:vector(demux):endtime nan
scalar testNetwork.clientMain[0].sctp.assoc-13 10.0.0.18:pathTsnFastRTX:vector(demux):count 0
scalar testNetwork.clientMain[0].sctp.assoc-13 10.0.0.18:pathTsnFastRTX:vector(demux):sum 0
scalar testNetwork.clientMain[0].sctp.assoc-13 10.0.0.18:pathTsnFastRTX:vector(demux):sumweights 0
scalar testNetwork.clientMain[0].sctp.assoc-13 10.0.0.18:pathTsnFastRTX:vector(demux):mean -nan
scalar testNetwork.clientMain[0].sctp.assoc-13 10.0.0.18:pathTsnFastRTX:vector(demux):stddev nan
scalar testNetwork.clientMain[0].sctp.assoc-13 10.0.0.18:pathTsnFastRTX:vector(demux):min inf
scalar testNetwork.clientMain[0].sctp.assoc-13 10.0.0.18:pathTsnFastRTX:vector(demux):max -inf
scalar testNetwork.clientMain[0].sctp.assoc-13 10.0.0.18:pathTsnFastRTX:vector(demux):starttime nan
scalar testNetwork.clientMain[0].sctp.assoc-13 10.0.0.18:pathTsnFastRTX:vector(demux):endtime nan
scalar testNetwork.clientMain[0].sctp.assoc-13 10.0.0.18:pathTsnTimerBasedRTX:vector(demux):count 0
scalar testNetwork.clientMain[0].sctp.assoc-13 10.0.0.18:pathTsnTimerBasedRTX:vector(demux):sum 0
scalar testNetwork.clientMain[0].sctp.assoc-13 10.0.0.18:pathTsnTimerBasedRTX:vector(demux):sumweights 0
scalar testNetwork.clientMain[0].sctp.assoc-13 10.0.0.18:pathTsnTimerBasedRTX:vector(demux):mean -nan
scalar testNetwork.clientMain[0].sctp.assoc-13 10.0.0.18:pathTsnTimerBasedRTX:vector(demux):stddev nan
scalar testNetwork.clientMain[0].sctp.assoc-13 10.0.0.18:pathTsnTimerBasedRTX:vector(demux):min inf
scalar testNetwork.clientMain[0].sctp.assoc-13 10.0.0.18:pathTsnTimerBasedRTX:vector(demux):max -inf
scalar testNetwork.clientMain[0].sctp.assoc-13 10.0.0.18:pathTsnTimerBasedRTX:vector(demux):starttime nan
scalar testNetwork.clientMain[0].sctp.assoc-13 10.0.0.18:pathTsnTimerBasedRTX:vector(demux):endtime nan

